data_acaa
_audit_creation_date              2020-02-04
_audit_creation_method            'Pymatgen'
_symmetry_space_group_name_H-M    'P1'
_symmetry_Int_Tables_number       1
loop_
_symmetry_equiv_pos_as_xyz
  x,y,z
_cell_length_a                    69.323
_cell_length_b                    69.323
_cell_length_c                    58.4946
_cell_angle_alpha                 90.0
_cell_angle_beta                 90.0
_cell_angle_gamma                 120.0
loop_
_atom_site_label
_atom_site_type_symbol
_atom_site_fract_x
_atom_site_fract_y
_atom_site_fract_z
Ti1     Ti     0.3815   0.763   0.3357
Ti2     Ti     0.237   0.6185   0.3357
Ti3     Ti     0.3815   0.6185   0.3357
Ti4     Ti     0.3815   0.763   0.1643
Ti5     Ti     0.3815   0.6185   0.1643
Ti6     Ti     0.237   0.6185   0.1643
Ce7     Ce     0.4508   0.5492   0.0678
Ce8     Ce     0.5492   0.4508   0.9322
Ce9     Ce     0.4508   0.5492   0.4322
Ce10     Ce     0.5492   0.4508   0.5678
Ce11     Ce     0.5492   0.0983   0.5678
Ce12     Ce     0.4508   0.9017   0.0678
Ce13     Ce     0.4508   0.9017   0.4322
Ce14     Ce     0.5492   0.0983   0.9322
Ce15     Ce     0.0983   0.5492   0.4322
Ce16     Ce     0.9017   0.4508   0.9322
Ce17     Ce     0.9017   0.4508   0.5678
V18     V     0.3887   0.1223   0.1646
V19     V     0.3887   0.1223   0.3354
V20     V     0.3887   0.2664   0.1646
V21     V     0.3887   0.2664   0.3354
V22     V     0.1223   0.7336   0.8354
V23     V     0.1223   0.7336   0.6646
V24     V     0.2664   0.8777   0.6646
V25     V     0.2664   0.8777   0.8354
Er26     Er     0.405   0.9537   0.5707
Er27     Er     0.5487   0.9537   0.5707
Er28     Er     0.4513   0.0463   0.4293
Er29     Er     0.595   0.0463   0.4293
V30     V     0.8777   0.2664   0.1646
V31     V     0.8777   0.2664   0.3354
V32     V     0.7336   0.1223   0.3354
V33     V     0.7336   0.1223   0.1646
Er34     Er     0.405   0.9537   0.9293
Er35     Er     0.5487   0.9537   0.9293
Er36     Er     0.4513   0.0463   0.0707
Er37     Er     0.595   0.0463   0.0707
V38     V     0.6113   0.8777   0.8354
V39     V     0.6113   0.8777   0.6646
V40     V     0.6113   0.7336   0.6646
V41     V     0.6113   0.7336   0.8354
V42     V     0.1223   0.3887   0.8354
V43     V     0.1223   0.3887   0.6646
V44     V     0.2664   0.3887   0.6646
V45     V     0.2664   0.3887   0.8354
Er46     Er     0.9537   0.5487   0.4293
Er47     Er     0.9537   0.405   0.4293
Er48     Er     0.0463   0.4513   0.5707
Er49     Er     0.0463   0.595   0.5707
Er50     Er     0.9537   0.5487   0.0707
Er51     Er     0.9537   0.405   0.0707
Er52     Er     0.0463   0.4513   0.9293
Er53     Er     0.0463   0.595   0.9293
Er54     Er     0.4513   0.405   0.0707
Er55     Er     0.595   0.5487   0.0707
Er56     Er     0.405   0.4513   0.9293
Er57     Er     0.5487   0.595   0.9293
Er58     Er     0.405   0.4513   0.5707
Er59     Er     0.5487   0.595   0.5707
Er60     Er     0.4513   0.405   0.4293
Er61     Er     0.595   0.5487   0.4293
V62     V     0.8777   0.6113   0.3354
V63     V     0.8777   0.6113   0.1646
V64     V     0.7336   0.6113   0.1646
V65     V     0.7336   0.6113   0.3354
Ce66     Ce     0.0983   0.5492   0.0678
Ti67     Ti     0.763   0.3815   0.8357
Ti68     Ti     0.6185   0.3815   0.8357
Ti69     Ti     0.6185   0.237   0.8357
Ti70     Ti     0.763   0.3815   0.6643
Ti71     Ti     0.6185   0.237   0.6643
Ti72     Ti     0.6185   0.3815   0.6643
loop_
_geom_bond_atom_site_label_1
_geom_bond_atom_site_label_2
_geom_bond_distance
_geom_bond_site_symmetry_2
_ccdc_geom_bond_type
Ti1     Ti3    10.021   .     S
Ti1     Ti2    10.021   .     S
Ti1     Ti4    10.026   .     S
Ti1     Ce13    10.056   .     S
Ti2     Ti3    10.021   .     S
Ti2     Ti6    10.026   .     S
Ti2     Ce15    10.056   .     S
Ti3     Ti5    10.026   .     S
Ti3     Ce9    10.056   .     S
Ti4     Ti5    10.021   .     S
Ti4     Ti6    10.021   .     S
Ti4     Ce12    10.056   .     S
Ti5     Ti6    10.021   .     S
Ti5     Ce7    10.056   .     S
Ti6     Ce66    10.056   .     S
Ce7     Er55    10.01   .     S
Ce7     Er54    10.01   .     S
Ce7     Er57    10.011   1_554     S
Ce7     Er56    10.011   1_554     S
Ce8     Er57    10.01   .     S
Ce8     Er56    10.01   .     S
Ce8     Er55    10.011   1_556     S
Ce8     Er54    10.011   1_556     S
Ce8     Ti68    10.056   .     S
Ce9     Er60    10.01   .     S
Ce9     Er61    10.01   .     S
Ce9     Er58    10.011   .     S
Ce9     Er59    10.011   .     S
Ce10     Er58    10.01   .     S
Ce10     Er59    10.01   .     S
Ce10     Er60    10.011   .     S
Ce10     Er61    10.011   .     S
Ce10     Ti72    10.056   .     S
Ce11     Er27    10.01   1_545     S
Ce11     Er26    10.01   1_545     S
Ce11     Er29    10.011   .     S
Ce11     Er28    10.011   .     S
Ce11     Ti71    10.056   .     S
Ce12     Er36    10.01   1_565     S
Ce12     Er37    10.01   1_565     S
Ce12     Er34    10.011   1_554     S
Ce12     Er35    10.011   1_554     S
Ce13     Er29    10.01   1_565     S
Ce13     Er28    10.01   1_565     S
Ce13     Er27    10.011   .     S
Ce13     Er26    10.011   .     S
Ce14     Er34    10.01   1_545     S
Ce14     Er35    10.01   1_545     S
Ce14     Er36    10.011   1_556     S
Ce14     Er37    10.011   1_556     S
Ce14     Ti69    10.056   .     S
Ce15     Er46    10.01   1_455     S
Ce15     Er47    10.01   1_455     S
Ce15     Er49    10.011   .     S
Ce15     Er48    10.011   .     S
Ce16     Er52    10.01   1_655     S
Ce16     Er53    10.01   1_655     S
Ce16     Er51    10.011   1_556     S
Ce16     Er50    10.011   1_556     S
Ce16     Ti67    10.056   .     S
Ce17     Er49    10.01   1_655     S
Ce17     Er48    10.01   1_655     S
Ce17     Er46    10.011   .     S
Ce17     Er47    10.011   .     S
Ce17     Ti70    10.056   .     S
V18     V19    9.985   .     S
V18     Er36    9.986   .     S
V18     V20    9.987   .     S
V19     Er28    9.986   .     S
V19     V21    9.987   .     S
V20     V21    9.985   .     S
V20     Er54    9.986   .     S
V21     Er60    9.986   .     S
V22     V23    9.985   .     S
V22     Er53    9.986   .     S
V22     V25    9.987   .     S
V23     Er49    9.986   .     S
V23     V24    9.987   .     S
V24     V25    9.985   .     S
V24     Er26    9.986   .     S
V25     Er34    9.986   .     S
Er26     Ce11    10.01   1_565     S
Er26     Er27    9.961   .     S
Er26     Er28    9.963   1_565     S
Er27     Ce11    10.01   1_565     S
Er27     Er29    9.963   1_565     S
Er27     V39    9.986   .     S
Er28     Ce13    10.01   1_545     S
Er28     Er26    9.963   1_545     S
Er28     Er29    9.961   .     S
Er29     Ce13    10.01   1_545     S
Er29     Er27    9.963   1_545     S
Er29     V32    9.986   .     S
V30     V31    9.985   .     S
V30     Er51    9.986   .     S
V30     V33    9.987   .     S
V31     Er47    9.986   .     S
V31     V32    9.987   .     S
V32     V33    9.985   .     S
V33     Er37    9.986   .     S
Er34     Ce12    10.011   1_556     S
Er34     Ce14    10.01   1_565     S
Er34     Er35    9.961   .     S
Er34     Er36    9.963   1_566     S
Er35     Ce12    10.011   1_556     S
Er35     Ce14    10.01   1_565     S
Er35     Er37    9.963   1_566     S
Er35     V38    9.986   .     S
Er36     Ce12    10.01   1_545     S
Er36     Ce14    10.011   1_554     S
Er36     Er37    9.961   .     S
Er36     Er34    9.963   1_544     S
Er37     Ce12    10.01   1_545     S
Er37     Ce14    10.011   1_554     S
Er37     Er35    9.963   1_544     S
V38     V39    9.985   .     S
V38     V41    9.987   .     S
V39     V40    9.987   .     S
V40     V41    9.985   .     S
V40     Er59    9.986   .     S
V41     Er57    9.986   .     S
V42     V43    9.985   .     S
V42     Er52    9.986   .     S
V42     V45    9.987   .     S
V43     Er48    9.986   .     S
V43     V44    9.987   .     S
V44     V45    9.985   .     S
V44     Er58    9.986   .     S
V45     Er56    9.986   .     S
Er46     Ce15    10.01   1_655     S
Er46     Er47    9.961   .     S
Er46     Er49    9.963   1_655     S
Er46     V62    9.986   .     S
Er47     Ce15    10.01   1_655     S
Er47     Er48    9.963   1_655     S
Er48     Ce17    10.01   1_455     S
Er48     Er49    9.961   .     S
Er48     Er47    9.963   1_455     S
Er49     Ce17    10.01   1_455     S
Er49     Er46    9.963   1_455     S
Er50     Ce16    10.011   1_554     S
Er50     Ce66    10.01   1_655     S
Er50     Er51    9.961   .     S
Er50     Er53    9.963   1_654     S
Er50     V63    9.986   .     S
Er51     Ce16    10.011   1_554     S
Er51     Ce66    10.01   1_655     S
Er51     Er52    9.963   1_654     S
Er52     Ce16    10.01   1_455     S
Er52     Ce66    10.011   1_556     S
Er52     Er53    9.961   .     S
Er52     Er51    9.963   1_456     S
Er53     Ce16    10.01   1_455     S
Er53     Ce66    10.011   1_556     S
Er53     Er50    9.963   1_456     S
Er54     Ce8    10.011   1_554     S
Er54     Er55    9.961   .     S
Er54     Er56    9.963   1_554     S
Er55     Ce8    10.011   1_554     S
Er55     Er57    9.963   1_554     S
Er55     V64    9.986   .     S
Er56     Ce7    10.011   1_556     S
Er56     Er57    9.961   .     S
Er56     Er54    9.963   1_556     S
Er57     Ce7    10.011   1_556     S
Er57     Er55    9.963   1_556     S
Er58     Er59    9.961   .     S
Er58     Er60    9.963   .     S
Er59     Er61    9.963   .     S
Er60     Er61    9.961   .     S
Er61     V65    9.986   .     S
V62     V63    9.985   .     S
V62     V65    9.987   .     S
V63     V64    9.987   .     S
V64     V65    9.985   .     S
Ce66     Er51    10.01   1_455     S
Ce66     Er50    10.01   1_455     S
Ce66     Er52    10.011   1_554     S
Ce66     Er53    10.011   1_554     S
Ti67     Ti68    10.021   .     S
Ti67     Ti69    10.021   .     S
Ti67     Ti70    10.026   .     S
Ti68     Ti69    10.021   .     S
Ti68     Ti72    10.026   .     S
Ti69     Ti71    10.026   .     S
Ti70     Ti72    10.021   .     S
Ti70     Ti71    10.021   .     S
Ti71     Ti72    10.021   .     S
