data_acsa
_audit_creation_date              2020-02-04
_audit_creation_method            'Pymatgen'
_symmetry_space_group_name_H-M    'P1'
_symmetry_Int_Tables_number       1
loop_
_symmetry_equiv_pos_as_xyz
  x,y,z
_cell_length_a                    34.5312
_cell_length_b                    34.5312
_cell_length_c                    30.884
_cell_angle_alpha                 90.0
_cell_angle_beta                 90.0
_cell_angle_gamma                 120.0
loop_
_atom_site_label
_atom_site_type_symbol
_atom_site_fract_x
_atom_site_fract_y
_atom_site_fract_z
V1     V     0.5701   0.1403   0.4119
V2     V     0.4299   0.8597   0.5881
V3     V     0.4299   0.5701   0.5881
V4     V     0.5701   0.4299   0.4119
V5     V     0.1403   0.5701   0.5881
V6     V     0.8597   0.4299   0.4119
V7     V     0.8597   0.4299   0.0881
V8     V     0.1403   0.5701   0.9119
V9     V     0.4299   0.5701   0.9119
V10     V     0.5701   0.4299   0.0881
V11     V     0.4299   0.8597   0.9119
V12     V     0.5701   0.1403   0.0881
loop_
_geom_bond_atom_site_label_1
_geom_bond_atom_site_label_2
_geom_bond_distance
_geom_bond_site_symmetry_2
_ccdc_geom_bond_type
V1     V4    10.0   .     S
V1     V6    10.0   .     S
V1     V2    10.0   1_545     S
V1     V12    10.0   .     S
V2     V1    10.0   1_565     S
V2     V3    10.0   .     S
V2     V5    10.0   .     S
V2     V11    10.0   .     S
V3     V9    10.0   .     S
V3     V4    10.0   .     S
V3     V5    10.0   .     S
V4     V6    10.0   .     S
V4     V10    10.0   .     S
V5     V6    10.0   1_455     S
V5     V8    10.0   .     S
V6     V5    10.0   1_655     S
V6     V7    10.0   .     S
V7     V8    10.0   1_654     S
V7     V10    10.0   .     S
V7     V12    10.0   .     S
V8     V7    10.0   1_456     S
V8     V11    10.0   .     S
V8     V9    10.0   .     S
V9     V10    10.0   1_556     S
V9     V11    10.0   .     S
V10     V12    10.0   .     S
V10     V9    10.0   1_554     S
V11     V12    10.0   1_566     S
V12     V11    10.0   1_544     S
