data_act
_audit_creation_date              2020-02-04
_audit_creation_method            'Pymatgen'
_symmetry_space_group_name_H-M    'P1'
_symmetry_Int_Tables_number       1
loop_
_symmetry_equiv_pos_as_xyz
  x,y,z
_cell_length_a                    44.2985
_cell_length_b                    44.2985
_cell_length_c                    44.2985
_cell_angle_alpha                 90.0
_cell_angle_beta                 90.0
_cell_angle_gamma                 90.0
loop_
_atom_site_label
_atom_site_type_symbol
_atom_site_fract_x
_atom_site_fract_y
_atom_site_fract_z
V1     V     0.0   0.0   0.0
Er2     Er     0.0798   0.3298   0.125
Er3     Er     0.9202   0.1702   0.125
Er4     Er     0.8298   0.125   0.4202
Er5     Er     0.6702   0.125   0.5798
V6     V     0.75   0.25   0.25
Er7     Er     0.8298   0.625   0.5798
Er8     Er     0.6702   0.625   0.4202
V9     V     0.0   0.5   0.5
Er10     Er     0.4202   0.8298   0.125
Er11     Er     0.5798   0.6702   0.125
Er12     Er     0.125   0.0798   0.3298
Er13     Er     0.125   0.9202   0.1702
V14     V     0.25   0.75   0.25
V15     V     0.25   0.25   0.25
Er16     Er     0.5798   0.8298   0.625
Er17     Er     0.4202   0.6702   0.625
V18     V     0.5   0.0   0.5
Er19     Er     0.3298   0.375   0.5798
Er20     Er     0.1702   0.375   0.4202
Er21     Er     0.5798   0.3298   0.375
Er22     Er     0.4202   0.1702   0.375
Er23     Er     0.625   0.5798   0.8298
Er24     Er     0.625   0.4202   0.6702
V25     V     0.5   0.5   0.5
Er26     Er     0.3298   0.125   0.0798
Er27     Er     0.1702   0.125   0.9202
Er28     Er     0.125   0.4202   0.8298
Er29     Er     0.125   0.5798   0.6702
V30     V     0.25   0.25   0.75
V31     V     0.5   0.0   0.0
Er32     Er     0.875   0.4202   0.3298
Er33     Er     0.875   0.5798   0.1702
Er34     Er     0.625   0.0798   0.1702
Er35     Er     0.625   0.9202   0.3298
Er36     Er     0.0798   0.6702   0.375
Er37     Er     0.9202   0.8298   0.375
Er38     Er     0.8298   0.875   0.0798
Er39     Er     0.6702   0.875   0.9202
V40     V     0.75   0.75   0.25
Er41     Er     0.375   0.5798   0.3298
Er42     Er     0.375   0.4202   0.1702
V43     V     0.5   0.5   0.0
V44     V     0.0   0.0   0.5
Er45     Er     0.3298   0.875   0.4202
Er46     Er     0.1702   0.875   0.5798
Er47     Er     0.4202   0.3298   0.875
Er48     Er     0.5798   0.1702   0.875
Er49     Er     0.0798   0.1702   0.625
Er50     Er     0.9202   0.3298   0.625
Er51     Er     0.6702   0.375   0.0798
Er52     Er     0.8298   0.375   0.9202
V53     V     0.75   0.25   0.75
Er54     Er     0.0798   0.8298   0.875
Er55     Er     0.9202   0.6702   0.875
Er56     Er     0.875   0.0798   0.8298
Er57     Er     0.875   0.9202   0.6702
V58     V     0.75   0.75   0.75
V59     V     0.0   0.5   0.0
Er60     Er     0.375   0.0798   0.6702
Er61     Er     0.375   0.9202   0.8298
Er62     Er     0.1702   0.625   0.0798
Er63     Er     0.3298   0.625   0.9202
V64     V     0.25   0.75   0.75
loop_
_geom_bond_atom_site_label_1
_geom_bond_atom_site_label_2
_geom_bond_distance
_geom_bond_site_symmetry_2
_ccdc_geom_bond_type
V1     Er54    10.0   1_544     S
V1     Er56    10.0   1_454     S
V1     Er38    10.0   1_445     S
V1     Er3    10.0   1_455     S
V1     Er13    10.0   1_545     S
V1     Er27    10.0   1_554     S
Er2     Er3    10.0   1_455     S
Er2     V15    10.0   .     S
Er2     V59    10.0   .     S
Er3     V1    10.0   1_655     S
Er3     Er2    10.0   1_655     S
Er3     V6    10.0   .     S
Er4     Er5    10.0   .     S
Er4     V6    10.0   .     S
Er4     V44    10.0   1_655     S
Er5     V18    10.0   .     S
Er5     V53    10.0   .     S
V6     Er32    10.0   .     S
V6     Er21    10.0   .     S
V6     Er51    10.0   .     S
V6     Er34    10.0   .     S
Er7     Er8    10.0   .     S
Er7     V9    10.0   1_655     S
Er7     V58    10.0   .     S
Er8     V25    10.0   .     S
Er8     V40    10.0   .     S
V9     Er50    10.0   1_455     S
V9     Er32    10.0   1_455     S
V9     Er20    10.0   .     S
V9     Er7    10.0   1_455     S
V9     Er29    10.0   .     S
V9     Er36    10.0   .     S
Er10     Er11    10.0   .     S
Er10     V14    10.0   .     S
Er10     V31    10.0   1_565     S
Er11     V40    10.0   .     S
Er11     V43    10.0   .     S
Er12     Er13    10.0   1_545     S
Er12     V15    10.0   .     S
Er12     V44    10.0   .     S
Er13     V1    10.0   1_565     S
Er13     Er12    10.0   1_565     S
Er13     V14    10.0   .     S
V14     Er45    10.0   .     S
V14     Er41    10.0   .     S
V14     Er36    10.0   .     S
V14     Er62    10.0   .     S
V15     Er20    10.0   .     S
V15     Er22    10.0   .     S
V15     Er42    10.0   .     S
V15     Er26    10.0   .     S
Er16     Er17    10.0   .     S
Er16     V18    10.0   1_565     S
Er16     V58    10.0   .     S
Er17     V25    10.0   .     S
Er17     V64    10.0   .     S
V18     Er16    10.0   1_545     S
V18     Er22    10.0   .     S
V18     Er35    10.0   1_545     S
V18     Er60    10.0   .     S
V18     Er45    10.0   1_545     S
Er19     Er20    10.0   .     S
Er19     V25    10.0   .     S
Er19     V30    10.0   .     S
Er21     Er22    10.0   .     S
Er21     V25    10.0   .     S
Er23     Er24    10.0   .     S
Er23     V43    10.0   1_556     S
Er23     V58    10.0   .     S
Er24     V25    10.0   .     S
Er24     V53    10.0   .     S
V25     Er41    10.0   .     S
Er26     Er27    10.0   1_554     S
Er26     V31    10.0   .     S
Er27     V1    10.0   1_556     S
Er27     Er26    10.0   1_556     S
Er27     V30    10.0   .     S
Er28     Er29    10.0   .     S
Er28     V30    10.0   .     S
Er28     V59    10.0   1_556     S
Er29     V64    10.0   .     S
V30     Er47    10.0   .     S
V30     Er60    10.0   .     S
V30     Er49    10.0   .     S
V31     Er10    10.0   1_545     S
V31     Er48    10.0   1_554     S
V31     Er61    10.0   1_544     S
V31     Er39    10.0   1_544     S
V31     Er34    10.0   .     S
Er32     V9    10.0   1_655     S
Er32     Er33    10.0   .     S
Er33     V40    10.0   .     S
Er33     V59    10.0   1_655     S
Er34     Er35    10.0   1_545     S
Er35     V18    10.0   1_565     S
Er35     Er34    10.0   1_565     S
Er35     V40    10.0   .     S
Er36     Er37    10.0   1_455     S
Er37     Er36    10.0   1_655     S
Er37     V40    10.0   .     S
Er37     V44    10.0   1_665     S
Er38     V1    10.0   1_665     S
Er38     Er39    10.0   1_554     S
Er38     V40    10.0   .     S
Er39     V31    10.0   1_566     S
Er39     Er38    10.0   1_556     S
Er39     V58    10.0   .     S
Er41     Er42    10.0   .     S
Er42     V43    10.0   .     S
V43     Er47    10.0   1_554     S
V43     Er51    10.0   .     S
V43     Er63    10.0   1_554     S
V43     Er23    10.0   1_554     S
V44     Er37    10.0   1_445     S
V44     Er57    10.0   1_445     S
V44     Er46    10.0   1_545     S
V44     Er49    10.0   .     S
V44     Er4    10.0   1_455     S
Er45     V18    10.0   1_565     S
Er45     Er46    10.0   .     S
Er46     V44    10.0   1_565     S
Er46     V64    10.0   .     S
Er47     V43    10.0   1_556     S
Er47     Er48    10.0   .     S
Er48     V31    10.0   1_556     S
Er48     V53    10.0   .     S
Er49     Er50    10.0   1_455     S
Er50     V9    10.0   1_655     S
Er50     Er49    10.0   1_655     S
Er50     V53    10.0   .     S
Er51     Er52    10.0   1_554     S
Er52     Er51    10.0   1_556     S
Er52     V53    10.0   .     S
Er52     V59    10.0   1_656     S
V53     Er56    10.0   .     S
Er54     V1    10.0   1_566     S
Er54     Er55    10.0   1_455     S
Er54     V64    10.0   .     S
Er55     Er54    10.0   1_655     S
Er55     V58    10.0   .     S
Er55     V59    10.0   1_656     S
Er56     V1    10.0   1_656     S
Er56     Er57    10.0   1_545     S
Er57     V44    10.0   1_665     S
Er57     Er56    10.0   1_565     S
Er57     V58    10.0   .     S
V59     Er55    10.0   1_454     S
V59     Er28    10.0   1_554     S
V59     Er33    10.0   1_455     S
V59     Er52    10.0   1_454     S
V59     Er62    10.0   .     S
Er60     Er61    10.0   1_545     S
Er61     V31    10.0   1_566     S
Er61     Er60    10.0   1_565     S
Er61     V64    10.0   .     S
Er62     Er63    10.0   1_554     S
Er63     V43    10.0   1_556     S
Er63     Er62    10.0   1_556     S
Er63     V64    10.0   .     S
