data_acta
_audit_creation_date              2020-02-04
_audit_creation_method            'Pymatgen'
_symmetry_space_group_name_H-M    'P1'
_symmetry_Int_Tables_number       1
loop_
_symmetry_equiv_pos_as_xyz
  x,y,z
_cell_length_a                    99.6396
_cell_length_b                    99.6396
_cell_length_c                    99.6396
_cell_angle_alpha                 90.0
_cell_angle_beta                 90.0
_cell_angle_gamma                 90.0
loop_
_atom_site_label
_atom_site_type_symbol
_atom_site_fract_x
_atom_site_fract_y
_atom_site_fract_z
V1     V     0.7085   0.6974   0.7732
V2     V     0.7268   0.7915   0.8026
V3     V     0.6974   0.7732   0.7085
V4     V     0.7915   0.8026   0.7268
V5     V     0.7732   0.7085   0.6974
V6     V     0.8026   0.7268   0.7915
V7     V     0.7732   0.7915   0.1974
V8     V     0.7915   0.6974   0.2268
V9     V     0.6974   0.7268   0.2085
V10     V     0.8026   0.7732   0.2915
V11     V     0.7085   0.8026   0.2732
V12     V     0.7268   0.7085   0.3026
V13     V     0.2085   0.6974   0.7268
V14     V     0.1974   0.7732   0.7915
V15     V     0.2268   0.7915   0.6974
V16     V     0.2915   0.8026   0.7732
V17     V     0.2732   0.7085   0.8026
V18     V     0.3026   0.7268   0.7085
V19     V     0.7915   0.1974   0.7732
V20     V     0.6974   0.2268   0.7915
V21     V     0.7268   0.2085   0.6974
V22     V     0.7732   0.2915   0.8026
V23     V     0.8026   0.2732   0.7085
V24     V     0.7085   0.3026   0.7268
V25     V     0.0232   0.9474   0.9585
V26     V     0.0415   0.9768   0.0526
V27     V     0.9768   0.0526   0.0415
V28     V     0.9474   0.9585   0.0232
V29     V     0.0526   0.0415   0.9768
V30     V     0.9585   0.0232   0.9474
V31     V     0.1974   0.7268   0.2915
V32     V     0.2915   0.6974   0.2732
V33     V     0.2268   0.7085   0.1974
V34     V     0.3026   0.7732   0.2085
V35     V     0.2085   0.8026   0.2268
V36     V     0.2732   0.7915   0.3026
Er37     Er     0.1533   0.6262   0.6823
Er38     Er     0.0967   0.5677   0.6238
Ti39     Ti     0.125   0.4645   0.7855
Ti40     Ti     0.125   0.5355   0.7145
Er41     Er     0.1533   0.3738   0.8177
Er42     Er     0.0967   0.4323   0.8762
Er43     Er     0.6823   0.1533   0.6262
Er44     Er     0.6238   0.0967   0.5677
Ti45     Ti     0.7855   0.125   0.4645
Ti46     Ti     0.7145   0.125   0.5355
Er47     Er     0.8177   0.1533   0.3738
Er48     Er     0.8762   0.0967   0.4323
Er49     Er     0.8738   0.3177   0.6534
Er50     Er     0.9323   0.3762   0.5966
Ti51     Ti     0.0355   0.2145   0.625
Ti52     Ti     0.9645   0.2855   0.625
Er53     Er     0.0677   0.1238   0.5966
Er54     Er     0.1262   0.1823   0.6534
V55     V     0.0415   0.5232   0.5526
V56     V     0.9585   0.4768   0.4474
V57     V     0.0232   0.5526   0.4585
V58     V     0.9768   0.4474   0.5415
V59     V     0.9474   0.5415   0.5232
V60     V     0.0526   0.4585   0.4768
Er61     Er     0.1262   0.6823   0.3466
Er62     Er     0.0677   0.6238   0.4034
Er63     Er     0.8738   0.8177   0.3466
Er64     Er     0.9323   0.8762   0.4034
Ti65     Ti     0.9645   0.7855   0.375
Ti66     Ti     0.0355   0.7145   0.375
Er67     Er     0.3177   0.6534   0.8738
Er68     Er     0.3762   0.5966   0.9323
Ti69     Ti     0.2145   0.625   0.0355
Ti70     Ti     0.2855   0.625   0.9645
Er71     Er     0.1238   0.5966   0.0677
Er72     Er     0.1823   0.6534   0.1262
Er73     Er     0.1262   0.8177   0.8466
Er74     Er     0.0677   0.8762   0.9034
Ti75     Ti     0.0355   0.7855   0.875
Ti76     Ti     0.9645   0.7145   0.875
Er77     Er     0.8738   0.6823   0.8466
Er78     Er     0.9323   0.6238   0.9034
Er79     Er     0.9034   0.4323   0.3762
Er80     Er     0.8466   0.3738   0.3177
Er81     Er     0.8466   0.6262   0.1823
Er82     Er     0.9034   0.5677   0.1238
Ti83     Ti     0.875   0.5355   0.2145
Ti84     Ti     0.875   0.4645   0.2855
V85     V     0.6974   0.2732   0.2915
V86     V     0.7732   0.2085   0.3026
V87     V     0.7915   0.3026   0.2732
V88     V     0.7268   0.2915   0.1974
V89     V     0.8026   0.2268   0.2085
V90     V     0.7085   0.1974   0.2268
Er91     Er     0.8738   0.1823   0.1534
Er92     Er     0.9323   0.1238   0.0966
Er93     Er     0.1262   0.3177   0.1533
Er94     Er     0.0677   0.3762   0.0966
Ti95     Ti     0.0355   0.2855   0.125
Ti96     Ti     0.9645   0.2145   0.125
V97     V     0.9768   0.5526   0.9585
V98     V     0.9474   0.4585   0.9768
V99     V     0.0232   0.4474   0.0415
V100     V     0.9585   0.5232   0.0526
V101     V     0.0415   0.4768   0.9474
V102     V     0.0526   0.5415   0.0232
Er103     Er     0.6262   0.6823   0.1533
Er104     Er     0.5677   0.6238   0.0966
Ti105     Ti     0.4645   0.7855   0.125
Ti106     Ti     0.5355   0.7145   0.125
Er107     Er     0.3738   0.8177   0.1533
Er108     Er     0.4323   0.8762   0.0967
V109     V     0.5526   0.4585   0.0232
V110     V     0.4585   0.4768   0.0526
V111     V     0.4768   0.4474   0.9585
V112     V     0.5415   0.5232   0.9474
V113     V     0.4474   0.5415   0.9768
V114     V     0.5232   0.5526   0.0415
Er115     Er     0.6823   0.3466   0.1262
Er116     Er     0.6238   0.4034   0.0677
Er117     Er     0.8177   0.3466   0.8738
Er118     Er     0.8762   0.4034   0.9323
Ti119     Ti     0.7855   0.375   0.9645
Ti120     Ti     0.7145   0.375   0.0355
Er121     Er     0.8466   0.1262   0.8177
Er122     Er     0.9034   0.0677   0.8762
Ti123     Ti     0.875   0.0355   0.7855
Ti124     Ti     0.875   0.9645   0.7145
Er125     Er     0.8466   0.8738   0.6823
Er126     Er     0.9034   0.9323   0.6238
V127     V     0.9585   0.9768   0.5526
V128     V     0.0415   0.0232   0.4474
V129     V     0.0526   0.9585   0.5232
V130     V     0.9474   0.0415   0.4768
V131     V     0.9768   0.9474   0.4585
V132     V     0.0232   0.0526   0.5415
Er133     Er     0.1533   0.8738   0.1823
Er134     Er     0.0966   0.9323   0.1238
Er135     Er     0.1533   0.1262   0.3177
Er136     Er     0.0966   0.0677   0.3762
Ti137     Ti     0.125   0.0355   0.2855
Ti138     Ti     0.125   0.9645   0.2145
Er139     Er     0.6534   0.8738   0.3177
Er140     Er     0.5966   0.9323   0.3762
Ti141     Ti     0.625   0.0355   0.2145
Ti142     Ti     0.625   0.9645   0.2855
Er143     Er     0.5966   0.0677   0.1238
Er144     Er     0.6534   0.1262   0.1823
Er145     Er     0.3762   0.9034   0.4323
Er146     Er     0.3177   0.8466   0.3738
Er147     Er     0.1823   0.8466   0.6262
Er148     Er     0.1238   0.9034   0.5677
Ti149     Ti     0.2145   0.875   0.5355
Ti150     Ti     0.2855   0.875   0.4645
Er151     Er     0.6262   0.1823   0.8466
Er152     Er     0.5677   0.1238   0.9034
Er153     Er     0.3738   0.3177   0.8466
Er154     Er     0.4323   0.3762   0.9034
Ti155     Ti     0.5355   0.2145   0.875
Ti156     Ti     0.4645   0.2855   0.875
V157     V     0.2085   0.3026   0.7732
V158     V     0.2732   0.2915   0.6974
V159     V     0.3026   0.2732   0.7915
V160     V     0.2915   0.1974   0.7268
V161     V     0.2268   0.2085   0.8026
V162     V     0.1974   0.2268   0.7085
Er163     Er     0.3177   0.1533   0.1262
Er164     Er     0.3762   0.0966   0.0677
Er165     Er     0.1823   0.1534   0.8738
Er166     Er     0.1238   0.0966   0.9323
Ti167     Ti     0.2855   0.125   0.0355
Ti168     Ti     0.2145   0.125   0.9645
V169     V     0.4474   0.9585   0.4768
V170     V     0.5232   0.9474   0.5415
V171     V     0.5415   0.9768   0.4474
V172     V     0.4585   0.0232   0.5526
V173     V     0.4768   0.0526   0.4585
V174     V     0.5526   0.0415   0.5232
Er175     Er     0.3466   0.1262   0.6823
Er176     Er     0.4034   0.0677   0.6238
Er177     Er     0.3466   0.8738   0.8177
Er178     Er     0.4034   0.9323   0.8762
Ti179     Ti     0.375   0.9645   0.7855
Ti180     Ti     0.375   0.0355   0.7145
V181     V     0.4585   0.9768   0.9474
V182     V     0.4768   0.9474   0.0415
V183     V     0.4474   0.0415   0.0232
V184     V     0.5232   0.0526   0.9585
V185     V     0.5526   0.9585   0.9768
V186     V     0.5415   0.0232   0.0526
Er187     Er     0.8177   0.8466   0.1262
Er188     Er     0.8762   0.9034   0.0677
Ti189     Ti     0.7855   0.875   0.0355
Ti190     Ti     0.7145   0.875   0.9645
Er191     Er     0.6823   0.8466   0.8738
Er192     Er     0.6238   0.9034   0.9323
Ti193     Ti     0.625   0.5355   0.7855
Ti194     Ti     0.625   0.4645   0.7145
Er195     Er     0.6534   0.3738   0.6823
Er196     Er     0.5966   0.4323   0.6238
Er197     Er     0.6534   0.6262   0.8177
Er198     Er     0.5966   0.5677   0.8762
Er199     Er     0.8177   0.6534   0.6262
Er200     Er     0.8762   0.5966   0.5677
Ti201     Ti     0.7855   0.625   0.5355
Ti202     Ti     0.7145   0.625   0.4645
Er203     Er     0.6823   0.6534   0.3738
Er204     Er     0.6238   0.5966   0.4323
Ti205     Ti     0.5355   0.7855   0.625
Ti206     Ti     0.4645   0.7145   0.625
Er207     Er     0.3738   0.6823   0.6534
Er208     Er     0.4323   0.6238   0.5966
Er209     Er     0.6262   0.8177   0.6534
Er210     Er     0.5677   0.8762   0.5966
V211     V     0.2732   0.2085   0.1974
V212     V     0.2085   0.1974   0.2732
V213     V     0.1974   0.2732   0.2085
V214     V     0.2268   0.2915   0.3026
V215     V     0.3026   0.2268   0.2915
V216     V     0.2915   0.3026   0.2268
Er217     Er     0.4034   0.5677   0.3762
Er218     Er     0.3466   0.6262   0.3177
Er219     Er     0.4034   0.4323   0.1238
Er220     Er     0.3466   0.3738   0.1823
Ti221     Ti     0.375   0.4645   0.2145
Ti222     Ti     0.375   0.5355   0.2855
Er223     Er     0.3762   0.4034   0.5677
Er224     Er     0.3177   0.3466   0.6262
Er225     Er     0.1238   0.4034   0.4323
Er226     Er     0.1823   0.3466   0.3738
Ti227     Ti     0.2855   0.375   0.5355
Ti228     Ti     0.2145   0.375   0.4645
V229     V     0.5415   0.4768   0.5526
V230     V     0.4474   0.4585   0.5232
V231     V     0.5526   0.5415   0.4768
V232     V     0.5232   0.4474   0.4585
V233     V     0.4768   0.5526   0.5415
V234     V     0.4585   0.5232   0.4474
Er235     Er     0.5677   0.3762   0.4034
Er236     Er     0.6262   0.3177   0.3466
Er237     Er     0.4323   0.1238   0.4034
Er238     Er     0.3738   0.1823   0.3466
Ti239     Ti     0.4645   0.2145   0.375
Ti240     Ti     0.5355   0.2855   0.375
loop_
_geom_bond_atom_site_label_1
_geom_bond_atom_site_label_2
_geom_bond_distance
_geom_bond_site_symmetry_2
_ccdc_geom_bond_type
V1     V3    10.0   .     S
V1     V2    9.999   .     S
V1     V5    10.0   .     S
V1     V6    9.999   .     S
V1     Er197    10.001   .     S
V2     V3    9.999   .     S
V2     V4    10.0   .     S
V2     V6    10.0   .     S
V2     Er191    10.001   .     S
V3     V5    10.0   .     S
V3     V4    9.999   .     S
V3     Er209    10.001   .     S
V4     V5    9.999   .     S
V4     V6    10.0   .     S
V4     Er125    10.001   .     S
V5     V6    9.999   .     S
V5     Er199    10.001   .     S
V6     Er77    10.001   .     S
V7     V10    9.999   .     S
V7     V11    10.0   .     S
V7     V8    9.999   .     S
V7     V9    10.0   .     S
V7     Er187    10.001   .     S
V8     V10    10.0   .     S
V8     V12    10.0   .     S
V8     V9    9.999   .     S
V8     Er81    10.001   .     S
V9     V12    9.999   .     S
V9     V11    10.0   .     S
V9     Er103    10.001   .     S
V10     V12    10.0   .     S
V10     V11    9.999   .     S
V10     Er63    10.001   .     S
V11     V12    9.999   .     S
V11     Er139    10.001   .     S
V12     Er203    10.001   .     S
V13     V15    9.999   .     S
V13     V14    10.0   .     S
V13     V18    9.999   .     S
V13     V17    10.0   .     S
V13     Er37    10.001   .     S
V14     V17    10.0   .     S
V14     V16    9.999   .     S
V14     V15    9.999   .     S
V14     Er73    10.001   .     S
V15     V16    10.0   .     S
V15     V18    10.0   .     S
V15     Er147    10.001   .     S
V16     V18    10.0   .     S
V16     V17    9.999   .     S
V16     Er177    10.001   .     S
V17     V18    9.999   .     S
V17     Er67    10.001   .     S
V18     Er207    10.001   .     S
V19     V22    9.999   .     S
V19     V23    10.0   .     S
V19     V20    9.999   .     S
V19     V21    10.0   .     S
V19     Er121    10.001   .     S
V20     V22    10.0   .     S
V20     V24    10.0   .     S
V20     V21    9.999   .     S
V20     Er151    10.001   .     S
V21     V24    9.999   .     S
V21     V23    10.0   .     S
V21     Er43    10.001   .     S
V22     V24    10.0   .     S
V22     V23    9.999   .     S
V22     Er117    10.001   .     S
V23     V24    9.999   .     S
V23     Er49    10.001   .     S
V24     Er195    10.001   .     S
V25     V30    10.0   1_465     S
V25     V29    9.999   1_565     S
V25     V28    10.0   1_456     S
V25     V26    9.999   1_556     S
V25     Er74    10.001   .     S
V26     V27    10.0   1_465     S
V26     V25    9.999   1_554     S
V26     V29    10.0   1_564     S
V26     V28    9.999   1_455     S
V26     Er134    10.001   .     S
V27     V29    10.0   1_654     S
V27     V28    9.999   1_545     S
V27     V26    10.0   1_645     S
V27     V30    9.999   1_554     S
V27     Er92    10.001   .     S
V28     V30    10.0   1_564     S
V28     V27    9.999   1_565     S
V28     V25    10.0   1_654     S
V28     V26    9.999   1_655     S
V28     Er188    10.001   .     S
V29     V30    9.999   1_455     S
V29     V27    10.0   1_456     S
V29     V25    9.999   1_545     S
V29     V26    10.0   1_546     S
V29     Er166    10.001   .     S
V30     V25    10.0   1_645     S
V30     V29    9.999   1_655     S
V30     V28    10.0   1_546     S
V30     V27    9.999   1_556     S
V30     Er122    10.001   .     S
V31     V36    10.0   .     S
V31     V32    9.999   .     S
V31     V33    9.999   .     S
V31     V35    10.0   .     S
V31     Er61    10.001   .     S
V32     V34    10.0   .     S
V32     V36    9.999   .     S
V32     V33    10.0   .     S
V32     Er218    10.001   .     S
V33     V34    10.0   .     S
V33     V35    9.999   .     S
V33     Er72    10.001   .     S
V34     V36    9.999   .     S
V34     V35    9.999   .     S
V34     Er107    10.001   .     S
V35     V36    10.0   .     S
V35     Er133    10.001   .     S
V36     Er146    10.001   .     S
Er37     Er38    9.999   .     S
Er37     Ti40    10.001   .     S
Er38     Ti40    10.001   .     S
Er38     V55    10.001   .     S
Ti39     Ti40    9.999   .     S
Ti39     Er41    10.001   .     S
Ti39     Er42    10.001   .     S
Er41     Er42    9.999   .     S
Er41     V157    10.001   .     S
Er42     V101    10.001   .     S
Er43     Er44    9.999   .     S
Er43     Ti46    10.001   .     S
Er44     Ti46    10.001   .     S
Er44     V174    10.001   .     S
Ti45     Ti46    9.999   .     S
Ti45     Er47    10.001   .     S
Ti45     Er48    10.001   .     S
Er47     Er48    9.999   .     S
Er47     V86    10.001   .     S
Er48     V130    10.001   .     S
Er49     Er50    9.999   .     S
Er49     Ti52    10.001   .     S
Er50     Ti52    10.001   .     S
Er50     V58    10.001   .     S
Ti51     Ti52    9.999   1_455     S
Ti51     Er54    10.001   .     S
Ti51     Er53    10.001   .     S
Ti52     Ti51    9.999   1_655     S
Er53     Er54    9.999   .     S
Er53     V132    10.001   .     S
Er54     V162    10.001   .     S
V55     V59    9.999   1_455     S
V55     V57    9.999   .     S
V55     V60    10.0   .     S
V55     V58    10.0   1_455     S
V56     V58    9.999   .     S
V56     V59    10.0   .     S
V56     V60    9.999   1_655     S
V56     V57    10.0   1_655     S
V56     Er79    10.001   .     S
V57     V59    10.0   1_455     S
V57     V60    9.999   .     S
V57     V56    10.0   1_455     S
V57     Er62    10.001   .     S
V58     V60    10.0   1_655     S
V58     V59    9.999   .     S
V58     V55    10.0   1_655     S
V59     V55    9.999   1_655     S
V59     V57    10.0   1_655     S
V59     Er200    10.001   .     S
V60     V56    9.999   1_455     S
V60     V58    10.0   1_455     S
V60     Er225    10.001   .     S
Er61     Er62    9.999   .     S
Er61     Ti66    10.001   .     S
Er62     Ti66    10.001   .     S
Er63     Er64    9.999   .     S
Er63     Ti65    10.001   .     S
Er64     Ti65    10.001   .     S
Er64     V131    10.001   .     S
Ti65     Ti66    9.999   1_655     S
Ti66     Ti65    9.999   1_455     S
Er67     Er68    9.999   .     S
Er67     Ti70    10.001   .     S
Er68     Ti70    10.001   .     S
Er68     V113    10.001   .     S
Ti69     Ti70    9.999   1_554     S
Ti69     Er71    10.001   .     S
Ti69     Er72    10.001   .     S
Ti70     Ti69    9.999   1_556     S
Er71     Er72    9.999   .     S
Er71     V102    10.001   .     S
Er73     Er74    9.999   .     S
Er73     Ti75    10.001   .     S
Er74     Ti75    10.001   .     S
Ti75     Ti76    9.999   1_455     S
Ti76     Ti75    9.999   1_655     S
Ti76     Er77    10.001   .     S
Ti76     Er78    10.001   .     S
Er77     Er78    9.999   .     S
Er78     V97    10.001   .     S
Er79     Er80    9.999   .     S
Er79     Ti84    10.001   .     S
Er80     Ti84    10.001   .     S
Er80     V87    10.001   .     S
Er81     Er82    9.999   .     S
Er81     Ti83    10.001   .     S
Er82     Ti83    10.001   .     S
Er82     V100    10.001   .     S
Ti83     Ti84    9.999   .     S
V85     V86    10.0   .     S
V85     V87    9.999   .     S
V85     V88    9.999   .     S
V85     V90    10.0   .     S
V85     Er236    10.001   .     S
V86     V87    9.999   .     S
V86     V90    10.0   .     S
V86     V89    9.999   .     S
V87     V88    10.0   .     S
V87     V89    10.0   .     S
V88     V90    9.999   .     S
V88     V89    10.0   .     S
V88     Er115    10.001   .     S
V89     V90    9.999   .     S
V89     Er91    10.001   .     S
V90     Er144    10.001   .     S
Er91     Er92    9.999   .     S
Er91     Ti96    10.001   .     S
Er92     Ti96    10.001   .     S
Er93     Er94    9.999   .     S
Er93     Ti95    10.001   .     S
Er93     V213    10.001   .     S
Er94     Ti95    10.001   .     S
Er94     V99    10.001   .     S
Ti95     Ti96    9.999   1_455     S
Ti96     Ti95    9.999   1_655     S
V97     V102    10.0   1_656     S
V97     V100    9.999   1_556     S
V97     V98    9.999   .     S
V97     V101    10.0   1_655     S
V98     V100    10.0   1_556     S
V98     V101    9.999   1_655     S
V98     V99    10.0   1_656     S
V98     Er118    10.001   .     S
V99     V102    9.999   .     S
V99     V100    10.0   1_455     S
V99     V101    9.999   1_554     S
V99     V98    10.0   1_454     S
V100     V97    9.999   1_554     S
V100     V98    10.0   1_554     S
V100     V99    10.0   1_655     S
V100     V102    9.999   1_655     S
V101     V97    10.0   1_455     S
V101     V98    9.999   1_455     S
V101     V99    9.999   1_556     S
V101     V102    10.0   1_556     S
V102     V97    10.0   1_454     S
V102     V100    9.999   1_455     S
V102     V101    10.0   1_554     S
Er103     Er104    9.999   .     S
Er103     Ti106    10.001   .     S
Er104     Ti106    10.001   .     S
Er104     V114    10.001   .     S
Ti105     Ti106    9.999   .     S
Ti105     Er107    10.001   .     S
Ti105     Er108    10.001   .     S
Er107     Er108    9.999   .     S
Er108     V182    10.001   .     S
V109     V114    9.999   .     S
V109     V110    9.999   .     S
V109     V111    10.0   1_554     S
V109     V112    10.0   1_554     S
V109     Er116    10.001   .     S
V110     V114    10.0   .     S
V110     V111    9.999   1_554     S
V110     V113    10.0   1_554     S
V110     Er219    10.001   .     S
V111     V112    10.0   .     S
V111     V113    9.999   .     S
V111     V110    9.999   1_556     S
V111     V109    10.0   1_556     S
V111     Er154    10.001   .     S
V112     V113    9.999   .     S
V112     V114    9.999   1_556     S
V112     V109    10.0   1_556     S
V112     Er198    10.001   .     S
V113     V114    10.0   1_556     S
V113     V110    10.0   1_556     S
V114     V112    9.999   1_554     S
V114     V113    10.0   1_554     S
Er115     Er116    9.999   .     S
Er115     Ti120    10.001   .     S
Er116     Ti120    10.001   .     S
Er117     Er118    9.999   .     S
Er117     Ti119    10.001   .     S
Er118     Ti119    10.001   .     S
Ti119     Ti120    9.999   1_556     S
Ti120     Ti119    9.999   1_554     S
Er121     Er122    9.999   .     S
Er121     Ti123    10.001   .     S
Er122     Ti123    10.001   .     S
Ti123     Ti124    9.999   1_545     S
Ti124     Ti123    9.999   1_565     S
Ti124     Er125    10.001   .     S
Ti124     Er126    10.001   .     S
Er125     Er126    9.999   .     S
Er126     V127    10.001   .     S
V127     V131    9.999   .     S
V127     V132    10.0   1_665     S
V127     V129    9.999   1_655     S
V127     V130    10.0   1_565     S
V128     V132    9.999   .     S
V128     V129    10.0   1_545     S
V128     V130    9.999   1_455     S
V128     V131    10.0   1_445     S
V128     Er136    10.001   .     S
V129     V127    9.999   1_455     S
V129     V128    10.0   1_565     S
V129     V132    9.999   1_565     S
V129     V131    10.0   1_455     S
V129     Er148    10.001   .     S
V130     V127    10.0   1_545     S
V130     V131    9.999   1_545     S
V130     V128    9.999   1_655     S
V130     V132    10.0   1_655     S
V131     V130    9.999   1_565     S
V131     V129    10.0   1_655     S
V131     V128    10.0   1_665     S
V132     V127    10.0   1_445     S
V132     V129    9.999   1_545     S
V132     V130    10.0   1_455     S
Er133     Er134    9.999   .     S
Er133     Ti138    10.001   .     S
Er134     Ti138    10.001   .     S
Er135     Er136    9.999   .     S
Er135     Ti137    10.001   .     S
Er135     V212    10.001   .     S
Er136     Ti137    10.001   .     S
Ti137     Ti138    9.999   1_545     S
Ti138     Ti137    9.999   1_565     S
Er139     Er140    9.999   .     S
Er139     Ti142    10.001   .     S
Er140     Ti142    10.001   .     S
Er140     V171    10.001   .     S
Ti141     Ti142    9.999   1_545     S
Ti141     Er143    10.001   .     S
Ti141     Er144    10.001   .     S
Ti142     Ti141    9.999   1_565     S
Er143     Er144    9.999   .     S
Er143     V186    10.001   .     S
Er145     Er146    9.999   .     S
Er145     Ti150    10.001   .     S
Er145     V169    10.001   .     S
Er146     Ti150    10.001   .     S
Er147     Er148    9.999   .     S
Er147     Ti149    10.001   .     S
Er148     Ti149    10.001   .     S
Ti149     Ti150    9.999   .     S
Er151     Er152    9.999   .     S
Er151     Ti155    10.001   .     S
Er152     Ti155    10.001   .     S
Er152     V184    10.001   .     S
Er153     Er154    9.999   .     S
Er153     Ti156    10.001   .     S
Er153     V159    10.001   .     S
Er154     Ti156    10.001   .     S
Ti155     Ti156    9.999   .     S
V157     V159    9.999   .     S
V157     V158    10.0   .     S
V157     V161    9.999   .     S
V157     V162    10.0   .     S
V158     V159    9.999   .     S
V158     V160    9.999   .     S
V158     V162    10.0   .     S
V158     Er224    10.001   .     S
V159     V160    10.0   .     S
V159     V161    10.0   .     S
V160     V161    10.0   .     S
V160     V162    9.999   .     S
V160     Er175    10.001   .     S
V161     V162    9.999   .     S
V161     Er165    10.001   .     S
Er163     Er164    9.999   .     S
Er163     Ti167    10.001   .     S
Er163     V211    10.001   .     S
Er164     Ti167    10.001   .     S
Er164     V183    10.001   .     S
Er165     Er166    9.999   .     S
Er165     Ti168    10.001   .     S
Er166     Ti168    10.001   .     S
Ti167     Ti168    9.999   1_554     S
Ti168     Ti167    9.999   1_556     S
V169     V170    10.0   .     S
V169     V171    9.999   .     S
V169     V173    9.999   1_565     S
V169     V172    10.0   1_565     S
V170     V171    9.999   .     S
V170     V174    9.999   1_565     S
V170     V172    10.0   1_565     S
V170     Er210    10.001   .     S
V171     V173    10.0   1_565     S
V171     V174    10.0   1_565     S
V172     V174    9.999   .     S
V172     V173    9.999   .     S
V172     V169    10.0   1_545     S
V172     V170    10.0   1_545     S
V172     Er176    10.001   .     S
V173     V169    9.999   1_545     S
V173     V174    10.0   .     S
V173     V171    10.0   1_545     S
V173     Er237    10.001   .     S
V174     V171    10.0   1_545     S
V174     V170    9.999   1_545     S
Er175     Er176    9.999   .     S
Er175     Ti180    10.001   .     S
Er176     Ti180    10.001   .     S
Er177     Er178    9.999   .     S
Er177     Ti179    10.001   .     S
Er178     Ti179    10.001   .     S
Er178     V181    10.001   .     S
Ti179     Ti180    9.999   1_565     S
Ti180     Ti179    9.999   1_545     S
V181     V185    9.999   .     S
V181     V184    10.0   1_565     S
V181     V182    9.999   1_556     S
V181     V183    10.0   1_566     S
V182     V185    10.0   1_554     S
V182     V181    9.999   1_554     S
V182     V183    9.999   1_565     S
V182     V186    10.0   1_565     S
V183     V182    9.999   1_545     S
V183     V181    10.0   1_544     S
V183     V186    9.999   .     S
V183     V184    10.0   1_554     S
V184     V181    10.0   1_545     S
V184     V183    10.0   1_556     S
V184     V186    9.999   1_556     S
V184     V185    9.999   1_545     S
V185     V182    10.0   1_556     S
V185     V184    9.999   1_565     S
V185     V186    10.0   1_566     S
V185     Er192    10.001   .     S
V186     V184    9.999   1_554     S
V186     V182    10.0   1_545     S
V186     V185    10.0   1_544     S
Er187     Er188    9.999   .     S
Er187     Ti189    10.001   .     S
Er188     Ti189    10.001   .     S
Ti189     Ti190    9.999   1_554     S
Ti190     Ti189    9.999   1_556     S
Ti190     Er191    10.001   .     S
Ti190     Er192    10.001   .     S
Er191     Er192    9.999   .     S
Ti193     Ti194    9.999   .     S
Ti193     Er197    10.001   .     S
Ti193     Er198    10.001   .     S
Ti194     Er195    10.001   .     S
Ti194     Er196    10.001   .     S
Er195     Er196    9.999   .     S
Er196     V229    10.001   .     S
Er197     Er198    9.999   .     S
Er199     Er200    9.999   .     S
Er199     Ti201    10.001   .     S
Er200     Ti201    10.001   .     S
Ti201     Ti202    9.999   .     S
Ti202     Er203    10.001   .     S
Ti202     Er204    10.001   .     S
Er203     Er204    9.999   .     S
Er204     V231    10.001   .     S
Ti205     Ti206    9.999   .     S
Ti205     Er209    10.001   .     S
Ti205     Er210    10.001   .     S
Ti206     Er207    10.001   .     S
Ti206     Er208    10.001   .     S
Er207     Er208    9.999   .     S
Er208     V233    10.001   .     S
Er209     Er210    9.999   .     S
V211     V212    10.0   .     S
V211     V215    9.999   .     S
V211     V216    9.999   .     S
V211     V213    10.0   .     S
V212     V213    10.0   .     S
V212     V214    9.999   .     S
V212     V215    9.999   .     S
V213     V216    9.999   .     S
V213     V214    9.999   .     S
V214     V215    10.0   .     S
V214     V216    10.0   .     S
V214     Er226    10.001   .     S
V215     V216    10.0   .     S
V215     Er238    10.001   .     S
V216     Er220    10.001   .     S
Er217     Er218    9.999   .     S
Er217     Ti222    10.001   .     S
Er217     V234    10.001   .     S
Er218     Ti222    10.001   .     S
Er219     Er220    9.999   .     S
Er219     Ti221    10.001   .     S
Er220     Ti221    10.001   .     S
Ti221     Ti222    9.999   .     S
Er223     Er224    9.999   .     S
Er223     Ti227    10.001   .     S
Er223     V230    10.001   .     S
Er224     Ti227    10.001   .     S
Er225     Er226    9.999   .     S
Er225     Ti228    10.001   .     S
Er226     Ti228    10.001   .     S
Ti227     Ti228    9.999   .     S
V229     V232    9.999   .     S
V229     V230    9.999   .     S
V229     V231    10.0   .     S
V229     V233    10.0   .     S
V230     V232    10.0   .     S
V230     V233    9.999   .     S
V230     V234    10.0   .     S
V231     V234    9.999   .     S
V231     V232    9.999   .     S
V231     V233    10.0   .     S
V232     V234    10.0   .     S
V232     Er235    10.001   .     S
V233     V234    9.999   .     S
Er235     Er236    9.999   .     S
Er235     Ti240    10.001   .     S
Er236     Ti240    10.001   .     S
Er237     Er238    9.999   .     S
Er237     Ti239    10.001   .     S
Er238     Ti239    10.001   .     S
Ti239     Ti240    9.999   .     S
