data_agwa
_audit_creation_date              2020-02-04
_audit_creation_method            'Pymatgen'
_symmetry_space_group_name_H-M    'P1'
_symmetry_Int_Tables_number       1
loop_
_symmetry_equiv_pos_as_xyz
  x,y,z
_cell_length_a                    65.4982
_cell_length_b                    65.4982
_cell_length_c                    106.5212
_cell_angle_alpha                 90.0
_cell_angle_beta                 90.0
_cell_angle_gamma                 120.0
loop_
_atom_site_label
_atom_site_type_symbol
_atom_site_fract_x
_atom_site_fract_y
_atom_site_fract_z
V1     V     0.9491   0.0509   0.2031
V2     V     0.1018   0.0509   0.2031
V3     V     0.9491   0.8982   0.2031
V4     V     0.9491   0.0509   0.2969
V5     V     0.1018   0.0509   0.2969
V6     V     0.9491   0.8982   0.2969
Ti7     Ti     0.7496   0.652   0.4131
Ti8     Ti     0.9023   0.652   0.4131
Er9     Er     0.8836   0.7673   0.3598
Ti10     Ti     0.652   0.9023   0.5869
Ti11     Ti     0.652   0.7496   0.5869
Er12     Er     0.7673   0.8836   0.6402
Ti13     Ti     0.0977   0.3481   0.5869
Ti14     Ti     0.2504   0.3481   0.5869
Er15     Er     0.1164   0.2327   0.6402
Ce16     Ce     0.5997   0.553   0.4602
Ce17     Ce     0.447   0.4003   0.4602
Ce18     Ce     0.553   0.5997   0.5398
Ce19     Ce     0.4003   0.447   0.5398
Ti20     Ti     0.3481   0.0977   0.4131
Ti21     Ti     0.3481   0.2504   0.4131
Er22     Er     0.2327   0.1164   0.3598
Ce23     Ce     0.553   0.9533   0.5398
Ce24     Ce     0.4003   0.9533   0.5398
Ce25     Ce     0.5997   0.0467   0.4602
Ce26     Ce     0.447   0.0467   0.4602
Ti27     Ti     0.7496   0.0977   0.4131
Ti28     Ti     0.9023   0.2504   0.4131
Er29     Er     0.8836   0.1164   0.3598
Ti30     Ti     0.2504   0.9023   0.5869
Ti31     Ti     0.0977   0.7496   0.5869
Er32     Er     0.1164   0.8836   0.6402
Ce33     Ce     0.0467   0.5997   0.5398
Ce34     Ce     0.0467   0.447   0.5398
Ce35     Ce     0.9533   0.553   0.4602
Ce36     Ce     0.9533   0.4003   0.4602
V37     V     0.0509   0.9491   0.7969
V38     V     0.0509   0.1018   0.7969
V39     V     0.8982   0.9491   0.7969
V40     V     0.8982   0.9491   0.7031
V41     V     0.0509   0.1018   0.7031
V42     V     0.0509   0.9491   0.7031
Ti43     Ti     0.9023   0.652   0.0869
Ti44     Ti     0.7496   0.652   0.0869
Er45     Er     0.8836   0.7673   0.1402
Ti46     Ti     0.3481   0.0977   0.0869
Ti47     Ti     0.3481   0.2504   0.0869
Er48     Er     0.2327   0.1164   0.1402
Ti49     Ti     0.7496   0.0977   0.0869
Ti50     Ti     0.9023   0.2504   0.0869
Er51     Er     0.8836   0.1164   0.1402
Ce52     Ce     0.5997   0.0467   0.0398
Ce53     Ce     0.553   0.9533   0.9602
Ce54     Ce     0.4003   0.9533   0.9602
Ce55     Ce     0.447   0.0467   0.0398
Ti56     Ti     0.652   0.9023   0.9131
Ti57     Ti     0.652   0.7496   0.9131
Er58     Er     0.7673   0.8836   0.8598
Ce59     Ce     0.5997   0.553   0.0398
Ce60     Ce     0.447   0.4003   0.0398
Ce61     Ce     0.553   0.5997   0.9602
Ce62     Ce     0.4003   0.447   0.9602
Ti63     Ti     0.0977   0.3481   0.9131
Ti64     Ti     0.2504   0.3481   0.9131
Er65     Er     0.1164   0.2327   0.8598
Ti66     Ti     0.2504   0.9023   0.9131
Ti67     Ti     0.0977   0.7496   0.9131
Er68     Er     0.1164   0.8836   0.8598
Ce69     Ce     0.0467   0.447   0.9602
Ce70     Ce     0.9533   0.553   0.0398
Ce71     Ce     0.9533   0.4003   0.0398
Ce72     Ce     0.0467   0.5997   0.9602
loop_
_geom_bond_atom_site_label_1
_geom_bond_atom_site_label_2
_geom_bond_distance
_geom_bond_site_symmetry_2
_ccdc_geom_bond_type
V1     V3    10.0   1_545     S
V1     Er51    10.0   .     S
V1     V2    10.0   1_655     S
V1     V4    10.0   .     S
V2     V3    10.0   1_445     S
V2     V1    10.0   1_455     S
V2     Er48    10.0   .     S
V2     V5    10.0   .     S
V3     V1    10.0   1_565     S
V3     V2    10.0   1_665     S
V3     Er45    10.0   .     S
V3     V6    10.0   .     S
V4     V5    10.0   1_655     S
V4     Er29    10.0   .     S
V4     V6    10.0   1_545     S
V5     V4    10.0   1_455     S
V5     V6    10.0   1_445     S
V5     Er22    10.0   .     S
V6     V5    10.0   1_665     S
V6     V4    10.0   1_565     S
V6     Er9    10.0   .     S
Ti7     Ti8    10.0   .     S
Ti7     Er9    10.0   .     S
Ti7     Ce16    10.001   .     S
Ti8     Er9    10.0   .     S
Ti8     Ce35    10.001   .     S
Ti10     Er12    10.0   .     S
Ti10     Ti11    10.0   .     S
Ti10     Ce23    10.001   .     S
Ti11     Er12    10.0   .     S
Ti11     Ce18    10.001   .     S
Er12     V40    10.0   .     S
Ti13     Ti14    10.0   .     S
Ti13     Er15    10.0   .     S
Ti13     Ce34    10.001   .     S
Ti14     Er15    10.0   .     S
Ti14     Ce19    10.001   .     S
Er15     V41    10.0   .     S
Ce16     Ce17    10.0   .     S
Ce16     Ce18    10.0   .     S
Ce17     Ce19    10.0   .     S
Ce17     Ti21    10.001   .     S
Ce18     Ce19    10.0   .     S
Ti20     Ti21    10.0   .     S
Ti20     Er22    10.0   .     S
Ti20     Ce26    10.001   .     S
Ti21     Er22    10.0   .     S
Ce23     Ce24    10.0   .     S
Ce23     Ce25    10.0   1_565     S
Ce24     Ce26    10.0   1_565     S
Ce24     Ti30    10.001   .     S
Ce25     Ce26    10.0   .     S
Ce25     Ce23    10.0   1_545     S
Ce25     Ti27    10.001   .     S
Ce26     Ce24    10.0   1_545     S
Ti27     Ti28    10.0   .     S
Ti27     Er29    10.0   .     S
Ti28     Er29    10.0   .     S
Ti28     Ce36    10.001   .     S
Ti30     Ti31    10.0   .     S
Ti30     Er32    10.0   .     S
Ti31     Er32    10.0   .     S
Ti31     Ce33    10.001   .     S
Er32     V42    10.0   .     S
Ce33     Ce35    10.0   1_455     S
Ce33     Ce34    10.0   .     S
Ce34     Ce36    10.0   1_455     S
Ce35     Ce33    10.0   1_655     S
Ce35     Ce36    10.0   .     S
Ce36     Ce34    10.0   1_655     S
V37     V39    10.0   1_455     S
V37     Er68    10.0   .     S
V37     V38    10.0   1_565     S
V37     V42    10.0   .     S
V38     V37    10.0   1_545     S
V38     V39    10.0   1_445     S
V38     Er65    10.0   .     S
V38     V41    10.0   .     S
V39     V37    10.0   1_655     S
V39     V38    10.0   1_665     S
V39     Er58    10.0   .     S
V39     V40    10.0   .     S
V40     V41    10.0   1_665     S
V40     V42    10.0   1_655     S
V41     V40    10.0   1_445     S
V41     V42    10.0   1_545     S
V42     V40    10.0   1_455     S
V42     V41    10.0   1_565     S
Ti43     Ti44    10.0   .     S
Ti43     Er45    10.0   .     S
Ti43     Ce70    10.001   .     S
Ti44     Er45    10.0   .     S
Ti44     Ce59    10.001   .     S
Ti46     Er48    10.0   .     S
Ti46     Ti47    10.0   .     S
Ti46     Ce55    10.001   .     S
Ti47     Er48    10.0   .     S
Ti47     Ce60    10.001   .     S
Ti49     Ti50    10.0   .     S
Ti49     Er51    10.0   .     S
Ti49     Ce52    10.001   .     S
Ti50     Er51    10.0   .     S
Ti50     Ce71    10.001   .     S
Ce52     Ce55    10.0   .     S
Ce52     Ce53    10.0   1_544     S
Ce53     Ce54    10.0   .     S
Ce53     Ce52    10.0   1_566     S
Ce53     Ti56    10.001   .     S
Ce54     Ce55    10.0   1_566     S
Ce54     Ti66    10.001   .     S
Ce55     Ce54    10.0   1_544     S
Ti56     Ti57    10.0   .     S
Ti56     Er58    10.0   .     S
Ti57     Er58    10.0   .     S
Ti57     Ce61    10.001   .     S
Ce59     Ce60    10.0   .     S
Ce59     Ce61    10.0   1_554     S
Ce60     Ce62    10.0   1_554     S
Ce61     Ce62    10.0   .     S
Ce61     Ce59    10.0   1_556     S
Ce62     Ce60    10.0   1_556     S
Ce62     Ti64    10.001   .     S
Ti63     Er65    10.0   .     S
Ti63     Ti64    10.0   .     S
Ti63     Ce69    10.001   .     S
Ti64     Er65    10.0   .     S
Ti66     Ti67    10.0   .     S
Ti66     Er68    10.0   .     S
Ti67     Er68    10.0   .     S
Ti67     Ce72    10.001   .     S
Ce69     Ce71    10.0   1_456     S
Ce69     Ce72    10.0   .     S
Ce70     Ce71    10.0   .     S
Ce70     Ce72    10.0   1_654     S
Ce71     Ce69    10.0   1_654     S
Ce72     Ce70    10.0   1_456     S
