data_ahqa
_audit_creation_date              2020-02-04
_audit_creation_method            'Pymatgen'
_symmetry_space_group_name_H-M    'P1'
_symmetry_Int_Tables_number       1
loop_
_symmetry_equiv_pos_as_xyz
  x,y,z
_cell_length_a                    53.1587
_cell_length_b                    53.1587
_cell_length_c                    112.6123
_cell_angle_alpha                 90.0
_cell_angle_beta                 90.0
_cell_angle_gamma                 120.0
loop_
_atom_site_label
_atom_site_type_symbol
_atom_site_fract_x
_atom_site_fract_y
_atom_site_fract_z
V1     V     0.7921   0.396   0.8696
V2     V     0.7294   0.2706   0.7971
V3     V     0.604   0.396   0.8696
V4     V     0.604   0.2079   0.8696
V5     V     0.5413   0.2706   0.7971
V6     V     0.7294   0.4587   0.7971
Ti7     Ti     0.4239   0.2119   0.7224
Ti8     Ti     0.8786   0.7572   0.611
Ti9     Ti     0.8786   0.1214   0.611
Ti10     Ti     0.2428   0.1214   0.611
Ti11     Ti     0.7881   0.5761   0.7224
Ti12     Ti     0.7881   0.2119   0.7224
Er13     Er     0.3333   0.4785   0.6667
Ce14     Ce     0.3333   0.2904   0.6667
Er15     Er     0.1452   0.4785   0.6667
Er16     Er     0.5215   0.6667   0.6667
Ce17     Ce     0.7096   0.6667   0.6667
Er18     Er     0.5215   0.8548   0.6667
Er19     Er     0.1452   0.6667   0.6667
Ce20     Ce     0.9571   0.6667   0.6667
Er21     Er     0.3333   0.8548   0.6667
Ce22     Ce     0.3333   0.0429   0.6667
Ce23     Ce     0.7096   0.0429   0.6667
Ce24     Ce     0.9571   0.2904   0.6667
V25     V     0.396   0.7921   0.1304
V26     V     0.2706   0.7294   0.2029
V27     V     0.2706   0.5413   0.2029
V28     V     0.2079   0.604   0.1304
V29     V     0.396   0.604   0.1304
V30     V     0.4587   0.7294   0.2029
Ti31     Ti     0.4547   0.9095   0.0557
Ti32     Ti     0.0905   0.5453   0.0557
Ti33     Ti     0.9095   0.4547   0.9443
Ti34     Ti     0.5453   0.4547   0.9443
Ti35     Ti     0.5453   0.0905   0.9443
Ti36     Ti     0.4547   0.5453   0.0557
Er37     Er     0.8119   0.8119   0.0
Er38     Er     0.8119   0.0   0.0
Ce39     Ce     0.6238   0.0   0.0
Ce40     Ce     0.6238   0.6238   0.0
Er41     Er     0.0   0.8119   0.0
Er42     Er     0.1881   0.0   0.0
Er43     Er     0.1881   0.1881   0.0
Er44     Er     0.0   0.1881   0.0
Ce45     Ce     0.3762   0.0   0.0
Ce46     Ce     0.0   0.6238   0.0
Ce47     Ce     0.0   0.3762   0.0
Ce48     Ce     0.3762   0.3762   0.0
V49     V     0.9373   0.0627   0.5362
V50     V     0.8746   0.9373   0.4638
V51     V     0.0627   0.1254   0.4638
V52     V     0.9373   0.8746   0.5362
V53     V     0.0627   0.9373   0.4638
V54     V     0.1254   0.0627   0.5362
Ti55     Ti     0.7572   0.8786   0.389
Ti56     Ti     0.1214   0.2428   0.389
Ti57     Ti     0.1214   0.8786   0.389
Ti58     Ti     0.2119   0.4239   0.2776
Ti59     Ti     0.5761   0.7881   0.2776
Ti60     Ti     0.2119   0.7881   0.2776
Er61     Er     0.8548   0.5215   0.3333
Ce62     Ce     0.0429   0.7096   0.3333
Er63     Er     0.6667   0.5215   0.3333
Ce64     Ce     0.6667   0.7096   0.3333
Er65     Er     0.8548   0.3333   0.3333
Ce66     Ce     0.0429   0.3333   0.3333
Er67     Er     0.4785   0.3333   0.3333
Ce68     Ce     0.2904   0.3333   0.3333
Er69     Er     0.6667   0.1452   0.3333
Er70     Er     0.4785   0.1452   0.3333
Ce71     Ce     0.2904   0.9571   0.3333
Ce72     Ce     0.6667   0.9571   0.3333
loop_
_geom_bond_atom_site_label_1
_geom_bond_atom_site_label_2
_geom_bond_distance
_geom_bond_site_symmetry_2
_ccdc_geom_bond_type
V1     V4    10.0   .     S
V1     V3    10.0   .     S
V1     V6    10.0   .     S
V1     V2    10.0   .     S
V1     Ti33    10.0   .     S
V2     V4    10.0   .     S
V2     V6    10.0   .     S
V2     V5    10.0   .     S
V2     Ti12    10.0   .     S
V3     V4    10.0   .     S
V3     V6    9.999   .     S
V3     V5    10.0   .     S
V3     Ti34    10.0   .     S
V4     V5    9.999   .     S
V4     Ti35    10.0   .     S
V5     V6    10.0   .     S
V5     Ti7    10.0   .     S
V6     Ti11    10.0   .     S
Ti7     Ce22    10.0   .     S
Ti7     Ce14    10.0   .     S
Ti8     Ce20    10.0   .     S
Ti8     Ce17    10.0   .     S
Ti8     V52    10.0   .     S
Ti9     Ce24    10.0   .     S
Ti9     Ce23    10.0   .     S
Ti9     V49    10.0   .     S
Ti10     Ce22    10.0   .     S
Ti10     Ce14    10.0   .     S
Ti10     V54    10.0   .     S
Ti11     Ce20    10.0   .     S
Ti11     Ce17    10.0   .     S
Ti12     Ce23    10.0   .     S
Ti12     Ce24    10.0   .     S
Er13     Ce14    10.0   .     S
Er13     Er15    10.0   .     S
Er13     Er16    10.0   .     S
Er15     Ce24    10.0   1_455     S
Er15     Er19    10.0   .     S
Er16     Ce17    10.0   .     S
Er16     Er18    10.0   .     S
Er18     Ce23    10.0   1_565     S
Er18     Er21    10.0   .     S
Er19     Ce20    10.0   1_455     S
Er19     Er21    10.0   .     S
Ce20     Er19    10.0   1_655     S
Er21     Ce22    10.0   1_565     S
Ce22     Er21    10.0   1_545     S
Ce23     Er18    10.0   1_545     S
Ce24     Er15    10.0   1_655     S
V25     V26    10.0   .     S
V25     V30    10.0   .     S
V25     V29    10.0   .     S
V25     V28    10.0   .     S
V25     Ti31    10.0   .     S
V26     V28    10.0   .     S
V26     V27    10.0   .     S
V26     V30    10.0   .     S
V26     Ti60    10.0   .     S
V27     V30    10.0   .     S
V27     V29    10.0   .     S
V27     V28    9.999   .     S
V27     Ti58    10.0   .     S
V28     V29    10.0   .     S
V28     Ti32    10.0   .     S
V29     V30    9.999   .     S
V29     Ti36    10.0   .     S
V30     Ti59    10.0   .     S
Ti31     Ce45    10.0   1_565     S
Ti31     Ce39    10.0   1_565     S
Ti32     Ce46    10.0   .     S
Ti32     Ce47    10.0   .     S
Ti33     Ce47    10.0   1_656     S
Ti33     Ce46    10.0   1_656     S
Ti34     Ce40    10.0   1_556     S
Ti34     Ce48    10.0   1_556     S
Ti35     Ce39    10.0   1_556     S
Ti35     Ce45    10.0   1_556     S
Ti36     Ce48    10.0   .     S
Ti36     Ce40    10.0   .     S
Er37     Ce40    10.0   .     S
Er37     Er41    10.0   1_655     S
Er37     Er38    10.0   1_565     S
Er38     Ce39    10.0   .     S
Er38     Er44    10.0   1_655     S
Er38     Er37    10.0   1_545     S
Ce39     Ti31    10.0   1_545     S
Ce39     Ti35    10.0   1_554     S
Ce40     Ti34    10.0   1_554     S
Er41     Er37    10.0   1_455     S
Er41     Ce46    10.0   .     S
Er41     Er42    10.0   1_565     S
Er42     Er41    10.0   1_545     S
Er42     Ce45    10.0   .     S
Er42     Er43    10.0   .     S
Er43     Ce48    10.0   .     S
Er43     Er44    10.0   .     S
Er44     Er38    10.0   1_455     S
Er44     Ce47    10.0   .     S
Ce45     Ti31    10.0   1_545     S
Ce45     Ti35    10.0   1_554     S
Ce46     Ti33    10.0   1_454     S
Ce47     Ti33    10.0   1_454     S
Ce48     Ti34    10.0   1_554     S
V49     V52    10.0   1_545     S
V49     V54    10.0   1_655     S
V49     V51    9.999   1_655     S
V49     V50    10.0   1_545     S
V50     V51    10.0   1_665     S
V50     V53    10.0   1_655     S
V50     V52    10.0   .     S
V50     V49    10.0   1_565     S
V50     Ti55    10.0   .     S
V51     V50    10.0   1_445     S
V51     V53    10.0   1_545     S
V51     V49    9.999   1_455     S
V51     V54    10.0   .     S
V51     Ti56    10.0   .     S
V52     V49    10.0   1_565     S
V52     V54    10.0   1_665     S
V52     V53    10.0   1_655     S
V53     V50    10.0   1_455     S
V53     V51    10.0   1_565     S
V53     V52    10.0   1_455     S
V53     V54    9.999   1_565     S
V53     Ti57    10.0   .     S
V54     V52    10.0   1_445     S
V54     V49    10.0   1_455     S
V54     V53    9.999   1_545     S
Ti55     Ce72    10.0   .     S
Ti55     Ce64    10.0   .     S
Ti56     Ce66    10.0   .     S
Ti56     Ce68    10.0   .     S
Ti57     Ce71    10.0   .     S
Ti57     Ce62    10.0   .     S
Ti58     Ce66    10.0   .     S
Ti58     Ce68    10.0   .     S
Ti59     Ce72    10.0   .     S
Ti59     Ce64    10.0   .     S
Ti60     Ce62    10.0   .     S
Ti60     Ce71    10.0   .     S
Er61     Ce62    10.0   1_655     S
Er61     Er65    10.0   .     S
Er61     Er63    10.0   .     S
Ce62     Er61    10.0   1_455     S
Er63     Ce64    10.0   .     S
Er63     Er67    10.0   .     S
Er65     Ce66    10.0   1_655     S
Er65     Er69    10.0   .     S
Ce66     Er65    10.0   1_455     S
Er67     Ce68    10.0   .     S
Er67     Er70    10.0   .     S
Er69     Ce72    10.0   1_545     S
Er69     Er70    10.0   .     S
Er70     Ce71    10.0   1_545     S
Ce71     Er70    10.0   1_565     S
Ce72     Er69    10.0   1_565     S
