data_ahra
_audit_creation_date              2020-02-04
_audit_creation_method            'Pymatgen'
_symmetry_space_group_name_H-M    'P1'
_symmetry_Int_Tables_number       1
loop_
_symmetry_equiv_pos_as_xyz
  x,y,z
_cell_length_a                    62.995
_cell_length_b                    62.995
_cell_length_c                    137.1641
_cell_angle_alpha                 90.0
_cell_angle_beta                 90.0
_cell_angle_gamma                 120.0
loop_
_atom_site_label
_atom_site_type_symbol
_atom_site_fract_x
_atom_site_fract_y
_atom_site_fract_z
V1     V     0.4272   0.7559   0.1369
V2     V     0.338   0.7606   0.1964
V3     V     0.2394   0.5775   0.1964
V4     V     0.2441   0.6714   0.1369
V5     V     0.3286   0.5728   0.1369
V6     V     0.4225   0.662   0.1964
S7     S     0.24   0.8646   0.3116
Er8     Er     0.3308   0.8561   0.2533
Ce9     Ce     0.4101   0.0008   0.2979
Ti10     Ti     0.537   0.1599   0.3268
S11     S     0.7088   0.9066   0.3551
Er12     Er     0.808   0.9974   0.4134
Ce13     Ce     0.7426   0.0767   0.3687
Ti14     Ti     0.7104   0.2037   0.3398
S15     S     0.1354   0.3754   0.3116
Er16     Er     0.1439   0.4747   0.2533
Ce17     Ce     0.9992   0.4093   0.2979
Ti18     Ti     0.8401   0.3771   0.3268
S19     S     0.0934   0.8021   0.3551
Er20     Er     0.0026   0.8106   0.4134
Ce21     Ce     0.9233   0.6659   0.3687
Ti22     Ti     0.7963   0.5067   0.3398
S23     S     0.1979   0.2912   0.3551
Er24     Er     0.1894   0.192   0.4134
Ce25     Ce     0.3341   0.2574   0.3687
Ti26     Ti     0.4933   0.2896   0.3398
S27     S     0.6246   0.76   0.3116
Er28     Er     0.5253   0.6692   0.2533
Ce29     Ce     0.5907   0.5899   0.2979
Ti30     Ti     0.6229   0.463   0.3268
S31     S     0.0421   0.5733   0.0217
Er32     Er     0.1413   0.6641   0.08
Ce33     Ce     0.076   0.7434   0.0354
Ti34     Ti     0.0437   0.8703   0.0065
S35     S     0.4688   0.0421   0.9783
Er36     Er     0.4773   0.1413   0.92
Ce37     Ce     0.3326   0.076   0.9646
Ti38     Ti     0.1734   0.0437   0.9935
S39     S     0.4267   0.4688   0.0217
Er40     Er     0.3359   0.4773   0.08
Ce41     Ce     0.2566   0.3326   0.0354
Ti42     Ti     0.1297   0.1734   0.0065
S43     S     0.9579   0.4267   0.9783
Er44     Er     0.8587   0.3359   0.92
Ce45     Ce     0.924   0.2566   0.9646
Ti46     Ti     0.9563   0.1297   0.9935
S47     S     0.5733   0.5312   0.9783
Er48     Er     0.6641   0.5227   0.92
Ce49     Ce     0.7434   0.6674   0.9646
Ti50     Ti     0.8703   0.8266   0.9935
S51     S     0.5312   0.9579   0.0217
Er52     Er     0.5227   0.8587   0.08
Ce53     Ce     0.6674   0.924   0.0354
Ti54     Ti     0.8266   0.9563   0.0065
V55     V     0.7559   0.3286   0.8631
V56     V     0.662   0.2394   0.8036
V57     V     0.5728   0.2441   0.8631
V58     V     0.5775   0.338   0.8036
V59     V     0.7606   0.4225   0.8036
V60     V     0.6714   0.4272   0.8631
V61     V     0.0939   0.0892   0.4702
V62     V     0.0892   0.9953   0.5298
V63     V     0.0047   0.0939   0.5298
V64     V     0.9108   0.0047   0.4702
V65     V     0.9061   0.9108   0.5298
V66     V     0.9953   0.9061   0.4702
S67     S     0.9066   0.1979   0.6449
Er68     Er     0.9974   0.1894   0.5866
Ce69     Ce     0.0767   0.3341   0.6313
Ti70     Ti     0.2037   0.4933   0.6602
S71     S     0.8646   0.6246   0.6884
Er72     Er     0.8561   0.5253   0.7467
Ce73     Ce     0.0008   0.5907   0.7021
Ti74     Ti     0.1599   0.6229   0.6732
S75     S     0.2912   0.0934   0.6449
Er76     Er     0.192   0.0026   0.5866
Ce77     Ce     0.2574   0.9233   0.6313
Ti78     Ti     0.2896   0.7963   0.6602
S79     S     0.76   0.1354   0.6884
Er80     Er     0.6692   0.1439   0.7467
Ce81     Ce     0.5899   0.9992   0.7021
Ti82     Ti     0.463   0.8401   0.6732
S83     S     0.8021   0.7088   0.6449
Er84     Er     0.8106   0.808   0.5866
Ce85     Ce     0.6659   0.7426   0.6313
Ti86     Ti     0.5067   0.7104   0.6602
S87     S     0.3754   0.24   0.6884
Er88     Er     0.4747   0.3308   0.7467
Ce89     Ce     0.4093   0.4101   0.7021
Ti90     Ti     0.3771   0.537   0.6732
loop_
_geom_bond_atom_site_label_1
_geom_bond_atom_site_label_2
_geom_bond_distance
_geom_bond_site_symmetry_2
_ccdc_geom_bond_type
V1     V2    9.999   .     S
V1     V4    10.0   .     S
V1     V6    9.999   .     S
V1     V5    10.0   .     S
V1     Er52    10.0   .     S
V2     V6    10.0   .     S
V2     V4    9.999   .     S
V2     V3    10.0   .     S
V2     Er8    10.0   .     S
V3     V5    9.999   .     S
V3     V4    9.999   .     S
V3     V6    10.0   .     S
V3     Er16    10.0   .     S
V4     V5    10.0   .     S
V4     Er32    10.0   .     S
V5     V6    9.999   .     S
V5     Er40    10.0   .     S
V6     Er28    10.0   .     S
S7     S19    10.001   .     S
S7     Er8    9.999   .     S
S7     Ce9    10.0   1_565     S
Er8     Ce9    10.0   1_565     S
Ce9     S7    10.0   1_545     S
Ce9     Er8    10.0   1_545     S
Ce9     Ti10    10.0   .     S
Ti10     Ti26    10.0   .     S
Ti10     Ti14    10.0   .     S
S11     S27    10.001   .     S
S11     Er12    9.999   .     S
S11     Ce13    10.0   1_565     S
Er12     Ce13    10.0   1_565     S
Er12     V64    10.0   1_565     S
Ce13     S11    10.0   1_545     S
Ce13     Er12    10.0   1_545     S
Ce13     Ti14    10.0   .     S
Ti14     Ti18    10.0   .     S
S15     S23    10.001   .     S
S15     Er16    9.999   .     S
S15     Ce17    10.0   1_455     S
Er16     Ce17    10.0   1_455     S
Ce17     S15    10.0   1_655     S
Ce17     Er16    10.0   1_655     S
Ce17     Ti18    10.0   .     S
Ti18     Ti22    10.0   .     S
S19     Er20    9.999   .     S
S19     Ce21    10.0   1_455     S
Er20     Ce21    10.0   1_455     S
Er20     V66    10.0   1_455     S
Ce21     S19    10.0   1_655     S
Ce21     Er20    10.0   1_655     S
Ce21     Ti22    10.0   .     S
Ti22     Ti30    10.0   .     S
S23     Er24    9.999   .     S
S23     Ce25    10.0   .     S
Er24     Ce25    10.0   .     S
Er24     V61    10.0   .     S
Ce25     Ti26    10.0   .     S
Ti26     Ti30    10.0   .     S
S27     Er28    9.999   .     S
S27     Ce29    10.0   .     S
Er28     Ce29    10.0   .     S
Ce29     Ti30    10.0   .     S
S31     S43    10.001   1_454     S
S31     Er32    9.999   .     S
S31     Ce33    10.0   .     S
Er32     Ce33    10.0   .     S
Ce33     Ti34    10.0   .     S
Ti34     Ti50    10.0   1_454     S
Ti34     Ti38    10.0   1_564     S
S35     S51    10.001   1_546     S
S35     Er36    9.999   .     S
S35     Ce37    10.0   .     S
Er36     Ce37    10.0   .     S
Er36     V57    10.0   .     S
Ce37     Ti38    10.0   .     S
Ti38     Ti34    10.0   1_546     S
Ti38     Ti42    10.0   1_556     S
S39     S47    10.001   1_554     S
S39     Er40    9.999   .     S
S39     Ce41    10.0   .     S
Er40     Ce41    10.0   .     S
Ce41     Ti42    10.0   .     S
Ti42     Ti38    10.0   1_554     S
Ti42     Ti46    10.0   1_454     S
S43     S31    10.001   1_656     S
S43     Er44    9.999   .     S
S43     Ce45    10.0   .     S
Er44     Ce45    10.0   .     S
Er44     V55    10.0   .     S
Ce45     Ti46    10.0   .     S
Ti46     Ti42    10.0   1_656     S
Ti46     Ti54    10.0   1_546     S
S47     S39    10.001   1_556     S
S47     Er48    9.999   .     S
S47     Ce49    10.0   .     S
Er48     Ce49    10.0   .     S
Er48     V60    10.0   .     S
Ce49     Ti50    10.0   .     S
Ti50     Ti34    10.0   1_656     S
Ti50     Ti54    10.0   1_556     S
S51     S35    10.001   1_564     S
S51     Er52    9.999   .     S
S51     Ce53    10.0   .     S
Er52     Ce53    10.0   .     S
Ce53     Ti54    10.0   .     S
Ti54     Ti50    10.0   1_554     S
Ti54     Ti46    10.0   1_564     S
V55     V59    9.999   .     S
V55     V56    9.999   .     S
V55     V57    10.0   .     S
V55     V60    10.0   .     S
V56     V59    10.0   .     S
V56     V57    9.999   .     S
V56     V58    10.0   .     S
V56     Er80    10.0   .     S
V57     V58    9.999   .     S
V57     V60    10.0   .     S
V58     V60    9.999   .     S
V58     V59    10.0   .     S
V58     Er88    10.0   .     S
V59     V60    9.999   .     S
V59     Er72    10.0   .     S
V61     V63    9.999   .     S
V61     V62    9.999   1_545     S
V61     V66    10.0   1_445     S
V61     V64    10.0   1_455     S
V62     V63    10.0   1_565     S
V62     V61    9.999   1_565     S
V62     V66    9.999   1_455     S
V62     V65    10.0   1_455     S
V62     Er76    10.0   1_565     S
V63     V62    10.0   1_545     S
V63     V64    9.999   1_455     S
V63     V65    10.0   1_445     S
V63     Er68    10.0   1_455     S
V64     Er12    10.0   1_545     S
V64     V63    9.999   1_655     S
V64     V61    10.0   1_655     S
V64     V65    9.999   1_545     S
V64     V66    10.0   1_545     S
V65     V64    9.999   1_565     S
V65     V63    10.0   1_665     S
V65     V66    9.999   .     S
V65     V62    10.0   1_655     S
V65     Er84    10.0   .     S
V66     Er20    10.0   1_655     S
V66     V61    10.0   1_665     S
V66     V64    10.0   1_565     S
V66     V62    9.999   1_655     S
S67     S79    10.001   .     S
S67     Er68    9.999   .     S
S67     Ce69    10.0   1_655     S
Er68     Ce69    10.0   1_655     S
Er68     V63    10.0   1_655     S
Ce69     S67    10.0   1_455     S
Ce69     Er68    10.0   1_455     S
Ce69     Ti70    10.0   .     S
Ti70     Ti74    10.0   .     S
Ti70     Ti90    10.0   .     S
S71     S83    10.001   .     S
S71     Er72    9.999   .     S
S71     Ce73    10.0   1_655     S
Er72     Ce73    10.0   1_655     S
Ce73     S71    10.0   1_455     S
Ce73     Er72    10.0   1_455     S
Ce73     Ti74    10.0   .     S
Ti74     Ti78    10.0   .     S
S75     S87    10.001   .     S
S75     Er76    9.999   .     S
S75     Ce77    10.0   1_545     S
Er76     Ce77    10.0   1_545     S
Er76     V62    10.0   1_545     S
Ce77     S75    10.0   1_565     S
Ce77     Er76    10.0   1_565     S
Ce77     Ti78    10.0   .     S
Ti78     Ti82    10.0   .     S
S79     Er80    9.999   .     S
S79     Ce81    10.0   1_545     S
Er80     Ce81    10.0   1_545     S
Ce81     S79    10.0   1_565     S
Ce81     Er80    10.0   1_565     S
Ce81     Ti82    10.0   .     S
Ti82     Ti86    10.0   .     S
S83     Er84    9.999   .     S
S83     Ce85    10.0   .     S
Er84     Ce85    10.0   .     S
Ce85     Ti86    10.0   .     S
Ti86     Ti90    10.0   .     S
S87     Er88    9.999   .     S
S87     Ce89    10.0   .     S
Er88     Ce89    10.0   .     S
Ce89     Ti90    10.0   .     S
