data_amua
_audit_creation_date              2020-02-04
_audit_creation_method            'Pymatgen'
_symmetry_space_group_name_H-M    'P1'
_symmetry_Int_Tables_number       1
loop_
_symmetry_equiv_pos_as_xyz
  x,y,z
_cell_length_a                    82.5318
_cell_length_b                    82.5318
_cell_length_c                    82.5318
_cell_angle_alpha                 90.0
_cell_angle_beta                 90.0
_cell_angle_gamma                 90.0
loop_
_atom_site_label
_atom_site_type_symbol
_atom_site_fract_x
_atom_site_fract_y
_atom_site_fract_z
H1     H     0.4362   0.75   0.0638
H2     H     0.5638   0.75   0.0638
H3     H     0.5638   0.75   0.9362
H4     H     0.4362   0.75   0.9362
H5     H     0.75   0.4362   0.9362
H6     H     0.75   0.5638   0.9362
H7     H     0.75   0.4362   0.0638
H8     H     0.75   0.5638   0.0638
H9     H     0.4362   0.25   0.9362
H10     H     0.5638   0.25   0.9362
H11     H     0.4362   0.25   0.0638
H12     H     0.5638   0.25   0.0638
H13     H     0.25   0.4362   0.0638
H14     H     0.25   0.5638   0.0638
H15     H     0.25   0.5638   0.9362
H16     H     0.25   0.4362   0.9362
H17     H     0.0638   0.4362   0.75
H18     H     0.0638   0.5638   0.75
H19     H     0.9362   0.5638   0.75
H20     H     0.9362   0.4362   0.75
H21     H     0.4362   0.9362   0.75
H22     H     0.5638   0.9362   0.75
H23     H     0.4362   0.0638   0.75
H24     H     0.5638   0.0638   0.75
H25     H     0.9362   0.4362   0.25
H26     H     0.9362   0.5638   0.25
H27     H     0.0638   0.4362   0.25
H28     H     0.0638   0.5638   0.25
H29     H     0.4362   0.0638   0.25
H30     H     0.5638   0.0638   0.25
H31     H     0.5638   0.9362   0.25
H32     H     0.4362   0.9362   0.25
H33     H     0.25   0.9362   0.4362
H34     H     0.25   0.9362   0.5638
H35     H     0.25   0.0638   0.4362
H36     H     0.25   0.0638   0.5638
H37     H     0.9362   0.75   0.4362
H38     H     0.9362   0.75   0.5638
H39     H     0.0638   0.75   0.4362
H40     H     0.0638   0.75   0.5638
H41     H     0.75   0.0638   0.4362
H42     H     0.75   0.0638   0.5638
H43     H     0.75   0.9362   0.5638
H44     H     0.75   0.9362   0.4362
V45     V     0.5   0.5882   0.5882
V46     V     0.5882   0.5   0.5882
V47     V     0.4118   0.5   0.5882
V48     V     0.5   0.4118   0.5882
V49     V     0.5882   0.5882   0.5
V50     V     0.4118   0.5882   0.5
V51     V     0.4118   0.4118   0.5
V52     V     0.5882   0.4118   0.5
V53     V     0.5882   0.5   0.4118
V54     V     0.5   0.4118   0.4118
V55     V     0.5   0.5882   0.4118
V56     V     0.4118   0.5   0.4118
V57     V     0.0   0.0882   0.0882
V58     V     0.0882   0.0   0.0882
V59     V     0.0882   0.0882   0.0
V60     V     0.9118   0.0   0.9118
V61     V     0.0882   0.0   0.9118
V62     V     0.0   0.0882   0.9118
V63     V     0.0   0.9118   0.9118
V64     V     0.0   0.9118   0.0882
V65     V     0.0882   0.9118   0.0
V66     V     0.9118   0.0   0.0882
V67     V     0.9118   0.0882   0.0
V68     V     0.9118   0.9118   0.0
Ti69     Ti     0.241   0.241   0.4477
Ti70     Ti     0.241   0.241   0.5523
Ce71     Ce     0.2725   0.2725   0.3515
Ce72     Ce     0.2725   0.2725   0.6485
Ti73     Ti     0.241   0.4477   0.241
Ti74     Ti     0.241   0.5523   0.241
Ce75     Ce     0.2725   0.3515   0.2725
Ce76     Ce     0.2725   0.6485   0.2725
Ti77     Ti     0.5523   0.241   0.241
Ti78     Ti     0.4477   0.241   0.241
Ce79     Ce     0.3515   0.2725   0.2725
Ce80     Ce     0.6485   0.2725   0.2725
Ti81     Ti     0.241   0.759   0.4477
Ti82     Ti     0.241   0.759   0.5523
Ce83     Ce     0.2725   0.7275   0.3515
Ce84     Ce     0.2725   0.7275   0.6485
Ti85     Ti     0.241   0.4477   0.759
Ti86     Ti     0.241   0.5523   0.759
Ce87     Ce     0.2725   0.3515   0.7275
Ce88     Ce     0.2725   0.6485   0.7275
Ti89     Ti     0.5523   0.241   0.759
Ti90     Ti     0.4477   0.241   0.759
Ce91     Ce     0.3515   0.2725   0.7275
Ce92     Ce     0.6485   0.2725   0.7275
Ti93     Ti     0.759   0.241   0.4477
Ti94     Ti     0.759   0.241   0.5523
Ce95     Ce     0.7275   0.2725   0.3515
Ce96     Ce     0.7275   0.2725   0.6485
Ti97     Ti     0.759   0.5523   0.241
Ti98     Ti     0.759   0.4477   0.241
Ce99     Ce     0.7275   0.3515   0.2725
Ce100     Ce     0.7275   0.6485   0.2725
Ti101     Ti     0.5523   0.759   0.241
Ti102     Ti     0.4477   0.759   0.241
Ce103     Ce     0.3515   0.7275   0.2725
Ce104     Ce     0.6485   0.7275   0.2725
Ti105     Ti     0.759   0.759   0.5523
Ti106     Ti     0.759   0.759   0.4477
Ce107     Ce     0.7275   0.7275   0.3515
Ce108     Ce     0.7275   0.7275   0.6485
Ti109     Ti     0.5523   0.759   0.759
Ti110     Ti     0.4477   0.759   0.759
Ce111     Ce     0.3515   0.7275   0.7275
Ce112     Ce     0.6485   0.7275   0.7275
Ti113     Ti     0.759   0.4477   0.759
Ti114     Ti     0.759   0.5523   0.759
Ce115     Ce     0.7275   0.3515   0.7275
Ce116     Ce     0.7275   0.6485   0.7275
Ti117     Ti     0.741   0.741   0.9477
Ti118     Ti     0.741   0.741   0.0523
Ce119     Ce     0.7725   0.7725   0.1485
Ce120     Ce     0.7725   0.7725   0.8515
Ti121     Ti     0.741   0.9477   0.741
Ti122     Ti     0.741   0.0523   0.741
Ce123     Ce     0.7725   0.1485   0.7725
Ce124     Ce     0.7725   0.8515   0.7725
Ti125     Ti     0.9477   0.741   0.741
Ti126     Ti     0.0523   0.741   0.741
Ce127     Ce     0.1485   0.7725   0.7725
Ce128     Ce     0.8515   0.7725   0.7725
Ti129     Ti     0.741   0.9477   0.259
Ti130     Ti     0.741   0.0523   0.259
Ce131     Ce     0.7725   0.1485   0.2275
Ce132     Ce     0.7725   0.8515   0.2275
Ti133     Ti     0.9477   0.741   0.259
Ti134     Ti     0.0523   0.741   0.259
Ce135     Ce     0.1485   0.7725   0.2275
Ce136     Ce     0.8515   0.7725   0.2275
Ti137     Ti     0.741   0.259   0.9477
Ti138     Ti     0.741   0.259   0.0523
Ce139     Ce     0.7725   0.2275   0.1485
Ce140     Ce     0.7725   0.2275   0.8515
Ti141     Ti     0.9477   0.259   0.741
Ti142     Ti     0.0523   0.259   0.741
Ce143     Ce     0.1485   0.2275   0.7725
Ce144     Ce     0.8515   0.2275   0.7725
Ti145     Ti     0.259   0.741   0.9477
Ti146     Ti     0.259   0.741   0.0523
Ce147     Ce     0.2275   0.7725   0.1485
Ce148     Ce     0.2275   0.7725   0.8515
Ti149     Ti     0.259   0.9477   0.741
Ti150     Ti     0.259   0.0523   0.741
Ce151     Ce     0.2275   0.1485   0.7725
Ce152     Ce     0.2275   0.8515   0.7725
Ti153     Ti     0.259   0.259   0.9477
Ti154     Ti     0.259   0.259   0.0523
Ce155     Ce     0.2275   0.2275   0.1485
Ce156     Ce     0.2275   0.2275   0.8515
Ti157     Ti     0.259   0.9477   0.259
Ti158     Ti     0.259   0.0523   0.259
Ce159     Ce     0.2275   0.1485   0.2275
Ce160     Ce     0.2275   0.8515   0.2275
Ti161     Ti     0.9477   0.259   0.259
Ti162     Ti     0.0523   0.259   0.259
Ce163     Ce     0.1485   0.2275   0.2275
Ce164     Ce     0.8515   0.2275   0.2275
S165     S     0.25   0.1564   0.6564
S166     S     0.8436   0.25   0.6564
S167     S     0.6564   0.8436   0.25
S168     S     0.1564   0.6564   0.25
S169     S     0.25   0.6564   0.8436
S170     S     0.6564   0.25   0.1564
S171     S     0.25   0.8436   0.6564
S172     S     0.1564   0.25   0.6564
S173     S     0.6564   0.1564   0.25
S174     S     0.8436   0.6564   0.25
S175     S     0.25   0.6564   0.1564
S176     S     0.6564   0.25   0.8436
S177     S     0.8436   0.3436   0.25
S178     S     0.3436   0.25   0.8436
S179     S     0.3436   0.8436   0.25
S180     S     0.25   0.3436   0.8436
S181     S     0.8436   0.75   0.3436
S182     S     0.25   0.8436   0.3436
S183     S     0.1564   0.75   0.6564
S184     S     0.75   0.8436   0.6564
S185     S     0.3436   0.8436   0.75
S186     S     0.6564   0.1564   0.75
S187     S     0.8436   0.6564   0.75
S188     S     0.75   0.3436   0.8436
S189     S     0.6564   0.75   0.8436
S190     S     0.75   0.6564   0.1564
S191     S     0.8436   0.75   0.6564
S192     S     0.75   0.1564   0.6564
S193     S     0.8436   0.25   0.3436
S194     S     0.75   0.8436   0.3436
S195     S     0.6564   0.8436   0.75
S196     S     0.1564   0.6564   0.75
S197     S     0.8436   0.3436   0.75
S198     S     0.75   0.6564   0.8436
S199     S     0.6564   0.75   0.1564
S200     S     0.3436   0.75   0.8436
S201     S     0.1564   0.25   0.3436
S202     S     0.25   0.3436   0.1564
S203     S     0.25   0.1564   0.3436
S204     S     0.3436   0.25   0.1564
S205     S     0.75   0.1564   0.3436
S206     S     0.3436   0.1564   0.25
S207     S     0.1564   0.3436   0.75
S208     S     0.3436   0.75   0.1564
S209     S     0.1564   0.75   0.3436
S210     S     0.3436   0.1564   0.75
S211     S     0.1564   0.3436   0.25
S212     S     0.75   0.3436   0.1564
Er213     Er     0.5   0.6789   0.6789
Er214     Er     0.6789   0.5   0.6789
Er215     Er     0.6789   0.6789   0.5
Er216     Er     0.0   0.8211   0.8211
Er217     Er     0.8211   0.0   0.8211
Er218     Er     0.8211   0.8211   0.0
Er219     Er     0.3211   0.5   0.6789
Er220     Er     0.5   0.3211   0.6789
Er221     Er     0.6789   0.5   0.3211
Er222     Er     0.5   0.6789   0.3211
Er223     Er     0.6789   0.3211   0.5
Er224     Er     0.3211   0.6789   0.5
Er225     Er     0.8211   0.0   0.1789
Er226     Er     0.0   0.8211   0.1789
Er227     Er     0.1789   0.0   0.8211
Er228     Er     0.0   0.1789   0.8211
Er229     Er     0.1789   0.8211   0.0
Er230     Er     0.8211   0.1789   0.0
Er231     Er     0.5   0.3211   0.3211
Er232     Er     0.3211   0.5   0.3211
Er233     Er     0.3211   0.3211   0.5
Er234     Er     0.0   0.1789   0.1789
Er235     Er     0.1789   0.0   0.1789
Er236     Er     0.1789   0.1789   0.0
H237     H     0.0638   0.25   0.4362
H238     H     0.0638   0.25   0.5638
H239     H     0.9362   0.25   0.4362
H240     H     0.9362   0.25   0.5638
loop_
_geom_bond_atom_site_label_1
_geom_bond_atom_site_label_2
_geom_bond_distance
_geom_bond_site_symmetry_2
_ccdc_geom_bond_type
H1     S208    10.812   .     S
H1     H2    10.524   .     S
H1     H4    10.524   1_554     S
H2     S199    10.812   .     S
H2     H3    10.524   1_554     S
H3     S189    10.812   .     S
H3     H2    10.524   1_556     S
H3     H4    10.524   .     S
H4     S200    10.812   .     S
H4     H1    10.524   1_556     S
H5     S188    10.812   .     S
H5     H6    10.524   .     S
H5     H7    10.524   1_556     S
H6     S198    10.812   .     S
H6     H8    10.524   1_556     S
H7     S212    10.812   .     S
H7     H5    10.524   1_554     S
H7     H8    10.524   .     S
H8     S190    10.812   .     S
H8     H6    10.524   1_554     S
H9     S178    10.812   .     S
H9     H10    10.524   .     S
H9     H11    10.524   1_556     S
H10     S176    10.812   .     S
H10     H12    10.524   1_556     S
H11     S204    10.812   .     S
H11     H9    10.524   1_554     S
H11     H12    10.524   .     S
H12     S170    10.812   .     S
H12     H10    10.524   1_554     S
H13     S202    10.812   .     S
H13     H14    10.524   .     S
H13     H16    10.524   1_554     S
H14     S175    10.812   .     S
H14     H15    10.524   1_554     S
H15     S169    10.812   .     S
H15     H14    10.524   1_556     S
H15     H16    10.524   .     S
H16     S180    10.812   .     S
H16     H13    10.524   1_556     S
H17     S207    10.812   .     S
H17     H18    10.524   .     S
H17     H20    10.524   1_455     S
H18     S196    10.812   .     S
H18     H19    10.524   1_455     S
H19     S187    10.812   .     S
H19     H18    10.524   1_655     S
H19     H20    10.524   .     S
H20     S197    10.812   .     S
H20     H17    10.524   1_655     S
H21     S185    10.812   .     S
H21     H22    10.524   .     S
H21     H23    10.524   1_565     S
H22     S195    10.812   .     S
H22     H24    10.524   1_565     S
H23     S210    10.812   .     S
H23     H21    10.524   1_545     S
H23     H24    10.524   .     S
H24     S186    10.812   .     S
H24     H22    10.524   1_545     S
H25     S177    10.812   .     S
H25     H26    10.524   .     S
H25     H27    10.524   1_655     S
H26     S174    10.812   .     S
H26     H28    10.524   1_655     S
H27     S211    10.812   .     S
H27     H25    10.524   1_455     S
H27     H28    10.524   .     S
H28     S168    10.812   .     S
H28     H26    10.524   1_455     S
H29     S206    10.812   .     S
H29     H30    10.524   .     S
H29     H32    10.524   1_545     S
H30     S173    10.812   .     S
H30     H31    10.524   1_545     S
H31     S167    10.812   .     S
H31     H30    10.524   1_565     S
H31     H32    10.524   .     S
H32     S179    10.812   .     S
H32     H29    10.524   1_565     S
H33     S182    10.812   .     S
H33     H34    10.524   .     S
H33     H35    10.524   1_565     S
H34     S171    10.812   .     S
H34     H36    10.524   1_565     S
H35     S203    10.812   .     S
H35     H33    10.524   1_545     S
H35     H36    10.524   .     S
H36     S165    10.812   .     S
H36     H34    10.524   1_545     S
H37     S181    10.812   .     S
H37     H38    10.524   .     S
H37     H39    10.524   1_655     S
H38     S191    10.812   .     S
H38     H40    10.524   1_655     S
H39     S209    10.812   .     S
H39     H37    10.524   1_455     S
H39     H40    10.524   .     S
H40     S183    10.812   .     S
H40     H38    10.524   1_455     S
H41     S205    10.812   .     S
H41     H42    10.524   .     S
H41     H44    10.524   1_545     S
H42     S192    10.812   .     S
H42     H43    10.524   1_545     S
H43     S184    10.812   .     S
H43     H42    10.524   1_565     S
H43     H44    10.524   .     S
H44     S194    10.812   .     S
H44     H41    10.524   1_565     S
V45     Er213    10.59   .     S
V45     V46    10.29   .     S
V45     V47    10.29   .     S
V45     V50    10.29   .     S
V45     V49    10.29   .     S
V46     Er214    10.59   .     S
V46     V48    10.29   .     S
V46     V49    10.29   .     S
V46     V52    10.29   .     S
V47     Er219    10.59   .     S
V47     V48    10.29   .     S
V47     V51    10.29   .     S
V47     V50    10.29   .     S
V48     Er220    10.59   .     S
V48     V52    10.29   .     S
V48     V51    10.29   .     S
V49     Er215    10.59   .     S
V49     V55    10.29   .     S
V49     V53    10.29   .     S
V50     Er224    10.59   .     S
V50     V56    10.29   .     S
V50     V55    10.29   .     S
V51     Er233    10.59   .     S
V51     V54    10.29   .     S
V51     V56    10.29   .     S
V52     Er223    10.59   .     S
V52     V53    10.29   .     S
V52     V54    10.29   .     S
V53     Er221    10.59   .     S
V53     V54    10.29   .     S
V53     V55    10.29   .     S
V54     Er231    10.59   .     S
V54     V56    10.29   .     S
V55     Er222    10.59   .     S
V55     V56    10.29   .     S
V56     Er232    10.59   .     S
V57     Er234    10.59   .     S
V57     V58    10.29   .     S
V57     V59    10.29   .     S
V57     V66    10.29   1_455     S
V57     V67    10.29   1_455     S
V58     Er235    10.59   .     S
V58     V59    10.29   .     S
V58     V64    10.29   1_545     S
V58     V65    10.29   1_545     S
V59     Er236    10.59   .     S
V59     V61    10.29   1_554     S
V59     V62    10.29   1_554     S
V60     Er217    10.59   .     S
V60     V62    10.29   1_655     S
V60     V67    10.29   1_556     S
V60     V63    10.29   1_645     S
V60     V68    10.29   1_546     S
V61     Er227    10.59   .     S
V61     V59    10.29   1_556     S
V61     V62    10.29   .     S
V61     V63    10.29   1_545     S
V61     V65    10.29   1_546     S
V62     Er228    10.59   .     S
V62     V60    10.29   1_455     S
V62     V67    10.29   1_456     S
V62     V59    10.29   1_556     S
V63     Er216    10.59   .     S
V63     V60    10.29   1_465     S
V63     V68    10.29   1_456     S
V63     V61    10.29   1_565     S
V63     V65    10.29   1_556     S
V64     Er226    10.59   .     S
V64     V58    10.29   1_565     S
V64     V65    10.29   .     S
V64     V68    10.29   1_455     S
V64     V66    10.29   1_465     S
V65     Er229    10.59   .     S
V65     V63    10.29   1_554     S
V65     V61    10.29   1_564     S
V65     V58    10.29   1_565     S
V66     Er225    10.59   .     S
V66     V57    10.29   1_655     S
V66     V67    10.29   .     S
V66     V68    10.29   1_545     S
V66     V64    10.29   1_645     S
V67     Er230    10.59   .     S
V67     V60    10.29   1_554     S
V67     V62    10.29   1_654     S
V67     V57    10.29   1_655     S
V68     Er218    10.59   .     S
V68     V63    10.29   1_654     S
V68     V60    10.29   1_564     S
V68     V66    10.29   1_565     S
V68     V64    10.29   1_655     S
Ti69     Er233    10.3   .     S
Ti69     Ce71    8.75   .     S
Ti69     Ti70    8.638   .     S
Ti70     Er233    10.3   .     S
Ti70     Ce72    8.75   .     S
Ce71     Ce79    9.216   .     S
Ce71     Ce75    9.216   .     S
Ce71     S201    9.785   .     S
Ce71     S203    9.785   .     S
Ce72     Ce87    9.216   .     S
Ce72     Ce91    9.216   .     S
Ce72     S165    9.785   .     S
Ce72     S172    9.785   .     S
Ti73     Er232    10.3   .     S
Ti73     Ce75    8.75   .     S
Ti73     Ti74    8.638   .     S
Ti74     Er232    10.3   .     S
Ti74     Ce76    8.75   .     S
Ce75     Ce79    9.216   .     S
Ce75     S202    9.785   .     S
Ce75     S211    9.785   .     S
Ce76     Ce103    9.216   .     S
Ce76     Ce83    9.216   .     S
Ce76     S168    9.785   .     S
Ce76     S175    9.785   .     S
Ti77     Er231    10.3   .     S
Ti77     Ce80    8.75   .     S
Ti77     Ti78    8.638   .     S
Ti78     Er231    10.3   .     S
Ti78     Ce79    8.75   .     S
Ce79     S204    9.785   .     S
Ce79     S206    9.785   .     S
Ce80     Ce99    9.216   .     S
Ce80     Ce95    9.216   .     S
Ce80     S170    9.785   .     S
Ce80     S173    9.785   .     S
Ti81     Er224    10.3   .     S
Ti81     Ce83    8.75   .     S
Ti81     Ti82    8.638   .     S
Ti82     Er224    10.3   .     S
Ti82     Ce84    8.75   .     S
Ce83     Ce103    9.216   .     S
Ce83     S209    9.785   .     S
Ce83     S182    9.785   .     S
Ce84     Ce111    9.216   .     S
Ce84     Ce88    9.216   .     S
Ce84     S183    9.785   .     S
Ce84     S171    9.785   .     S
Ti85     Er219    10.3   .     S
Ti85     Ce87    8.75   .     S
Ti85     Ti86    8.638   .     S
Ti86     Er219    10.3   .     S
Ti86     Ce88    8.75   .     S
Ce87     Ce91    9.216   .     S
Ce87     S207    9.785   .     S
Ce87     S180    9.785   .     S
Ce88     Ce111    9.216   .     S
Ce88     S196    9.785   .     S
Ce88     S169    9.785   .     S
Ti89     Er220    10.3   .     S
Ti89     Ce92    8.75   .     S
Ti89     Ti90    8.638   .     S
Ti90     Er220    10.3   .     S
Ti90     Ce91    8.75   .     S
Ce91     S210    9.785   .     S
Ce91     S178    9.785   .     S
Ce92     Ce115    9.216   .     S
Ce92     Ce96    9.216   .     S
Ce92     S186    9.785   .     S
Ce92     S176    9.785   .     S
Ti93     Er223    10.3   .     S
Ti93     Ce95    8.75   .     S
Ti93     Ti94    8.638   .     S
Ti94     Er223    10.3   .     S
Ti94     Ce96    8.75   .     S
Ce95     Ce99    9.216   .     S
Ce95     S205    9.785   .     S
Ce95     S193    9.785   .     S
Ce96     Ce115    9.216   .     S
Ce96     S192    9.785   .     S
Ce96     S166    9.785   .     S
Ti97     Er221    10.3   .     S
Ti97     Ce100    8.75   .     S
Ti97     Ti98    8.638   .     S
Ti98     Er221    10.3   .     S
Ti98     Ce99    8.75   .     S
Ce99     S212    9.785   .     S
Ce99     S177    9.785   .     S
Ce100     Ce107    9.216   .     S
Ce100     Ce104    9.216   .     S
Ce100     S190    9.785   .     S
Ce100     S174    9.785   .     S
Ti101     Er222    10.3   .     S
Ti101     Ce104    8.75   .     S
Ti101     Ti102    8.638   .     S
Ti102     Er222    10.3   .     S
Ti102     Ce103    8.75   .     S
Ce103     S208    9.785   .     S
Ce103     S179    9.785   .     S
Ce104     Ce107    9.216   .     S
Ce104     S199    9.785   .     S
Ce104     S167    9.785   .     S
Ti105     Er215    10.3   .     S
Ti105     Ce108    8.75   .     S
Ti105     Ti106    8.638   .     S
Ti106     Er215    10.3   .     S
Ti106     Ce107    8.75   .     S
Ce107     S181    9.785   .     S
Ce107     S194    9.785   .     S
Ce108     Ce116    9.216   .     S
Ce108     Ce112    9.216   .     S
Ce108     S184    9.785   .     S
Ce108     S191    9.785   .     S
Ti109     Er213    10.3   .     S
Ti109     Ce112    8.75   .     S
Ti109     Ti110    8.638   .     S
Ti110     Er213    10.3   .     S
Ti110     Ce111    8.75   .     S
Ce111     S185    9.785   .     S
Ce111     S200    9.785   .     S
Ce112     Ce116    9.216   .     S
Ce112     S189    9.785   .     S
Ce112     S195    9.785   .     S
Ti113     Er214    10.3   .     S
Ti113     Ce115    8.75   .     S
Ti113     Ti114    8.638   .     S
Ti114     Er214    10.3   .     S
Ti114     Ce116    8.75   .     S
Ce115     S188    9.785   .     S
Ce115     S197    9.785   .     S
Ce116     S187    9.785   .     S
Ce116     S198    9.785   .     S
Ti117     Er218    10.3   1_556     S
Ti117     Ce120    8.75   .     S
Ti117     Ti118    8.638   1_556     S
Ti118     Er218    10.3   .     S
Ti118     Ce119    8.75   .     S
Ti118     Ti117    8.638   1_554     S
Ce119     Ce132    9.216   .     S
Ce119     Ce136    9.216   .     S
Ce119     S190    9.785   .     S
Ce119     S199    9.785   .     S
Ce120     Ce128    9.216   .     S
Ce120     Ce124    9.216   .     S
Ce120     S189    9.785   .     S
Ce120     S198    9.785   .     S
Ti121     Er217    10.3   1_565     S
Ti121     Ce124    8.75   .     S
Ti121     Ti122    8.638   1_565     S
Ti122     Er217    10.3   .     S
Ti122     Ce123    8.75   .     S
Ti122     Ti121    8.638   1_545     S
Ce123     Ce140    9.216   .     S
Ce123     Ce144    9.216   .     S
Ce123     S186    9.785   .     S
Ce123     S192    9.785   .     S
Ce124     Ce128    9.216   .     S
Ce124     S184    9.785   .     S
Ce124     S195    9.785   .     S
Ti125     Er216    10.3   1_655     S
Ti125     Ce128    8.75   .     S
Ti125     Ti126    8.638   1_655     S
Ti126     Er216    10.3   .     S
Ti126     Ce127    8.75   .     S
Ti126     Ti125    8.638   1_455     S
Ce127     Ce148    9.216   .     S
Ce127     Ce152    9.216   .     S
Ce127     S183    9.785   .     S
Ce127     S196    9.785   .     S
Ce128     S187    9.785   .     S
Ce128     S191    9.785   .     S
Ti129     Er225    10.3   1_565     S
Ti129     Ce132    8.75   .     S
Ti129     Ti130    8.638   1_565     S
Ti130     Er225    10.3   .     S
Ti130     Ce131    8.75   .     S
Ti130     Ti129    8.638   1_545     S
Ce131     Ce139    9.216   .     S
Ce131     Ce164    9.216   .     S
Ce131     S205    9.785   .     S
Ce131     S173    9.785   .     S
Ce132     Ce136    9.216   .     S
Ce132     S194    9.785   .     S
Ce132     S167    9.785   .     S
Ti133     Er226    10.3   1_655     S
Ti133     Ce136    8.75   .     S
Ti133     Ti134    8.638   1_655     S
Ti134     Er226    10.3   .     S
Ti134     Ce135    8.75   .     S
Ti134     Ti133    8.638   1_455     S
Ce135     Ce147    9.216   .     S
Ce135     Ce160    9.216   .     S
Ce135     S209    9.785   .     S
Ce135     S168    9.785   .     S
Ce136     S181    9.785   .     S
Ce136     S174    9.785   .     S
Ti137     Er230    10.3   1_556     S
Ti137     Ce140    8.75   .     S
Ti137     Ti138    8.638   1_556     S
Ti138     Er230    10.3   .     S
Ti138     Ce139    8.75   .     S
Ti138     Ti137    8.638   1_554     S
Ce139     Ce164    9.216   .     S
Ce139     S212    9.785   .     S
Ce139     S170    9.785   .     S
Ce140     Ce144    9.216   .     S
Ce140     S188    9.785   .     S
Ce140     S176    9.785   .     S
Ti141     Er228    10.3   1_655     S
Ti141     Ce144    8.75   .     S
Ti141     Ti142    8.638   1_655     S
Ti142     Er228    10.3   .     S
Ti142     Ce143    8.75   .     S
Ti142     Ti141    8.638   1_455     S
Ce143     Ce151    9.216   .     S
Ce143     Ce156    9.216   .     S
Ce143     S207    9.785   .     S
Ce143     S172    9.785   .     S
Ce144     S197    9.785   .     S
Ce144     S166    9.785   .     S
Ti145     Er229    10.3   1_556     S
Ti145     Ce148    8.75   .     S
Ti145     Ti146    8.638   1_556     S
Ti146     Er229    10.3   .     S
Ti146     Ce147    8.75   .     S
Ti146     Ti145    8.638   1_554     S
Ce147     Ce160    9.216   .     S
Ce147     S208    9.785   .     S
Ce147     S175    9.785   .     S
Ce148     Ce152    9.216   .     S
Ce148     S200    9.785   .     S
Ce148     S169    9.785   .     S
Ti149     Er227    10.3   1_565     S
Ti149     Ce152    8.75   .     S
Ti149     Ti150    8.638   1_565     S
Ti150     Er227    10.3   .     S
Ti150     Ce151    8.75   .     S
Ti150     Ti149    8.638   1_545     S
Ce151     Ce156    9.216   .     S
Ce151     S210    9.785   .     S
Ce151     S165    9.785   .     S
Ce152     S185    9.785   .     S
Ce152     S171    9.785   .     S
Ti153     Er236    10.3   1_556     S
Ti153     Ce156    8.75   .     S
Ti153     Ti154    8.638   1_556     S
Ti154     Er236    10.3   .     S
Ti154     Ce155    8.75   .     S
Ti154     Ti153    8.638   1_554     S
Ce155     Ce159    9.216   .     S
Ce155     Ce163    9.216   .     S
Ce155     S202    9.785   .     S
Ce155     S204    9.785   .     S
Ce156     S178    9.785   .     S
Ce156     S180    9.785   .     S
Ti157     Er235    10.3   1_565     S
Ti157     Ce160    8.75   .     S
Ti157     Ti158    8.638   1_565     S
Ti158     Er235    10.3   .     S
Ti158     Ce159    8.75   .     S
Ti158     Ti157    8.638   1_545     S
Ce159     Ce163    9.216   .     S
Ce159     S206    9.785   .     S
Ce159     S203    9.785   .     S
Ce160     S182    9.785   .     S
Ce160     S179    9.785   .     S
Ti161     Er234    10.3   1_655     S
Ti161     Ce164    8.75   .     S
Ti161     Ti162    8.638   1_655     S
Ti162     Er234    10.3   .     S
Ti162     Ce163    8.75   .     S
Ti162     Ti161    8.638   1_455     S
Ce163     S201    9.785   .     S
Ce163     S211    9.785   .     S
Ce164     S177    9.785   .     S
Ce164     S193    9.785   .     S
S165     S172    10.926   .     S
S165     S210    10.926   .     S
S166     H240    10.812   .     S
S166     S192    10.926   .     S
S166     S197    10.926   .     S
S167     S199    10.926   .     S
S167     S194    10.926   .     S
S168     S175    10.926   .     S
S168     S209    10.926   .     S
S169     S196    10.926   .     S
S169     S200    10.926   .     S
S170     S173    10.926   .     S
S170     S212    10.926   .     S
S171     S183    10.926   .     S
S171     S185    10.926   .     S
S172     H238    10.812   .     S
S172     S207    10.926   .     S
S173     S205    10.926   .     S
S174     S190    10.926   .     S
S174     S181    10.926   .     S
S175     S208    10.926   .     S
S176     S186    10.926   .     S
S176     S188    10.926   .     S
S177     S212    10.926   .     S
S177     S193    10.926   .     S
S178     S210    10.926   .     S
S178     S180    10.926   .     S
S179     S208    10.926   .     S
S179     S182    10.926   .     S
S180     S207    10.926   .     S
S181     S194    10.926   .     S
S182     S209    10.926   .     S
S183     S196    10.926   .     S
S184     S195    10.926   .     S
S184     S191    10.926   .     S
S185     S200    10.926   .     S
S186     S192    10.926   .     S
S187     S191    10.926   .     S
S187     S198    10.926   .     S
S188     S197    10.926   .     S
S189     S198    10.926   .     S
S189     S195    10.926   .     S
S190     S199    10.926   .     S
S193     H239    10.812   .     S
S193     S205    10.926   .     S
S201     H237    10.812   .     S
S201     S203    10.926   .     S
S201     S211    10.926   .     S
S202     S211    10.926   .     S
S202     S204    10.926   .     S
S203     S206    10.926   .     S
S204     S206    10.926   .     S
Er216     Ti125    10.3   1_455     S
Er217     Ti121    10.3   1_545     S
Er218     Ti117    10.3   1_554     S
Er225     Ti129    10.3   1_545     S
Er226     Ti133    10.3   1_455     S
Er227     Ti149    10.3   1_545     S
Er228     Ti141    10.3   1_455     S
Er229     Ti145    10.3   1_554     S
Er230     Ti137    10.3   1_554     S
Er234     Ti161    10.3   1_455     S
Er235     Ti157    10.3   1_545     S
Er236     Ti153    10.3   1_554     S
H237     H238    10.524   .     S
H237     H239    10.524   1_455     S
H238     H240    10.524   1_455     S
H239     H237    10.524   1_655     S
H239     H240    10.524   .     S
H240     H238    10.524   1_655     S
