data_anae
_audit_creation_date              2020-02-04
_audit_creation_method            'Pymatgen'
_symmetry_space_group_name_H-M    'P1'
_symmetry_Int_Tables_number       1
loop_
_symmetry_equiv_pos_as_xyz
  x,y,z
_cell_length_a                    51.6134
_cell_length_b                    51.6134
_cell_length_c                    51.6134
_cell_angle_alpha                 90.0
_cell_angle_beta                 90.0
_cell_angle_gamma                 90.0
loop_
_atom_site_label
_atom_site_type_symbol
_atom_site_fract_x
_atom_site_fract_y
_atom_site_fract_z
V1     V     0.1181   0.3583   0.0284
V2     V     0.1319   0.2216   0.8917
V3     V     0.2216   0.3917   0.8681
V4     V     0.3583   0.5284   0.8819
V5     V     0.9716   0.3819   0.3583
V6     V     0.1083   0.3681   0.2216
V7     V     0.1417   0.5284   0.1181
V8     V     0.2784   0.3917   0.1319
V9     V     0.3681   0.2216   0.1083
V10     V     0.3819   0.3583   0.9716
V11     V     0.6417   0.5284   0.3819
V12     V     0.7784   0.3917   0.3681
V13     V     0.4716   0.1181   0.6417
V14     V     0.6083   0.1319   0.7784
V15     V     0.2216   0.1083   0.3681
V16     V     0.3583   0.9716   0.3819
V17     V     0.5284   0.8819   0.3583
V18     V     0.3917   0.8681   0.2216
V19     V     0.3583   0.0284   0.1181
V20     V     0.2216   0.8917   0.1319
V21     V     0.1181   0.1417   0.5284
V22     V     0.1319   0.2784   0.3917
V23     V     0.5284   0.1181   0.1417
V24     V     0.3917   0.1319   0.2784
V25     V     0.0284   0.1181   0.3583
V26     V     0.8917   0.1319   0.2216
V27     V     0.8819   0.3583   0.5284
V28     V     0.8681   0.2216   0.3917
V29     V     0.1181   0.8583   0.9716
V30     V     0.1319   0.7216   0.1083
V31     V     0.3819   0.1417   0.4716
V32     V     0.3681   0.2784   0.6083
V33     V     0.3819   0.8583   0.0284
V34     V     0.3681   0.7216   0.8917
V35     V     0.2784   0.1083   0.6319
V36     V     0.1417   0.9716   0.6181
V37     V     0.1083   0.8681   0.7784
V38     V     0.9716   0.8819   0.6417
V39     V     0.1417   0.0284   0.8819
V40     V     0.2784   0.8917   0.8681
V41     V     0.1083   0.1319   0.7216
V42     V     0.9716   0.1181   0.8583
V43     V     0.3583   0.4716   0.6181
V44     V     0.2216   0.6083   0.6319
V45     V     0.5284   0.3819   0.6417
V46     V     0.3917   0.3681   0.7784
V47     V     0.6181   0.3583   0.4716
V48     V     0.6319   0.2216   0.6083
V49     V     0.3681   0.7784   0.3917
V50     V     0.3819   0.6417   0.5284
V51     V     0.4716   0.6181   0.3583
V52     V     0.6083   0.6319   0.2216
V53     V     0.8819   0.8583   0.4716
V54     V     0.8681   0.7216   0.6083
V55     V     0.1319   0.7784   0.6083
V56     V     0.1181   0.6417   0.4716
V57     V     0.0284   0.6181   0.6417
V58     V     0.8917   0.6319   0.7784
V59     V     0.8583   0.5284   0.6181
V60     V     0.7216   0.3917   0.6319
V61     V     0.4716   0.3819   0.1417
V62     V     0.6083   0.3681   0.2784
V63     V     0.0284   0.3819   0.8583
V64     V     0.8917   0.3681   0.7216
V65     V     0.7216   0.6083   0.8681
V66     V     0.8583   0.4716   0.8819
V67     V     0.7216   0.1083   0.1319
V68     V     0.8583   0.9716   0.1181
V69     V     0.6181   0.1417   0.9716
V70     V     0.6319   0.2784   0.1083
V71     V     0.8819   0.1417   0.0284
V72     V     0.8681   0.2784   0.8917
V73     V     0.7784   0.1083   0.8681
V74     V     0.6417   0.9716   0.8819
V75     V     0.6417   0.4716   0.1181
V76     V     0.7784   0.6083   0.1319
V77     V     0.6181   0.6417   0.0284
V78     V     0.6319   0.7784   0.8917
V79     V     0.5284   0.6181   0.8583
V80     V     0.3917   0.6319   0.7216
V81     V     0.4716   0.8819   0.8583
V82     V     0.6083   0.8681   0.7216
V83     V     0.8583   0.0284   0.3819
V84     V     0.7216   0.8917   0.3681
V85     V     0.0284   0.8819   0.1417
V86     V     0.8917   0.8681   0.2784
V87     V     0.8681   0.7784   0.1083
V88     V     0.8819   0.6417   0.9716
V89     V     0.1083   0.6319   0.2784
V90     V     0.9716   0.6181   0.1417
V91     V     0.1417   0.4716   0.3819
V92     V     0.2784   0.6083   0.3681
V93     V     0.6417   0.0284   0.6181
V94     V     0.7784   0.8917   0.6319
V95     V     0.6181   0.8583   0.5284
V96     V     0.6319   0.7216   0.3917
loop_
_geom_bond_atom_site_label_1
_geom_bond_atom_site_label_2
_geom_bond_distance
_geom_bond_site_symmetry_2
_ccdc_geom_bond_type
V1     V63    10.0   1_554     S
V1     V3    10.0   1_554     S
V1     V2    10.0   1_554     S
V1     V7    10.0   .     S
V1     V8    10.0   .     S
V1     V6    10.0   .     S
V2     V3    10.0   .     S
V2     V63    10.0   .     S
V2     V1    10.0   1_556     S
V2     V39    10.0   .     S
V2     V42    10.0   1_455     S
V2     V41    10.0   .     S
V3     V63    10.0   .     S
V3     V1    10.0   1_556     S
V3     V10    10.0   .     S
V3     V46    10.0   .     S
V3     V4    10.0   .     S
V4     V46    10.0   .     S
V4     V10    10.0   .     S
V4     V79    10.0   .     S
V4     V80    10.0   .     S
V4     V34    10.0   .     S
V5     V91    10.0   1_655     S
V5     V6    10.0   1_655     S
V5     V22    10.0   1_655     S
V5     V12    10.0   .     S
V5     V28    10.0   .     S
V5     V27    10.0   .     S
V6     V5    10.0   1_455     S
V6     V22    10.0   .     S
V6     V91    10.0   .     S
V6     V7    10.0   .     S
V6     V8    10.0   .     S
V7     V8    10.0   .     S
V7     V89    10.0   .     S
V7     V30    10.0   .     S
V7     V90    10.0   1_455     S
V8     V9    10.0   .     S
V8     V61    10.0   .     S
V8     V10    10.0   1_554     S
V9     V61    10.0   .     S
V9     V10    10.0   1_554     S
V9     V19    10.0   .     S
V9     V23    10.0   .     S
V9     V24    10.0   .     S
V10     V46    10.0   .     S
V10     V8    10.0   1_556     S
V10     V61    10.0   1_556     S
V10     V9    10.0   1_556     S
V11     V47    10.0   .     S
V11     V62    10.0   .     S
V11     V12    10.0   .     S
V11     V51    10.0   .     S
V11     V52    10.0   .     S
V11     V96    10.0   .     S
V12     V47    10.0   .     S
V12     V62    10.0   .     S
V12     V27    10.0   .     S
V12     V28    10.0   .     S
V13     V93    10.0   .     S
V13     V48    10.0   .     S
V13     V14    10.0   .     S
V13     V31    10.0   .     S
V13     V35    10.0   .     S
V13     V32    10.0   .     S
V14     V93    10.0   .     S
V14     V48    10.0   .     S
V14     V73    10.0   .     S
V14     V74    10.0   1_545     S
V14     V69    10.0   .     S
V15     V24    10.0   .     S
V15     V31    10.0   .     S
V15     V16    10.0   1_545     S
V15     V25    10.0   .     S
V15     V21    10.0   .     S
V15     V22    10.0   .     S
V16     V24    10.0   1_565     S
V16     V31    10.0   1_565     S
V16     V15    10.0   1_565     S
V16     V17    10.0   .     S
V16     V49    10.0   .     S
V16     V18    10.0   .     S
V17     V49    10.0   .     S
V17     V18    10.0   .     S
V17     V95    10.0   .     S
V17     V84    10.0   .     S
V17     V96    10.0   .     S
V18     V49    10.0   .     S
V18     V19    10.0   1_565     S
V18     V33    10.0   .     S
V18     V20    10.0   .     S
V19     V33    10.0   1_545     S
V19     V18    10.0   1_545     S
V19     V20    10.0   1_545     S
V19     V23    10.0   .     S
V19     V24    10.0   .     S
V20     V33    10.0   .     S
V20     V19    10.0   1_565     S
V20     V85    10.0   .     S
V20     V29    10.0   1_554     S
V20     V30    10.0   .     S
V21     V25    10.0   .     S
V21     V22    10.0   .     S
V21     V36    10.0   1_545     S
V21     V35    10.0   .     S
V21     V41    10.0   .     S
V22     V5    10.0   1_455     S
V22     V91    10.0   .     S
V22     V25    10.0   .     S
V23     V24    10.0   .     S
V23     V69    10.0   1_554     S
V23     V67    10.0   .     S
V23     V70    10.0   .     S
V24     V31    10.0   .     S
V24     V16    10.0   1_545     S
V25     V83    10.0   1_455     S
V25     V28    10.0   1_455     S
V25     V26    10.0   1_455     S
V26     V83    10.0   .     S
V26     V28    10.0   .     S
V26     V25    10.0   1_655     S
V26     V67    10.0   .     S
V26     V71    10.0   .     S
V26     V68    10.0   1_545     S
V27     V28    10.0   .     S
V27     V59    10.0   .     S
V27     V60    10.0   .     S
V27     V64    10.0   .     S
V28     V25    10.0   1_655     S
V28     V83    10.0   .     S
V29     V85    10.0   1_556     S
V29     V20    10.0   1_556     S
V29     V30    10.0   1_556     S
V29     V39    10.0   1_565     S
V29     V37    10.0   .     S
V29     V40    10.0   .     S
V30     V85    10.0   .     S
V30     V29    10.0   1_554     S
V30     V90    10.0   1_455     S
V30     V89    10.0   .     S
V31     V16    10.0   1_545     S
V31     V35    10.0   .     S
V31     V32    10.0   .     S
V32     V35    10.0   .     S
V32     V43    10.0   .     S
V32     V45    10.0   .     S
V32     V46    10.0   .     S
V33     V19    10.0   1_565     S
V33     V81    10.0   1_554     S
V33     V40    10.0   1_554     S
V33     V34    10.0   1_554     S
V34     V81    10.0   .     S
V34     V40    10.0   .     S
V34     V33    10.0   1_556     S
V34     V79    10.0   .     S
V34     V80    10.0   .     S
V35     V41    10.0   .     S
V35     V36    10.0   1_545     S
V36     V35    10.0   1_565     S
V36     V21    10.0   1_565     S
V36     V41    10.0   1_565     S
V36     V38    10.0   1_455     S
V36     V55    10.0   .     S
V36     V37    10.0   .     S
V37     V55    10.0   .     S
V37     V38    10.0   1_455     S
V37     V40    10.0   .     S
V37     V39    10.0   1_565     S
V38     V37    10.0   1_655     S
V38     V36    10.0   1_655     S
V38     V55    10.0   1_655     S
V38     V53    10.0   .     S
V38     V94    10.0   .     S
V38     V54    10.0   .     S
V39     V29    10.0   1_545     S
V39     V37    10.0   1_545     S
V39     V40    10.0   1_545     S
V39     V41    10.0   .     S
V39     V42    10.0   1_455     S
V40     V81    10.0   .     S
V40     V33    10.0   1_556     S
V40     V39    10.0   1_565     S
V41     V36    10.0   1_545     S
V41     V42    10.0   1_455     S
V42     V2    10.0   1_655     S
V42     V39    10.0   1_655     S
V42     V41    10.0   1_655     S
V42     V71    10.0   1_556     S
V42     V73    10.0   .     S
V42     V72    10.0   .     S
V43     V50    10.0   .     S
V43     V80    10.0   .     S
V43     V44    10.0   .     S
V43     V45    10.0   .     S
V43     V46    10.0   .     S
V44     V50    10.0   .     S
V44     V80    10.0   .     S
V44     V55    10.0   .     S
V44     V57    10.0   .     S
V44     V56    10.0   .     S
V45     V46    10.0   .     S
V45     V47    10.0   .     S
V45     V48    10.0   .     S
V45     V60    10.0   .     S
V47     V62    10.0   .     S
V47     V48    10.0   .     S
V47     V60    10.0   .     S
V48     V93    10.0   .     S
V48     V60    10.0   .     S
V49     V92    10.0   .     S
V49     V51    10.0   .     S
V49     V50    10.0   .     S
V50     V80    10.0   .     S
V50     V92    10.0   .     S
V50     V51    10.0   .     S
V51     V92    10.0   .     S
V51     V52    10.0   .     S
V51     V96    10.0   .     S
V52     V96    10.0   .     S
V52     V77    10.0   .     S
V52     V75    10.0   .     S
V52     V76    10.0   .     S
V53     V94    10.0   .     S
V53     V54    10.0   .     S
V53     V83    10.0   1_565     S
V53     V84    10.0   .     S
V53     V86    10.0   .     S
V54     V94    10.0   .     S
V54     V59    10.0   .     S
V54     V57    10.0   1_655     S
V54     V58    10.0   .     S
V55     V38    10.0   1_455     S
V55     V57    10.0   .     S
V55     V56    10.0   .     S
V56     V57    10.0   .     S
V56     V91    10.0   .     S
V56     V92    10.0   .     S
V56     V89    10.0   .     S
V57     V59    10.0   1_455     S
V57     V54    10.0   1_455     S
V57     V58    10.0   1_455     S
V58     V59    10.0   .     S
V58     V57    10.0   1_655     S
V58     V66    10.0   .     S
V58     V88    10.0   .     S
V58     V65    10.0   .     S
V59     V57    10.0   1_655     S
V59     V64    10.0   .     S
V59     V60    10.0   .     S
V60     V64    10.0   .     S
V61     V10    10.0   1_554     S
V61     V75    10.0   .     S
V61     V70    10.0   .     S
V61     V62    10.0   .     S
V62     V70    10.0   .     S
V62     V75    10.0   .     S
V63     V1    10.0   1_556     S
V63     V66    10.0   1_455     S
V63     V72    10.0   1_455     S
V63     V64    10.0   1_455     S
V64     V72    10.0   .     S
V64     V66    10.0   .     S
V64     V63    10.0   1_655     S
V65     V88    10.0   .     S
V65     V66    10.0   .     S
V65     V79    10.0   .     S
V65     V77    10.0   1_556     S
V65     V78    10.0   .     S
V66     V63    10.0   1_655     S
V66     V72    10.0   .     S
V66     V88    10.0   .     S
V67     V71    10.0   .     S
V67     V68    10.0   1_545     S
V67     V69    10.0   1_554     S
V67     V70    10.0   .     S
V68     V71    10.0   1_565     S
V68     V26    10.0   1_565     S
V68     V67    10.0   1_565     S
V68     V85    10.0   1_655     S
V68     V87    10.0   .     S
V68     V86    10.0   .     S
V69     V23    10.0   1_556     S
V69     V67    10.0   1_556     S
V69     V70    10.0   1_556     S
V69     V74    10.0   1_545     S
V69     V73    10.0   .     S
V70     V75    10.0   .     S
V70     V69    10.0   1_554     S
V71     V68    10.0   1_545     S
V71     V42    10.0   1_554     S
V71     V73    10.0   1_554     S
V71     V72    10.0   1_554     S
V72     V63    10.0   1_655     S
V72     V73    10.0   .     S
V72     V71    10.0   1_556     S
V73     V71    10.0   1_556     S
V73     V74    10.0   1_545     S
V74     V73    10.0   1_565     S
V74     V69    10.0   1_565     S
V74     V14    10.0   1_565     S
V74     V81    10.0   .     S
V74     V82    10.0   .     S
V74     V78    10.0   .     S
V75     V77    10.0   .     S
V75     V76    10.0   .     S
V76     V77    10.0   .     S
V76     V87    10.0   .     S
V76     V90    10.0   .     S
V76     V88    10.0   1_554     S
V77     V79    10.0   1_554     S
V77     V65    10.0   1_554     S
V77     V78    10.0   1_554     S
V78     V79    10.0   .     S
V78     V77    10.0   1_556     S
V78     V81    10.0   .     S
V78     V82    10.0   .     S
V79     V77    10.0   1_556     S
V79     V80    10.0   .     S
V81     V33    10.0   1_556     S
V81     V82    10.0   .     S
V82     V95    10.0   .     S
V82     V93    10.0   1_565     S
V82     V94    10.0   .     S
V83     V25    10.0   1_655     S
V83     V53    10.0   1_545     S
V83     V86    10.0   1_545     S
V83     V84    10.0   1_545     S
V84     V86    10.0   .     S
V84     V83    10.0   1_565     S
V84     V95    10.0   .     S
V84     V96    10.0   .     S
V85     V29    10.0   1_554     S
V85     V68    10.0   1_455     S
V85     V87    10.0   1_455     S
V85     V86    10.0   1_455     S
V86     V83    10.0   1_565     S
V86     V87    10.0   .     S
V86     V85    10.0   1_655     S
V87     V85    10.0   1_655     S
V87     V88    10.0   1_554     S
V87     V90    10.0   .     S
V88     V87    10.0   1_556     S
V88     V90    10.0   1_556     S
V88     V76    10.0   1_556     S
V89     V90    10.0   1_455     S
V89     V92    10.0   .     S
V89     V91    10.0   .     S
V90     V88    10.0   1_554     S
V90     V30    10.0   1_655     S
V90     V7    10.0   1_655     S
V90     V89    10.0   1_655     S
V91     V5    10.0   1_455     S
V91     V92    10.0   .     S
V93     V95    10.0   1_545     S
V93     V82    10.0   1_545     S
V93     V94    10.0   1_545     S
V94     V95    10.0   .     S
V94     V93    10.0   1_565     S
V95     V93    10.0   1_565     S
V95     V96    10.0   .     S
