data_anaf
_audit_creation_date              2020-02-04
_audit_creation_method            'Pymatgen'
_symmetry_space_group_name_H-M    'P1'
_symmetry_Int_Tables_number       1
loop_
_symmetry_equiv_pos_as_xyz
  x,y,z
_cell_length_a                    102.5596
_cell_length_b                    102.5596
_cell_length_c                    102.5596
_cell_angle_alpha                 90.0
_cell_angle_beta                 90.0
_cell_angle_gamma                 90.0
loop_
_atom_site_label
_atom_site_type_symbol
_atom_site_fract_x
_atom_site_fract_y
_atom_site_fract_z
V1     V     0.5936   0.0594   0.6503
Er2     Er     0.5296   0.1293   0.6275
V3     V     0.5997   0.1906   0.6564
Er4     Er     0.6225   0.1207   0.7204
V5     V     0.4064   0.4406   0.6503
Er6     Er     0.4704   0.3707   0.6274
V7     V     0.4003   0.3094   0.6564
Er8     Er     0.3774   0.3793   0.7204
V9     V     0.6906   0.3436   0.5997
Er10     Er     0.6207   0.2796   0.6226
V11     V     0.5594   0.3497   0.5936
Er12     Er     0.6293   0.3726   0.5296
V13     V     0.8436   0.4003   0.6906
Er14     Er     0.7796   0.3774   0.6207
V15     V     0.8497   0.4064   0.5594
Er16     Er     0.8726   0.4704   0.6293
V17     V     0.1503   0.4064   0.0594
Er18     Er     0.1275   0.4704   0.1293
V19     V     0.1564   0.4003   0.1906
Er20     Er     0.2204   0.3774   0.1207
V21     V     0.3094   0.3436   0.0997
Er22     Er     0.3793   0.2796   0.1226
V23     V     0.4406   0.3497   0.0936
Er24     Er     0.3707   0.3726   0.0296
V25     V     0.3497   0.4064   0.9406
Er26     Er     0.3726   0.4704   0.8707
V27     V     0.3436   0.4003   0.8094
Er28     Er     0.2796   0.3775   0.8793
V29     V     0.9003   0.3094   0.8436
Er30     Er     0.8774   0.3793   0.7796
V31     V     0.9064   0.4406   0.8497
Er32     Er     0.9704   0.3707   0.8726
V33     V     0.0594   0.3497   0.9064
Er34     Er     0.1293   0.3726   0.9704
V35     V     0.1906   0.3436   0.9003
Er36     Er     0.1207   0.2796   0.8774
V37     V     0.5997   0.6906   0.3436
Er38     Er     0.6226   0.6207   0.2796
V39     V     0.5936   0.5594   0.3497
Er40     Er     0.5296   0.6293   0.3726
V41     V     0.6906   0.8436   0.4003
Er42     Er     0.6207   0.7796   0.3774
V43     V     0.5594   0.8497   0.4064
Er44     Er     0.6293   0.8726   0.4704
V45     V     0.0997   0.3094   0.3436
Er46     Er     0.1226   0.3793   0.2796
V47     V     0.0936   0.4406   0.3497
Er48     Er     0.0296   0.3707   0.3726
V49     V     0.9406   0.3497   0.4064
Er50     Er     0.8707   0.3726   0.4704
V51     V     0.8094   0.3436   0.4003
Er52     Er     0.8793   0.2796   0.3775
V53     V     0.0594   0.1503   0.4064
Er54     Er     0.1293   0.1275   0.4704
V55     V     0.1906   0.1564   0.4003
Er56     Er     0.1207   0.2204   0.3774
V57     V     0.9064   0.0594   0.3497
Er58     Er     0.9704   0.1293   0.3726
V59     V     0.9003   0.1906   0.3436
Er60     Er     0.8774   0.1207   0.2796
V61     V     0.8436   0.9003   0.3094
Er62     Er     0.7796   0.8774   0.3793
V63     V     0.8497   0.9064   0.4406
Er64     Er     0.8726   0.9704   0.3707
V65     V     0.5997   0.3094   0.1564
Er66     Er     0.6226   0.3793   0.2204
V67     V     0.5936   0.4406   0.1503
Er68     Er     0.5296   0.3707   0.1275
V69     V     0.6503   0.4064   0.4406
Er70     Er     0.6274   0.4704   0.3707
V71     V     0.6564   0.4003   0.3094
Er72     Er     0.7204   0.3774   0.3793
V73     V     0.6503   0.5936   0.0594
Er74     Er     0.6275   0.5296   0.1293
V75     V     0.6564   0.5997   0.1906
Er76     Er     0.7204   0.6225   0.1207
V77     V     0.4406   0.6503   0.4064
Er78     Er     0.3707   0.6274   0.4704
V79     V     0.3094   0.6564   0.4003
Er80     Er     0.3793   0.7204   0.3774
V81     V     0.1564   0.5997   0.3094
Er82     Er     0.2204   0.6226   0.3793
V83     V     0.1503   0.5936   0.4406
Er84     Er     0.1275   0.5296   0.3707
V85     V     0.0594   0.6503   0.5936
Er86     Er     0.1293   0.6274   0.5296
V87     V     0.1906   0.6564   0.5997
Er88     Er     0.1207   0.7204   0.6225
V89     V     0.3094   0.1564   0.5997
Er90     Er     0.3793   0.2204   0.6225
V91     V     0.4406   0.1503   0.5936
Er92     Er     0.3707   0.1275   0.5296
V93     V     0.3436   0.5997   0.6906
Er94     Er     0.2796   0.6225   0.6207
V95     V     0.3497   0.5936   0.5594
Er96     Er     0.3726   0.5296   0.6293
V97     V     0.4003   0.6906   0.8436
Er98     Er     0.3774   0.6207   0.7796
V99     V     0.4064   0.5594   0.8497
Er100     Er     0.4704   0.6293   0.8726
V101     V     0.6564   0.9003   0.6906
Er102     Er     0.7204   0.8774   0.6207
V103     V     0.6503   0.9064   0.5594
Er104     Er     0.6275   0.9704   0.6293
V105     V     0.6906   0.6564   0.9003
Er106     Er     0.6207   0.7204   0.8774
V107     V     0.5594   0.6503   0.9064
Er108     Er     0.6293   0.6275   0.9704
V109     V     0.9064   0.5594   0.6503
Er110     Er     0.9704   0.6293   0.6275
V111     V     0.9003   0.6906   0.6564
Er112     Er     0.8774   0.6207   0.7204
V113     V     0.0936   0.9406   0.6503
Er114     Er     0.0296   0.8707   0.6274
V115     V     0.0997   0.8094   0.6564
Er116     Er     0.1226   0.8793   0.7204
V117     V     0.9406   0.8497   0.5936
Er118     Er     0.8707   0.8726   0.5296
V119     V     0.8094   0.8436   0.5997
Er120     Er     0.8793   0.7796   0.6225
V121     V     0.9406   0.6503   0.0936
Er122     Er     0.8707   0.6275   0.0296
V123     V     0.8094   0.6564   0.0997
Er124     Er     0.8793   0.7204   0.1226
V125     V     0.8497   0.5936   0.9406
Er126     Er     0.8726   0.5296   0.8707
V127     V     0.8436   0.5997   0.8094
Er128     Er     0.7796   0.6225   0.8793
V129     V     0.4064   0.0594   0.1503
Er130     Er     0.4704   0.1293   0.1275
V131     V     0.4003   0.1906   0.1564
Er132     Er     0.3774   0.1207   0.2204
V133     V     0.3436   0.0997   0.3094
Er134     Er     0.2796   0.1226   0.3793
V135     V     0.3497   0.0936   0.4406
Er136     Er     0.3726   0.0296   0.3707
V137     V     0.4064   0.9406   0.3497
Er138     Er     0.4704   0.8707   0.3726
V139     V     0.4003   0.8094   0.3436
Er140     Er     0.3774   0.8793   0.2796
V141     V     0.3497   0.9064   0.0594
Er142     Er     0.3726   0.9704   0.1293
V143     V     0.3436   0.9003   0.1906
Er144     Er     0.2796   0.8774   0.1207
V145     V     0.9406   0.1503   0.9064
Er146     Er     0.8707   0.1274   0.9704
V147     V     0.8094   0.1564   0.9003
Er148     Er     0.8793   0.2204   0.8774
V149     V     0.6503   0.0936   0.9406
Er150     Er     0.6275   0.0296   0.8707
V151     V     0.6564   0.0997   0.8094
Er152     Er     0.7204   0.1226   0.8793
V153     V     0.5936   0.9406   0.8497
Er154     Er     0.5296   0.8707   0.8726
V155     V     0.5997   0.8094   0.8436
Er156     Er     0.6225   0.8793   0.7796
V157     V     0.3094   0.8436   0.9003
Er158     Er     0.3793   0.7796   0.8774
V159     V     0.4406   0.8497   0.9064
Er160     Er     0.3707   0.8726   0.9704
V161     V     0.8436   0.0997   0.1906
Er162     Er     0.7796   0.1226   0.1207
V163     V     0.8497   0.0936   0.0594
Er164     Er     0.8726   0.0296   0.1293
V165     V     0.6906   0.1564   0.0997
Er166     Er     0.6207   0.2204   0.1226
V167     V     0.5594   0.1503   0.0937
Er168     Er     0.6293   0.1274   0.0296
V169     V     0.1564   0.0997   0.6906
Er170     Er     0.2204   0.1226   0.6207
V171     V     0.1503   0.0937   0.5594
Er172     Er     0.1274   0.0296   0.6293
V173     V     0.1503   0.9064   0.9406
Er174     Er     0.1274   0.9704   0.8707
V175     V     0.1564   0.9003   0.8094
Er176     Er     0.2204   0.8774   0.8793
V177     V     0.0997   0.1906   0.8436
Er178     Er     0.1226   0.1207   0.7796
V179     V     0.0936   0.0594   0.8497
Er180     Er     0.0296   0.1293   0.8726
V181     V     0.0936   0.5594   0.1503
Er182     Er     0.0296   0.6293   0.1274
V183     V     0.0997   0.6906   0.1564
Er184     Er     0.1226   0.6207   0.2204
V185     V     0.9064   0.9406   0.1503
Er186     Er     0.9704   0.8707   0.1274
V187     V     0.9003   0.8094   0.1564
Er188     Er     0.8774   0.8793   0.2204
V189     V     0.1906   0.8436   0.0997
Er190     Er     0.1207   0.7796   0.1226
V191     V     0.0594   0.8497   0.0936
Er192     Er     0.1293   0.8726   0.0296
loop_
_geom_bond_atom_site_label_1
_geom_bond_atom_site_label_2
_geom_bond_distance
_geom_bond_site_symmetry_2
_ccdc_geom_bond_type
V1     Er104    10.0   1_545     S
V1     Er2    9.999   .     S
V1     Er4    10.0   .     S
Er2     V3    10.0   .     S
Er2     V91    10.0   .     S
V3     Er10    10.0   .     S
V3     Er4    9.999   .     S
Er4     V151    10.0   .     S
V5     Er96    10.0   .     S
V5     Er6    9.999   .     S
V5     Er8    10.0   .     S
Er6     V7    10.0   .     S
Er6     V11    10.0   .     S
V7     Er90    10.0   .     S
V7     Er8    9.999   .     S
Er8     V27    10.0   .     S
V9     Er14    10.0   .     S
V9     Er10    9.999   .     S
V9     Er12    10.0   .     S
Er10     V11    10.0   .     S
V11     Er12    9.999   .     S
Er12     V69    10.0   .     S
V13     Er30    10.0   .     S
V13     Er14    9.999   .     S
V13     Er16    10.0   .     S
Er14     V15    10.0   .     S
V15     Er50    10.0   .     S
V15     Er16    9.999   .     S
Er16     V109    10.0   .     S
V17     Er34    10.0   1_554     S
V17     Er18    9.999   .     S
V17     Er20    10.0   .     S
Er18     V19    10.0   .     S
Er18     V181    10.0   .     S
V19     Er46    10.0   .     S
V19     Er20    9.999   .     S
Er20     V21    10.0   .     S
V21     Er22    9.999   .     S
V21     Er24    10.0   .     S
Er22     V23    10.0   .     S
Er22     V131    10.0   .     S
V23     Er68    10.0   .     S
V23     Er24    9.999   .     S
Er24     V25    10.0   1_554     S
V25     Er24    10.0   1_556     S
V25     Er26    9.999   .     S
V25     Er28    10.0   .     S
Er26     V27    10.0   .     S
Er26     V99    10.0   .     S
V27     Er28    9.999   .     S
Er28     V35    10.0   .     S
V29     Er148    10.0   .     S
V29     Er30    9.999   .     S
V29     Er32    10.0   .     S
Er30     V31    10.0   .     S
V31     Er126    10.0   .     S
V31     Er32    9.999   .     S
Er32     V33    10.0   1_655     S
V33     Er32    10.0   1_455     S
V33     Er34    9.999   .     S
V33     Er36    10.0   .     S
Er34     V17    10.0   1_556     S
Er34     V35    10.0   .     S
V35     Er36    9.999   .     S
Er36     V177    10.0   .     S
V37     Er42    10.0   .     S
V37     Er38    9.999   .     S
V37     Er40    10.0   .     S
Er38     V39    10.0   .     S
Er38     V75    10.0   .     S
V39     Er70    10.0   .     S
V39     Er40    9.999   .     S
Er40     V77    10.0   .     S
V41     Er62    10.0   .     S
V41     Er42    9.999   .     S
V41     Er44    10.0   .     S
Er42     V43    10.0   .     S
V43     Er138    10.0   .     S
V43     Er44    9.999   .     S
Er44     V103    10.0   .     S
V45     Er56    10.0   .     S
V45     Er46    9.999   .     S
V45     Er48    10.0   .     S
Er46     V47    10.0   .     S
V47     Er84    10.0   .     S
V47     Er48    9.999   .     S
Er48     V49    10.0   1_455     S
V49     Er48    10.0   1_655     S
V49     Er50    9.999   .     S
V49     Er52    10.0   .     S
Er50     V51    10.0   .     S
V51     Er72    10.0   .     S
V51     Er52    9.999   .     S
Er52     V59    10.0   .     S
V53     Er58    10.0   1_455     S
V53     Er54    9.999   .     S
V53     Er56    10.0   .     S
Er54     V55    10.0   .     S
Er54     V171    10.0   .     S
V55     Er134    10.0   .     S
V55     Er56    9.999   .     S
V57     Er64    10.0   1_545     S
V57     Er58    9.999   .     S
V57     Er60    10.0   .     S
Er58     V53    10.0   1_655     S
Er58     V59    10.0   .     S
V59     Er60    9.999   .     S
Er60     V161    10.0   .     S
V61     Er188    10.0   .     S
V61     Er62    9.999   .     S
V61     Er64    10.0   .     S
Er62     V63    10.0   .     S
V63     Er118    10.0   .     S
V63     Er64    9.999   .     S
Er64     V57    10.0   1_565     S
V65     Er166    10.0   .     S
V65     Er66    9.999   .     S
V65     Er68    10.0   .     S
Er66     V67    10.0   .     S
Er66     V71    10.0   .     S
V67     Er74    10.0   .     S
V67     Er68    9.999   .     S
V69     Er70    9.999   .     S
V69     Er72    10.0   .     S
Er70     V71    10.0   .     S
V71     Er72    9.999   .     S
V73     Er108    10.0   1_554     S
V73     Er74    9.999   .     S
V73     Er76    10.0   .     S
Er74     V75    10.0   .     S
V75     Er76    9.999   .     S
Er76     V123    10.0   .     S
V77     Er78    9.999   .     S
V77     Er80    10.0   .     S
Er78     V79    10.0   .     S
Er78     V95    10.0   .     S
V79     Er82    10.0   .     S
V79     Er80    9.999   .     S
Er80     V139    10.0   .     S
V81     Er184    10.0   .     S
V81     Er82    9.999   .     S
V81     Er84    10.0   .     S
Er82     V83    10.0   .     S
V83     Er86    10.0   .     S
V83     Er84    9.999   .     S
V85     Er110    10.0   1_455     S
V85     Er86    9.999   .     S
V85     Er88    10.0   .     S
Er86     V87    10.0   .     S
V87     Er94    10.0   .     S
V87     Er88    9.999   .     S
Er88     V115    10.0   .     S
V89     Er170    10.0   .     S
V89     Er90    9.999   .     S
V89     Er92    10.0   .     S
Er90     V91    10.0   .     S
V91     Er92    9.999   .     S
Er92     V135    10.0   .     S
V93     Er98    10.0   .     S
V93     Er94    9.999   .     S
V93     Er96    10.0   .     S
Er94     V95    10.0   .     S
V95     Er96    9.999   .     S
V97     Er158    10.0   .     S
V97     Er98    9.999   .     S
V97     Er100    10.0   .     S
Er98     V99    10.0   .     S
V99     Er100    9.999   .     S
Er100     V107    10.0   .     S
V101     Er156    10.0   .     S
V101     Er102    9.999   .     S
V101     Er104    10.0   .     S
Er102     V103    10.0   .     S
Er102     V119    10.0   .     S
V103     Er104    9.999   .     S
Er104     V1    10.0   1_565     S
V105     Er128    10.0   .     S
V105     Er106    9.999   .     S
V105     Er108    10.0   .     S
Er106     V107    10.0   .     S
Er106     V155    10.0   .     S
V107     Er108    9.999   .     S
Er108     V73    10.0   1_556     S
V109     Er110    9.999   .     S
V109     Er112    10.0   .     S
Er110     V85    10.0   1_655     S
Er110     V111    10.0   .     S
V111     Er120    10.0   .     S
V111     Er112    9.999   .     S
Er112     V127    10.0   .     S
V113     Er172    10.0   1_565     S
V113     Er114    9.999   .     S
V113     Er116    10.0   .     S
Er114     V115    10.0   .     S
Er114     V117    10.0   1_455     S
V115     Er116    9.999   .     S
Er116     V175    10.0   .     S
V117     Er114    10.0   1_655     S
V117     Er118    9.999   .     S
V117     Er120    10.0   .     S
Er118     V119    10.0   .     S
V119     Er120    9.999   .     S
V121     Er182    10.0   1_655     S
V121     Er122    9.999   .     S
V121     Er124    10.0   .     S
Er122     V123    10.0   .     S
Er122     V125    10.0   1_554     S
V123     Er124    9.999   .     S
Er124     V187    10.0   .     S
V125     Er122    10.0   1_556     S
V125     Er126    9.999   .     S
V125     Er128    10.0   .     S
Er126     V127    10.0   .     S
V127     Er128    9.999   .     S
V129     Er142    10.0   1_545     S
V129     Er130    9.999   .     S
V129     Er132    10.0   .     S
Er130     V131    10.0   .     S
Er130     V167    10.0   .     S
V131     Er132    9.999   .     S
Er132     V133    10.0   .     S
V133     Er134    9.999   .     S
V133     Er136    10.0   .     S
Er134     V135    10.0   .     S
V135     Er136    9.999   .     S
Er136     V137    10.0   1_545     S
V137     Er136    10.0   1_565     S
V137     Er138    9.999   .     S
V137     Er140    10.0   .     S
Er138     V139    10.0   .     S
V139     Er140    9.999   .     S
Er140     V143    10.0   .     S
V141     Er160    10.0   1_554     S
V141     Er142    9.999   .     S
V141     Er144    10.0   .     S
Er142     V129    10.0   1_565     S
Er142     V143    10.0   .     S
V143     Er144    9.999   .     S
Er144     V189    10.0   .     S
V145     Er180    10.0   1_655     S
V145     Er146    9.999   .     S
V145     Er148    10.0   .     S
Er146     V147    10.0   .     S
Er146     V163    10.0   1_556     S
V147     Er152    10.0   .     S
V147     Er148    9.999   .     S
V149     Er168    10.0   1_556     S
V149     Er150    9.999   .     S
V149     Er152    10.0   .     S
Er150     V151    10.0   .     S
Er150     V153    10.0   1_545     S
V151     Er152    9.999   .     S
V153     Er150    10.0   1_565     S
V153     Er154    9.999   .     S
V153     Er156    10.0   .     S
Er154     V155    10.0   .     S
Er154     V159    10.0   .     S
V155     Er156    9.999   .     S
V157     Er176    10.0   .     S
V157     Er158    9.999   .     S
V157     Er160    10.0   .     S
Er158     V159    10.0   .     S
V159     Er160    9.999   .     S
Er160     V141    10.0   1_556     S
V161     Er162    9.999   .     S
V161     Er164    10.0   .     S
Er162     V163    10.0   .     S
Er162     V165    10.0   .     S
V163     Er146    10.0   1_554     S
V163     Er164    9.999   .     S
Er164     V185    10.0   1_545     S
V165     Er166    9.999   .     S
V165     Er168    10.0   .     S
Er166     V167    10.0   .     S
V167     Er168    9.999   .     S
Er168     V149    10.0   1_554     S
V169     Er178    10.0   .     S
V169     Er170    9.999   .     S
V169     Er172    10.0   .     S
Er170     V171    10.0   .     S
V171     Er172    9.999   .     S
Er172     V113    10.0   1_545     S
V173     Er192    10.0   1_556     S
V173     Er174    9.999   .     S
V173     Er176    10.0   .     S
Er174     V175    10.0   .     S
Er174     V179    10.0   1_565     S
V175     Er176    9.999   .     S
V177     Er178    9.999   .     S
V177     Er180    10.0   .     S
Er178     V179    10.0   .     S
V179     Er174    10.0   1_545     S
V179     Er180    9.999   .     S
Er180     V145    10.0   1_455     S
V181     Er182    9.999   .     S
V181     Er184    10.0   .     S
Er182     V121    10.0   1_455     S
Er182     V183    10.0   .     S
V183     Er190    10.0   .     S
V183     Er184    9.999   .     S
V185     Er164    10.0   1_565     S
V185     Er186    9.999   .     S
V185     Er188    10.0   .     S
Er186     V187    10.0   .     S
Er186     V191    10.0   1_655     S
V187     Er188    9.999   .     S
V189     Er190    9.999   .     S
V189     Er192    10.0   .     S
Er190     V191    10.0   .     S
V191     Er186    10.0   1_455     S
V191     Er192    9.999   .     S
Er192     V173    10.0   1_554     S
