data_apo
_audit_creation_date              2020-02-04
_audit_creation_method            'Pymatgen'
_symmetry_space_group_name_H-M    'P1'
_symmetry_Int_Tables_number       1
loop_
_symmetry_equiv_pos_as_xyz
  x,y,z
_cell_length_a                    23.5416
_cell_length_b                    27.8941
_cell_length_c                    25.2233
_cell_angle_alpha                 90.0
_cell_angle_beta                 90.0
_cell_angle_gamma                 90.0
loop_
_atom_site_label
_atom_site_type_symbol
_atom_site_fract_x
_atom_site_fract_y
_atom_site_fract_z
V1     V     0.1998   0.8572   0.4001
V2     V     0.8002   0.8572   0.0999
Er3     Er     0.0   0.857   0.75
V4     V     0.3002   0.6427   0.9001
V5     V     0.6998   0.6427   0.5999
Er6     Er     0.5   0.643   0.25
V7     V     0.3002   0.3572   0.4001
V8     V     0.6998   0.3572   0.0999
Er9     Er     0.5   0.357   0.75
V10     V     0.1998   0.1427   0.9001
V11     V     0.8002   0.1427   0.5999
Er12     Er     0.0   0.143   0.25
loop_
_geom_bond_atom_site_label_1
_geom_bond_atom_site_label_2
_geom_bond_distance
_geom_bond_site_symmetry_2
_ccdc_geom_bond_type
V1     Er6    10.0   .     S
V1     Er3    10.0   .     S
V1     Er12    10.0   1_565     S
V2     Er6    10.0   .     S
V2     Er3    10.0   1_654     S
V2     Er12    10.0   1_665     S
Er3     V2    10.0   1_456     S
Er3     V10    10.0   1_565     S
Er3     V11    10.0   1_465     S
Er3     V4    10.0   .     S
Er3     V5    10.0   1_455     S
V4     Er6    10.0   1_556     S
V4     Er9    10.0   .     S
V5     Er3    10.0   1_655     S
V5     Er6    10.0   .     S
V5     Er9    10.0   .     S
Er6     V4    10.0   1_554     S
Er6     V8    10.0   .     S
Er6     V7    10.0   .     S
V7     Er12    10.0   .     S
V7     Er9    10.0   .     S
V8     Er12    10.0   1_655     S
V8     Er9    10.0   1_554     S
Er9     V8    10.0   1_556     S
Er9     V10    10.0   .     S
Er9     V11    10.0   .     S
V10     Er3    10.0   1_545     S
V10     Er12    10.0   1_556     S
V11     Er3    10.0   1_645     S
V11     Er12    10.0   1_655     S
Er12     V8    10.0   1_455     S
Er12     V10    10.0   1_554     S
Er12     V11    10.0   1_455     S
Er12     V2    10.0   1_445     S
Er12     V1    10.0   1_545     S
