data_asea
_audit_creation_date              2020-02-04
_audit_creation_method            'Pymatgen'
_symmetry_space_group_name_H-M    'P1'
_symmetry_Int_Tables_number       1
loop_
_symmetry_equiv_pos_as_xyz
  x,y,z
_cell_length_a                    74.2871
_cell_length_b                    74.2871
_cell_length_c                    36.2047
_cell_angle_alpha                 90.0
_cell_angle_beta                 90.0
_cell_angle_gamma                 120.0
loop_
_atom_site_label
_atom_site_type_symbol
_atom_site_fract_x
_atom_site_fract_y
_atom_site_fract_z
Ce1     Ce     0.9223   0.8446   0.6382
Ce2     Ce     0.0777   0.9223   0.6382
Ce3     Ce     0.9223   0.0777   0.6382
Ce4     Ce     0.0777   0.1554   0.6382
Ce5     Ce     0.1554   0.0777   0.6382
Ce6     Ce     0.8446   0.9223   0.6382
Ce7     Ce     0.9223   0.0777   0.3618
Ce8     Ce     0.1554   0.0777   0.3618
Ce9     Ce     0.0777   0.1554   0.3618
Ce10     Ce     0.9223   0.8446   0.3618
Ce11     Ce     0.0777   0.9223   0.3618
Ce12     Ce     0.8446   0.9223   0.3618
Er13     Er     0.2456   0.8889   0.0
Er14     Er     0.1111   0.7544   0.0
V15     V     0.1234   0.8766   0.138
V16     V     0.1234   0.8766   0.862
Er17     Er     0.6433   0.8889   0.0
Er18     Er     0.6433   0.7544   0.0
V19     V     0.7532   0.8766   0.138
V20     V     0.7532   0.8766   0.862
Ti21     Ti     0.6062   0.5285   0.0
Ti22     Ti     0.5285   0.6062   0.0
Ti23     Ti     0.4715   0.3938   0.0
Ti24     Ti     0.3938   0.4715   0.0
Er25     Er     0.8889   0.6433   0.0
Er26     Er     0.7544   0.6433   0.0
V27     V     0.8766   0.7532   0.138
V28     V     0.8766   0.7532   0.862
Ti29     Ti     0.3938   0.9224   0.0
Ti30     Ti     0.4715   0.0776   0.0
Ti31     Ti     0.5285   0.9224   0.0
Ti32     Ti     0.6062   0.0776   0.0
Er33     Er     0.8889   0.2456   0.0
Er34     Er     0.7544   0.1111   0.0
V35     V     0.8766   0.1234   0.138
V36     V     0.8766   0.1234   0.862
Er37     Er     0.3567   0.2456   0.0
Er38     Er     0.3567   0.1111   0.0
V39     V     0.2468   0.1234   0.138
V40     V     0.2468   0.1234   0.862
Er41     Er     0.2456   0.3567   0.0
Er42     Er     0.1111   0.3567   0.0
V43     V     0.1234   0.2468   0.138
V44     V     0.1234   0.2468   0.862
Ti45     Ti     0.0776   0.6062   0.0
Ti46     Ti     0.9224   0.5285   0.0
Ti47     Ti     0.9224   0.3938   0.0
Ti48     Ti     0.0776   0.4715   0.0
loop_
_geom_bond_atom_site_label_1
_geom_bond_atom_site_label_2
_geom_bond_distance
_geom_bond_site_symmetry_2
_ccdc_geom_bond_type
Ce1     Ce2    10.0   1_655     S
Ce1     Ce6    10.0   .     S
Ce1     Ce10    10.005   .     S
Ce1     V28    10.009   .     S
Ce2     V16    10.009   .     S
Ce2     Ce1    10.0   1_455     S
Ce2     Ce5    10.0   1_565     S
Ce2     Ce11    10.005   .     S
Ce3     V36    10.009   .     S
Ce3     Ce4    10.0   1_655     S
Ce3     Ce6    10.0   1_545     S
Ce3     Ce7    10.005   .     S
Ce4     Ce3    10.0   1_455     S
Ce4     Ce5    10.0   .     S
Ce4     Ce9    10.005   .     S
Ce4     V44    10.009   .     S
Ce5     Ce2    10.0   1_545     S
Ce5     Ce8    10.005   .     S
Ce5     V40    10.009   .     S
Ce6     Ce3    10.0   1_565     S
Ce6     Ce12    10.005   .     S
Ce6     V20    10.009   .     S
Ce7     V35    10.009   .     S
Ce7     Ce9    10.0   1_655     S
Ce7     Ce12    10.0   1_545     S
Ce8     Ce9    10.0   .     S
Ce8     Ce11    10.0   1_545     S
Ce8     V39    10.009   .     S
Ce9     Ce7    10.0   1_455     S
Ce9     V43    10.009   .     S
Ce10     Ce11    10.0   1_655     S
Ce10     Ce12    10.0   .     S
Ce10     V27    10.009   .     S
Ce11     V15    10.009   .     S
Ce11     Ce8    10.0   1_565     S
Ce11     Ce10    10.0   1_455     S
Ce12     Ce7    10.0   1_565     S
Ce12     V19    10.009   .     S
Er13     Er14    9.989   .     S
Er13     V15    9.996   .     S
Er13     V16    9.996   1_554     S
Er13     Ti29    10.005   .     S
Er14     V15    9.996   .     S
Er14     V16    9.996   1_554     S
Er14     Ti45    10.005   .     S
V15     V16    9.996   1_554     S
V16     Er14    9.996   1_556     S
V16     Er13    9.996   1_556     S
V16     V15    9.996   1_556     S
Er17     Er18    9.989   .     S
Er17     V20    9.996   1_554     S
Er17     V19    9.996   .     S
Er17     Ti31    10.005   .     S
Er18     V20    9.996   1_554     S
Er18     V19    9.996   .     S
Er18     Ti22    10.005   .     S
V19     V20    9.996   1_554     S
V20     Er17    9.996   1_556     S
V20     Er18    9.996   1_556     S
V20     V19    9.996   1_556     S
Ti21     Ti22    9.991   .     S
Ti21     Ti23    10.004   .     S
Ti21     Er26    10.005   .     S
Ti22     Ti24    10.004   .     S
Ti23     Ti24    9.991   .     S
Ti23     Er37    10.005   .     S
Ti24     Er41    10.005   .     S
Er25     Er26    9.989   .     S
Er25     V28    9.996   1_554     S
Er25     V27    9.996   .     S
Er25     Ti46    10.005   .     S
Er26     V28    9.996   1_554     S
Er26     V27    9.996   .     S
V27     V28    9.996   1_554     S
V28     Er26    9.996   1_556     S
V28     Er25    9.996   1_556     S
V28     V27    9.996   1_556     S
Ti29     Ti30    9.991   1_565     S
Ti29     Ti31    10.004   .     S
Ti30     Ti29    9.991   1_545     S
Ti30     Ti32    10.004   .     S
Ti30     Er38    10.005   .     S
Ti31     Ti32    9.991   1_565     S
Ti32     Ti31    9.991   1_545     S
Ti32     Er34    10.005   .     S
Er33     Er34    9.989   .     S
Er33     V35    9.996   .     S
Er33     V36    9.996   1_554     S
Er33     Ti47    10.005   .     S
Er34     V35    9.996   .     S
Er34     V36    9.996   1_554     S
V35     V36    9.996   1_554     S
V36     Er33    9.996   1_556     S
V36     Er34    9.996   1_556     S
V36     V35    9.996   1_556     S
Er37     Er38    9.989   .     S
Er37     V39    9.996   .     S
Er37     V40    9.996   1_554     S
Er38     V39    9.996   .     S
Er38     V40    9.996   1_554     S
V39     V40    9.996   1_554     S
V40     Er38    9.996   1_556     S
V40     Er37    9.996   1_556     S
V40     V39    9.996   1_556     S
Er41     Er42    9.989   .     S
Er41     V43    9.996   .     S
Er41     V44    9.996   1_554     S
Er42     V43    9.996   .     S
Er42     V44    9.996   1_554     S
Er42     Ti48    10.005   .     S
V43     V44    9.996   1_554     S
V44     Er41    9.996   1_556     S
V44     Er42    9.996   1_556     S
V44     V43    9.996   1_556     S
Ti45     Ti46    9.991   1_455     S
Ti45     Ti48    10.004   .     S
Ti46     Ti45    9.991   1_655     S
Ti46     Ti47    10.004   .     S
Ti47     Ti48    9.991   1_655     S
Ti48     Ti47    9.991   1_455     S
