data_asfa
_audit_creation_date              2020-02-04
_audit_creation_method            'Pymatgen'
_symmetry_space_group_name_H-M    'P1'
_symmetry_Int_Tables_number       1
loop_
_symmetry_equiv_pos_as_xyz
  x,y,z
_cell_length_a                    101.189
_cell_length_b                    101.189
_cell_length_c                    71.3002
_cell_angle_alpha                 90.0
_cell_angle_beta                 90.0
_cell_angle_gamma                 90.0
loop_
_atom_site_label
_atom_site_type_symbol
_atom_site_fract_x
_atom_site_fract_y
_atom_site_fract_z
V1     V     0.272   0.7994   0.8128
V2     V     0.272   0.7006   0.8128
V3     V     0.228   0.7994   0.6872
V4     V     0.228   0.7006   0.6872
V5     V     0.0494   0.522   0.5628
V6     V     0.9506   0.522   0.5628
V7     V     0.0494   0.478   0.4372
V8     V     0.9506   0.478   0.4372
Er9     Er     0.2047   0.3848   0.3752
Er10     Er     0.1348   0.4547   0.3748
Ti11     Ti     0.2191   0.4692   0.4451
Ti12     Ti     0.2192   0.4691   0.3049
Er13     Er     0.1348   0.5453   0.6252
Er14     Er     0.2047   0.6152   0.6248
Ti15     Ti     0.2192   0.5309   0.6951
Ti16     Ti     0.2191   0.5308   0.5549
Er17     Er     0.3652   0.4547   0.1252
Er18     Er     0.2953   0.3848   0.1248
Ti19     Ti     0.2809   0.4692   0.0549
Ti20     Ti     0.2808   0.4691   0.1951
Er21     Er     0.3652   0.5453   0.8748
Er22     Er     0.2953   0.6152   0.8752
Ti23     Ti     0.2808   0.5309   0.8049
Ti24     Ti     0.2809   0.5308   0.9451
V25     V     0.5494   0.522   0.9372
V26     V     0.4506   0.522   0.9372
V27     V     0.5494   0.478   0.0628
V28     V     0.4506   0.478   0.0628
V29     V     0.728   0.7994   0.8128
V30     V     0.728   0.7006   0.8128
V31     V     0.772   0.7994   0.6872
V32     V     0.772   0.7006   0.6872
Er33     Er     0.7953   0.3848   0.3752
Er34     Er     0.8652   0.4547   0.3748
Ti35     Ti     0.7809   0.4692   0.4451
Ti36     Ti     0.7808   0.4691   0.3049
Er37     Er     0.8652   0.5453   0.6252
Er38     Er     0.7953   0.6152   0.6248
Ti39     Ti     0.7808   0.5309   0.6951
Ti40     Ti     0.7809   0.5308   0.5549
Er41     Er     0.7047   0.3848   0.1248
Er42     Er     0.6348   0.4547   0.1252
Ti43     Ti     0.7191   0.4692   0.0549
Ti44     Ti     0.7192   0.4691   0.1951
Er45     Er     0.6348   0.5453   0.8748
Er46     Er     0.7047   0.6152   0.8752
Ti47     Ti     0.7192   0.5309   0.8049
Ti48     Ti     0.7191   0.5308   0.9451
Er49     Er     0.7953   0.8848   0.6248
Er50     Er     0.8652   0.9547   0.6252
Ti51     Ti     0.7808   0.9691   0.6951
Ti52     Ti     0.7809   0.9692   0.5549
Er53     Er     0.7953   0.1152   0.3752
Er54     Er     0.8652   0.0453   0.3748
Ti55     Ti     0.7809   0.0308   0.4451
Ti56     Ti     0.7808   0.0309   0.3049
Er57     Er     0.7047   0.1152   0.1248
Er58     Er     0.6348   0.0453   0.1251
Ti59     Ti     0.7191   0.0308   0.0549
Ti60     Ti     0.7192   0.0309   0.1951
Er61     Er     0.7047   0.8848   0.8752
Er62     Er     0.6348   0.9547   0.8748
Ti63     Ti     0.7192   0.9691   0.8049
Ti64     Ti     0.7191   0.9692   0.9451
V65     V     0.728   0.2006   0.1872
V66     V     0.728   0.2994   0.1872
V67     V     0.772   0.2006   0.3128
V68     V     0.772   0.2994   0.3128
V69     V     0.272   0.2006   0.1872
V70     V     0.272   0.2994   0.1872
V71     V     0.228   0.2006   0.3128
V72     V     0.228   0.2994   0.3128
V73     V     0.0494   0.022   0.4372
V74     V     0.9506   0.022   0.4372
V75     V     0.0494   0.978   0.5628
V76     V     0.9506   0.978   0.5628
Er77     Er     0.2047   0.1152   0.3752
Er78     Er     0.1348   0.0453   0.3748
Ti79     Ti     0.2191   0.0308   0.4451
Ti80     Ti     0.2192   0.0309   0.3049
Er81     Er     0.2047   0.8848   0.6248
Er82     Er     0.1348   0.9547   0.6252
Ti83     Ti     0.2192   0.9691   0.6951
Ti84     Ti     0.2191   0.9692   0.5549
Er85     Er     0.3652   0.0453   0.1252
Er86     Er     0.2953   0.1152   0.1248
Ti87     Ti     0.2808   0.0309   0.1951
Ti88     Ti     0.2809   0.0308   0.0549
Er89     Er     0.3652   0.9547   0.8748
Er90     Er     0.2953   0.8848   0.8752
Ti91     Ti     0.2808   0.9691   0.8049
Ti92     Ti     0.2809   0.9692   0.9451
V93     V     0.5494   0.978   0.9372
V94     V     0.4506   0.978   0.9372
V95     V     0.5494   0.022   0.0628
V96     V     0.4506   0.022   0.0628
loop_
_geom_bond_atom_site_label_1
_geom_bond_atom_site_label_2
_geom_bond_distance
_geom_bond_site_symmetry_2
_ccdc_geom_bond_type
V1     V2    9.999   .     S
V1     V3    10.001   .     S
V1     Er90    10.0   .     S
V2     V4    10.001   .     S
V2     Er22    10.0   .     S
V3     V4    9.999   .     S
V3     Er81    10.0   .     S
V4     Er14    10.0   .     S
V5     V6    9.999   1_455     S
V5     V7    10.001   .     S
V5     Er13    10.0   .     S
V6     V5    9.999   1_655     S
V6     V8    10.001   .     S
V6     Er37    10.0   .     S
V7     V8    9.999   1_455     S
V7     Er10    10.0   .     S
V8     V7    9.999   1_655     S
V8     Er34    10.0   .     S
Er9     Ti12    9.999   .     S
Er9     Er10    10.0   .     S
Er9     Ti11    9.999   .     S
Er9     V72    10.0   .     S
Er10     Ti11    9.999   .     S
Er10     Ti12    9.999   .     S
Ti11     Ti16    10.0   .     S
Ti11     Ti12    10.001   .     S
Ti12     Ti20    10.0   .     S
Er13     Ti16    9.999   .     S
Er13     Ti15    9.999   .     S
Er13     Er14    10.0   .     S
Er14     Ti16    9.999   .     S
Er14     Ti15    9.999   .     S
Ti15     Ti23    10.0   .     S
Ti15     Ti16    10.001   .     S
Er17     Ti19    9.999   .     S
Er17     Er18    10.0   .     S
Er17     Ti20    9.999   .     S
Er17     V28    10.0   .     S
Er18     Ti20    9.999   .     S
Er18     Ti19    9.999   .     S
Er18     V70    10.0   .     S
Ti19     Ti24    10.0   1_554     S
Ti19     Ti20    10.001   .     S
Er21     Ti24    9.999   .     S
Er21     Ti23    9.999   .     S
Er21     Er22    10.0   .     S
Er21     V26    10.0   .     S
Er22     Ti24    9.999   .     S
Er22     Ti23    9.999   .     S
Ti23     Ti24    10.001   .     S
Ti24     Ti19    10.0   1_556     S
V25     V26    9.999   .     S
V25     V27    10.001   1_556     S
V25     Er45    10.0   .     S
V26     V28    10.001   1_556     S
V27     V28    9.999   .     S
V27     V25    10.001   1_554     S
V27     Er42    10.0   .     S
V28     V26    10.001   1_554     S
V29     V30    9.999   .     S
V29     V31    10.001   .     S
V29     Er61    10.0   .     S
V30     V32    10.001   .     S
V30     Er46    10.0   .     S
V31     V32    9.999   .     S
V31     Er49    10.0   .     S
V32     Er38    10.0   .     S
Er33     Ti36    9.999   .     S
Er33     Er34    10.0   .     S
Er33     Ti35    9.999   .     S
Er33     V68    10.0   .     S
Er34     Ti35    9.999   .     S
Er34     Ti36    9.999   .     S
Ti35     Ti40    10.0   .     S
Ti35     Ti36    10.001   .     S
Ti36     Ti44    10.0   .     S
Er37     Ti40    9.999   .     S
Er37     Ti39    9.999   .     S
Er37     Er38    10.0   .     S
Er38     Ti39    9.999   .     S
Er38     Ti40    9.999   .     S
Ti39     Ti47    10.0   .     S
Ti39     Ti40    10.001   .     S
Er41     Ti44    9.999   .     S
Er41     Er42    10.0   .     S
Er41     Ti43    9.999   .     S
Er41     V66    10.0   .     S
Er42     Ti43    9.999   .     S
Er42     Ti44    9.999   .     S
Ti43     Ti48    10.0   1_554     S
Ti43     Ti44    10.001   .     S
Er45     Ti48    9.999   .     S
Er45     Ti47    9.999   .     S
Er45     Er46    10.0   .     S
Er46     Ti47    9.999   .     S
Er46     Ti48    9.999   .     S
Ti47     Ti48    10.001   .     S
Ti48     Ti43    10.0   1_556     S
Er49     Ti51    9.999   .     S
Er49     Er50    10.0   .     S
Er49     Ti52    9.999   .     S
Er50     Ti51    9.999   .     S
Er50     Ti52    9.999   .     S
Er50     V76    10.0   .     S
Ti51     Ti63    10.0   .     S
Ti51     Ti52    10.001   .     S
Ti52     Ti55    10.0   1_565     S
Er53     Ti56    9.999   .     S
Er53     Er54    10.0   .     S
Er53     Ti55    9.999   .     S
Er53     V67    10.0   .     S
Er54     Ti55    9.999   .     S
Er54     Ti56    9.999   .     S
Er54     V74    10.0   .     S
Ti55     Ti52    10.0   1_545     S
Ti55     Ti56    10.001   .     S
Ti56     Ti60    10.0   .     S
Er57     Ti60    9.999   .     S
Er57     Er58    10.0   .     S
Er57     Ti59    9.999   .     S
Er57     V65    10.0   .     S
Er58     Ti60    9.999   .     S
Er58     Ti59    9.999   .     S
Er58     V95    10.0   .     S
Ti59     Ti64    10.0   1_544     S
Ti59     Ti60    10.001   .     S
Er61     Ti63    9.999   .     S
Er61     Ti64    9.999   .     S
Er61     Er62    10.0   .     S
Er62     Ti64    9.999   .     S
Er62     Ti63    9.999   .     S
Er62     V93    10.0   .     S
Ti63     Ti64    10.001   .     S
Ti64     Ti59    10.0   1_566     S
V65     V66    9.999   .     S
V65     V67    10.001   .     S
V66     V68    10.001   .     S
V67     V68    9.999   .     S
V69     V70    9.999   .     S
V69     V71    10.001   .     S
V69     Er86    10.0   .     S
V70     V72    10.001   .     S
V71     V72    9.999   .     S
V71     Er77    10.0   .     S
V73     V74    9.999   1_455     S
V73     V75    10.001   1_545     S
V73     Er78    10.0   .     S
V74     V73    9.999   1_655     S
V74     V76    10.001   1_545     S
V75     V76    9.999   1_455     S
V75     V73    10.001   1_565     S
V75     Er82    10.0   .     S
V76     V75    9.999   1_655     S
V76     V74    10.001   1_565     S
Er77     Ti80    9.999   .     S
Er77     Er78    10.0   .     S
Er77     Ti79    9.999   .     S
Er78     Ti79    9.999   .     S
Er78     Ti80    9.999   .     S
Ti79     Ti84    10.0   1_545     S
Ti79     Ti80    10.001   .     S
Ti80     Ti87    10.0   .     S
Er81     Ti83    9.999   .     S
Er81     Er82    10.0   .     S
Er81     Ti84    9.999   .     S
Er82     Ti84    9.999   .     S
Er82     Ti83    9.999   .     S
Ti83     Ti91    10.0   .     S
Ti83     Ti84    10.001   .     S
Ti84     Ti79    10.0   1_565     S
Er85     Ti88    9.999   .     S
Er85     Er86    10.0   .     S
Er85     Ti87    9.999   .     S
Er85     V96    10.0   .     S
Er86     Ti88    9.999   .     S
Er86     Ti87    9.999   .     S
Ti87     Ti88    10.001   .     S
Ti88     Ti92    10.0   1_544     S
Er89     Ti92    9.999   .     S
Er89     Ti91    9.999   .     S
Er89     Er90    10.0   .     S
Er89     V94    10.0   .     S
Er90     Ti91    9.999   .     S
Er90     Ti92    9.999   .     S
Ti91     Ti92    10.001   .     S
Ti92     Ti88    10.0   1_566     S
V93     V94    9.999   .     S
V93     V95    10.001   1_566     S
V94     V96    10.001   1_566     S
V95     V96    9.999   .     S
V95     V93    10.001   1_544     S
V96     V94    10.001   1_544     S
