data_ast
_audit_creation_date              2020-02-04
_audit_creation_method            'Pymatgen'
_symmetry_space_group_name_H-M    'P1'
_symmetry_Int_Tables_number       1
loop_
_symmetry_equiv_pos_as_xyz
  x,y,z
_cell_length_a                    43.0939
_cell_length_b                    43.0939
_cell_length_c                    43.0939
_cell_angle_alpha                 90.0
_cell_angle_beta                 90.0
_cell_angle_gamma                 90.0
loop_
_atom_site_label
_atom_site_type_symbol
_atom_site_fract_x
_atom_site_fract_y
_atom_site_fract_z
V1     V     0.616   0.616   0.616
V2     V     0.616   0.616   0.384
V3     V     0.616   0.384   0.384
V4     V     0.616   0.384   0.616
V5     V     0.384   0.384   0.616
V6     V     0.384   0.384   0.384
V7     V     0.384   0.616   0.616
V8     V     0.384   0.616   0.384
V9     V     0.384   0.884   0.116
V10     V     0.384   0.884   0.884
V11     V     0.384   0.116   0.116
V12     V     0.384   0.116   0.884
V13     V     0.616   0.116   0.116
V14     V     0.616   0.116   0.884
V15     V     0.616   0.884   0.884
V16     V     0.616   0.884   0.116
V17     V     0.884   0.384   0.884
V18     V     0.884   0.384   0.116
V19     V     0.116   0.384   0.116
V20     V     0.116   0.384   0.884
V21     V     0.884   0.616   0.116
V22     V     0.116   0.616   0.116
V23     V     0.884   0.616   0.884
V24     V     0.116   0.616   0.884
V25     V     0.884   0.116   0.616
V26     V     0.116   0.116   0.616
V27     V     0.884   0.884   0.616
V28     V     0.116   0.884   0.616
V29     V     0.884   0.884   0.384
V30     V     0.884   0.116   0.384
V31     V     0.116   0.116   0.384
V32     V     0.116   0.884   0.384
Er33     Er     0.75   0.75   0.25
Er34     Er     0.75   0.75   0.75
Er35     Er     0.75   0.25   0.75
Er36     Er     0.25   0.75   0.75
Er37     Er     0.75   0.25   0.25
Er38     Er     0.25   0.75   0.25
Er39     Er     0.25   0.25   0.75
Er40     Er     0.25   0.25   0.25
loop_
_geom_bond_atom_site_label_1
_geom_bond_atom_site_label_2
_geom_bond_distance
_geom_bond_site_symmetry_2
_ccdc_geom_bond_type
V1     Er34    10.0   .     S
V1     V2    10.0   .     S
V1     V4    10.0   .     S
V1     V7    10.0   .     S
V2     Er33    10.0   .     S
V2     V3    10.0   .     S
V2     V8    10.0   .     S
V3     Er37    10.0   .     S
V3     V4    10.0   .     S
V3     V6    10.0   .     S
V4     Er35    10.0   .     S
V4     V5    10.0   .     S
V5     Er39    10.0   .     S
V5     V6    10.0   .     S
V5     V7    10.0   .     S
V6     Er40    10.0   .     S
V6     V8    10.0   .     S
V7     Er36    10.0   .     S
V7     V8    10.0   .     S
V8     Er38    10.0   .     S
V9     Er38    10.0   .     S
V9     V11    10.0   1_565     S
V9     V10    10.0   1_554     S
V9     V16    10.0   .     S
V10     Er36    10.0   .     S
V10     V12    10.0   1_565     S
V10     V9    10.0   1_556     S
V10     V15    10.0   .     S
V11     V9    10.0   1_545     S
V11     Er40    10.0   .     S
V11     V12    10.0   1_554     S
V11     V13    10.0   .     S
V12     V10    10.0   1_545     S
V12     Er39    10.0   .     S
V12     V11    10.0   1_556     S
V12     V14    10.0   .     S
V13     Er37    10.0   .     S
V13     V14    10.0   1_554     S
V13     V16    10.0   1_545     S
V14     Er35    10.0   .     S
V14     V13    10.0   1_556     S
V14     V15    10.0   1_545     S
V15     Er34    10.0   .     S
V15     V16    10.0   1_556     S
V15     V14    10.0   1_565     S
V16     V15    10.0   1_554     S
V16     Er33    10.0   .     S
V16     V13    10.0   1_565     S
V17     Er35    10.0   .     S
V17     V18    10.0   1_556     S
V17     V20    10.0   1_655     S
V17     V23    10.0   .     S
V18     V17    10.0   1_554     S
V18     Er37    10.0   .     S
V18     V19    10.0   1_655     S
V18     V21    10.0   .     S
V19     V18    10.0   1_455     S
V19     Er40    10.0   .     S
V19     V20    10.0   1_554     S
V19     V22    10.0   .     S
V20     V17    10.0   1_455     S
V20     Er39    10.0   .     S
V20     V19    10.0   1_556     S
V20     V24    10.0   .     S
V21     Er33    10.0   .     S
V21     V22    10.0   1_655     S
V21     V23    10.0   1_554     S
V22     V21    10.0   1_455     S
V22     Er38    10.0   .     S
V22     V24    10.0   1_554     S
V23     Er34    10.0   .     S
V23     V21    10.0   1_556     S
V23     V24    10.0   1_655     S
V24     V23    10.0   1_455     S
V24     Er36    10.0   .     S
V24     V22    10.0   1_556     S
V25     Er35    10.0   .     S
V25     V26    10.0   1_655     S
V25     V27    10.0   1_545     S
V25     V30    10.0   .     S
V26     V25    10.0   1_455     S
V26     Er39    10.0   .     S
V26     V28    10.0   1_545     S
V26     V31    10.0   .     S
V27     Er34    10.0   .     S
V27     V25    10.0   1_565     S
V27     V28    10.0   1_655     S
V27     V29    10.0   .     S
V28     V27    10.0   1_455     S
V28     Er36    10.0   .     S
V28     V26    10.0   1_565     S
V28     V32    10.0   .     S
V29     Er33    10.0   .     S
V29     V30    10.0   1_565     S
V29     V32    10.0   1_655     S
V30     V29    10.0   1_545     S
V30     Er37    10.0   .     S
V30     V31    10.0   1_655     S
V31     V30    10.0   1_455     S
V31     Er40    10.0   .     S
V31     V32    10.0   1_545     S
V32     V29    10.0   1_455     S
V32     Er38    10.0   .     S
V32     V31    10.0   1_565     S
