data_aste
_audit_creation_date              2020-02-04
_audit_creation_method            'Pymatgen'
_symmetry_space_group_name_H-M    'P1'
_symmetry_Int_Tables_number       1
loop_
_symmetry_equiv_pos_as_xyz
  x,y,z
_cell_length_a                    51.8545
_cell_length_b                    51.8545
_cell_length_c                    51.8545
_cell_angle_alpha                 90.0
_cell_angle_beta                 90.0
_cell_angle_gamma                 90.0
loop_
_atom_site_label
_atom_site_type_symbol
_atom_site_fract_x
_atom_site_fract_y
_atom_site_fract_z
Er1     Er     0.1818   0.1818   0.1818
Er2     Er     0.1818   0.3182   0.3182
Er3     Er     0.3182   0.1818   0.3182
Er4     Er     0.3182   0.3182   0.1818
Er5     Er     0.8182   0.8182   0.8182
Er6     Er     0.6818   0.8182   0.6818
Er7     Er     0.8182   0.6818   0.6818
Er8     Er     0.6818   0.6818   0.8182
Er9     Er     0.8182   0.1818   0.8182
Er10     Er     0.8182   0.3182   0.6818
Er11     Er     0.6818   0.1818   0.6818
Er12     Er     0.6818   0.3182   0.8182
Er13     Er     0.1818   0.8182   0.8182
Er14     Er     0.1818   0.6818   0.6818
Er15     Er     0.3182   0.8182   0.6818
Er16     Er     0.3182   0.6818   0.8182
Er17     Er     0.1818   0.8182   0.1818
Er18     Er     0.3182   0.8182   0.3182
Er19     Er     0.1818   0.6818   0.3182
Er20     Er     0.3182   0.6818   0.1818
Er21     Er     0.8182   0.8182   0.1818
Er22     Er     0.8182   0.6818   0.3182
Er23     Er     0.6818   0.8182   0.3182
Er24     Er     0.6818   0.6818   0.1818
Er25     Er     0.8182   0.1818   0.1818
Er26     Er     0.6818   0.1818   0.3182
Er27     Er     0.8182   0.3182   0.3182
Er28     Er     0.6818   0.3182   0.1818
V29     V     0.6364   0.5   0.1364
V30     V     0.5   0.6364   0.1364
V31     V     0.5   0.3636   0.1364
V32     V     0.3636   0.5   0.1364
V33     V     0.5   0.3636   0.8636
V34     V     0.3636   0.3636   0.0
V35     V     0.6364   0.3636   0.0
V36     V     0.6364   0.5   0.8636
V37     V     0.6364   0.6364   0.0
V38     V     0.5   0.6364   0.8636
V39     V     0.3636   0.6364   0.0
V40     V     0.3636   0.5   0.8636
V41     V     0.6364   0.0   0.6364
V42     V     0.6364   0.8636   0.5
V43     V     0.5   0.8636   0.6364
V44     V     0.6364   0.0   0.3636
V45     V     0.3636   0.8636   0.5
V46     V     0.3636   0.0   0.6364
V47     V     0.5   0.8636   0.3636
V48     V     0.3636   0.0   0.3636
V49     V     0.5   0.1364   0.6364
V50     V     0.3636   0.1364   0.5
V51     V     0.6364   0.1364   0.5
V52     V     0.5   0.1364   0.3636
V53     V     0.0   0.3636   0.6364
V54     V     0.8636   0.3636   0.5
V55     V     0.8636   0.5   0.6364
V56     V     0.0   0.3636   0.3636
V57     V     0.8636   0.6364   0.5
V58     V     0.0   0.6364   0.6364
V59     V     0.8636   0.5   0.3636
V60     V     0.0   0.6364   0.3636
V61     V     0.1364   0.5   0.6364
V62     V     0.1364   0.6364   0.5
V63     V     0.1364   0.3636   0.5
V64     V     0.1364   0.5   0.3636
Er65     Er     0.1818   0.1818   0.8182
Er66     Er     0.3182   0.1818   0.6818
Er67     Er     0.1818   0.3182   0.6818
Er68     Er     0.3182   0.3182   0.8182
V69     V     0.1364   0.8636   0.0
V70     V     0.1364   0.0   0.8636
V71     V     0.8636   0.0   0.1364
V72     V     0.0   0.8636   0.1364
V73     V     0.8636   0.0   0.8636
V74     V     0.8636   0.8636   0.0
V75     V     0.0   0.8636   0.8636
V76     V     0.0   0.1364   0.8636
V77     V     0.8636   0.1364   0.0
V78     V     0.1364   0.0   0.1364
V79     V     0.1364   0.1364   0.0
V80     V     0.0   0.1364   0.1364
loop_
_geom_bond_atom_site_label_1
_geom_bond_atom_site_label_2
_geom_bond_distance
_geom_bond_site_symmetry_2
_ccdc_geom_bond_type
Er1     Er2    10.0   .     S
Er1     Er3    10.0   .     S
Er1     Er4    10.0   .     S
Er1     V78    10.0   .     S
Er1     V79    10.0   .     S
Er1     V80    10.0   .     S
Er2     V64    10.0   .     S
Er2     V63    10.0   .     S
Er2     V56    10.0   .     S
Er2     Er4    10.0   .     S
Er2     Er3    10.0   .     S
Er3     V48    10.0   .     S
Er3     V50    10.0   .     S
Er3     V52    10.0   .     S
Er3     Er4    10.0   .     S
Er4     V32    10.0   .     S
Er4     V34    10.0   .     S
Er4     V31    10.0   .     S
Er5     Er6    10.0   .     S
Er5     Er7    10.0   .     S
Er5     Er8    10.0   .     S
Er5     V75    10.0   1_655     S
Er5     V74    10.0   1_556     S
Er5     V73    10.0   1_565     S
Er6     Er7    10.0   .     S
Er6     Er8    10.0   .     S
Er6     V43    10.0   .     S
Er6     V42    10.0   .     S
Er6     V41    10.0   1_565     S
Er7     Er8    10.0   .     S
Er7     V58    10.0   1_655     S
Er7     V57    10.0   .     S
Er7     V55    10.0   .     S
Er8     V38    10.0   .     S
Er8     V37    10.0   1_556     S
Er8     V36    10.0   .     S
Er9     Er10    10.0   .     S
Er9     Er11    10.0   .     S
Er9     Er12    10.0   .     S
Er9     V77    10.0   1_556     S
Er9     V76    10.0   1_655     S
Er9     V73    10.0   .     S
Er10     Er12    10.0   .     S
Er10     Er11    10.0   .     S
Er10     V54    10.0   .     S
Er10     V53    10.0   1_655     S
Er10     V55    10.0   .     S
Er11     Er12    10.0   .     S
Er11     V51    10.0   .     S
Er11     V49    10.0   .     S
Er11     V41    10.0   .     S
Er12     V35    10.0   1_556     S
Er12     V33    10.0   .     S
Er12     V36    10.0   .     S
Er13     Er14    10.0   .     S
Er13     Er15    10.0   .     S
Er13     Er16    10.0   .     S
Er13     V70    10.0   1_565     S
Er13     V69    10.0   1_556     S
Er13     V75    10.0   .     S
Er14     Er16    10.0   .     S
Er14     Er15    10.0   .     S
Er14     V61    10.0   .     S
Er14     V62    10.0   .     S
Er14     V58    10.0   .     S
Er15     Er16    10.0   .     S
Er15     V46    10.0   1_565     S
Er15     V45    10.0   .     S
Er15     V43    10.0   .     S
Er16     V40    10.0   .     S
Er16     V39    10.0   1_556     S
Er16     V38    10.0   .     S
Er17     Er18    10.0   .     S
Er17     Er19    10.0   .     S
Er17     Er20    10.0   .     S
Er17     V72    10.0   .     S
Er17     V78    10.0   1_565     S
Er17     V69    10.0   .     S
Er18     V47    10.0   .     S
Er18     V48    10.0   1_565     S
Er18     V45    10.0   .     S
Er18     Er19    10.0   .     S
Er18     Er20    10.0   .     S
Er19     Er20    10.0   .     S
Er19     V60    10.0   .     S
Er19     V64    10.0   .     S
Er19     V62    10.0   .     S
Er20     V30    10.0   .     S
Er20     V32    10.0   .     S
Er20     V39    10.0   .     S
Er21     Er22    10.0   .     S
Er21     Er23    10.0   .     S
Er21     Er24    10.0   .     S
Er21     V71    10.0   1_565     S
Er21     V72    10.0   1_655     S
Er21     V74    10.0   .     S
Er22     Er24    10.0   .     S
Er22     Er23    10.0   .     S
Er22     V59    10.0   .     S
Er22     V60    10.0   1_655     S
Er22     V57    10.0   .     S
Er23     Er24    10.0   .     S
Er23     V44    10.0   1_565     S
Er23     V47    10.0   .     S
Er23     V42    10.0   .     S
Er24     V29    10.0   .     S
Er24     V30    10.0   .     S
Er24     V37    10.0   .     S
Er25     Er26    10.0   .     S
Er25     Er27    10.0   .     S
Er25     Er28    10.0   .     S
Er25     V80    10.0   1_655     S
Er25     V77    10.0   .     S
Er25     V71    10.0   .     S
Er26     Er27    10.0   .     S
Er26     Er28    10.0   .     S
Er26     V52    10.0   .     S
Er26     V51    10.0   .     S
Er26     V44    10.0   .     S
Er27     V56    10.0   1_655     S
Er27     V54    10.0   .     S
Er27     V59    10.0   .     S
Er27     Er28    10.0   .     S
Er28     V31    10.0   .     S
Er28     V35    10.0   .     S
Er28     V29    10.0   .     S
V29     V35    10.0   .     S
V29     V30    10.0   .     S
V29     V31    10.0   .     S
V29     V37    10.0   .     S
V30     V39    10.0   .     S
V30     V32    10.0   .     S
V30     V37    10.0   .     S
V31     V35    10.0   .     S
V31     V34    10.0   .     S
V31     V32    10.0   .     S
V32     V34    10.0   .     S
V32     V39    10.0   .     S
V33     V34    10.0   1_556     S
V33     V35    10.0   1_556     S
V33     V36    10.0   .     S
V33     V40    10.0   .     S
V33     Er68    10.0   .     S
V34     V33    10.0   1_554     S
V34     V40    10.0   1_554     S
V34     Er68    10.0   1_554     S
V35     Er12    10.0   1_554     S
V35     V33    10.0   1_554     S
V35     V36    10.0   1_554     S
V36     V35    10.0   1_556     S
V36     V37    10.0   1_556     S
V36     V38    10.0   .     S
V37     Er8    10.0   1_554     S
V37     V36    10.0   1_554     S
V37     V38    10.0   1_554     S
V38     V37    10.0   1_556     S
V38     V39    10.0   1_556     S
V38     V40    10.0   .     S
V39     Er16    10.0   1_554     S
V39     V38    10.0   1_554     S
V39     V40    10.0   1_554     S
V40     V39    10.0   1_556     S
V40     V34    10.0   1_556     S
V40     Er68    10.0   .     S
V41     Er6    10.0   1_545     S
V41     V42    10.0   1_545     S
V41     V43    10.0   1_545     S
V41     V51    10.0   .     S
V41     V49    10.0   .     S
V42     V41    10.0   1_565     S
V42     V43    10.0   .     S
V42     V44    10.0   1_565     S
V42     V47    10.0   .     S
V43     V45    10.0   .     S
V43     V46    10.0   1_565     S
V43     V41    10.0   1_565     S
V44     Er23    10.0   1_545     S
V44     V51    10.0   .     S
V44     V52    10.0   .     S
V44     V42    10.0   1_545     S
V44     V47    10.0   1_545     S
V45     V46    10.0   1_565     S
V45     V47    10.0   .     S
V45     V48    10.0   1_565     S
V46     Er15    10.0   1_545     S
V46     V50    10.0   .     S
V46     V49    10.0   .     S
V46     V45    10.0   1_545     S
V46     V43    10.0   1_545     S
V46     Er66    10.0   .     S
V47     V44    10.0   1_565     S
V47     V48    10.0   1_565     S
V48     Er18    10.0   1_545     S
V48     V50    10.0   .     S
V48     V52    10.0   .     S
V48     V45    10.0   1_545     S
V48     V47    10.0   1_545     S
V49     V50    10.0   .     S
V49     V51    10.0   .     S
V49     Er66    10.0   .     S
V50     V52    10.0   .     S
V50     Er66    10.0   .     S
V51     V52    10.0   .     S
V53     Er10    10.0   1_455     S
V53     V54    10.0   1_455     S
V53     V55    10.0   1_455     S
V53     V63    10.0   .     S
V53     V61    10.0   .     S
V53     Er67    10.0   .     S
V54     V53    10.0   1_655     S
V54     V55    10.0   .     S
V54     V56    10.0   1_655     S
V54     V59    10.0   .     S
V55     V57    10.0   .     S
V55     V53    10.0   1_655     S
V55     V58    10.0   1_655     S
V56     Er27    10.0   1_455     S
V56     V63    10.0   .     S
V56     V64    10.0   .     S
V56     V54    10.0   1_455     S
V56     V59    10.0   1_455     S
V57     V58    10.0   1_655     S
V57     V59    10.0   .     S
V57     V60    10.0   1_655     S
V58     Er7    10.0   1_455     S
V58     V62    10.0   .     S
V58     V61    10.0   .     S
V58     V57    10.0   1_455     S
V58     V55    10.0   1_455     S
V59     V60    10.0   1_655     S
V59     V56    10.0   1_655     S
V60     Er22    10.0   1_455     S
V60     V62    10.0   .     S
V60     V64    10.0   .     S
V60     V57    10.0   1_455     S
V60     V59    10.0   1_455     S
V61     V62    10.0   .     S
V61     V63    10.0   .     S
V61     Er67    10.0   .     S
V62     V64    10.0   .     S
V63     V64    10.0   .     S
V63     Er67    10.0   .     S
Er65     Er66    10.0   .     S
Er65     Er67    10.0   .     S
Er65     Er68    10.0   .     S
Er65     V76    10.0   .     S
Er65     V79    10.0   1_556     S
Er65     V70    10.0   .     S
Er66     Er67    10.0   .     S
Er66     Er68    10.0   .     S
Er67     Er68    10.0   .     S
Er68     V34    10.0   1_556     S
V69     Er13    10.0   1_554     S
V69     V75    10.0   1_554     S
V69     V70    10.0   1_564     S
V69     V72    10.0   .     S
V69     V78    10.0   1_565     S
V70     Er13    10.0   1_545     S
V70     V75    10.0   1_545     S
V70     V69    10.0   1_546     S
V70     V79    10.0   1_556     S
V70     V76    10.0   .     S
V71     Er21    10.0   1_545     S
V71     V72    10.0   1_645     S
V71     V74    10.0   1_545     S
V71     V77    10.0   .     S
V71     V80    10.0   1_655     S
V72     Er21    10.0   1_455     S
V72     V71    10.0   1_465     S
V72     V74    10.0   1_455     S
V72     V78    10.0   1_565     S
V73     Er5    10.0   1_545     S
V73     V74    10.0   1_546     S
V73     V75    10.0   1_645     S
V73     V77    10.0   1_556     S
V73     V76    10.0   1_655     S
V74     Er5    10.0   1_554     S
V74     V71    10.0   1_565     S
V74     V72    10.0   1_655     S
V74     V73    10.0   1_564     S
V74     V75    10.0   1_654     S
V75     Er5    10.0   1_455     S
V75     V69    10.0   1_556     S
V75     V70    10.0   1_565     S
V75     V74    10.0   1_456     S
V75     V73    10.0   1_465     S
V76     Er9    10.0   1_455     S
V76     V73    10.0   1_455     S
V76     V77    10.0   1_456     S
V76     V79    10.0   1_556     S
V77     Er9    10.0   1_554     S
V77     V73    10.0   1_554     S
V77     V76    10.0   1_654     S
V77     V80    10.0   1_655     S
V78     Er17    10.0   1_545     S
V78     V79    10.0   .     S
V78     V69    10.0   1_545     S
V78     V80    10.0   .     S
V78     V72    10.0   1_545     S
V79     Er65    10.0   1_554     S
V79     V76    10.0   1_554     S
V79     V80    10.0   .     S
V79     V70    10.0   1_554     S
V80     Er25    10.0   1_455     S
V80     V77    10.0   1_455     S
V80     V71    10.0   1_455     S
