data_atne
_audit_creation_date              2020-02-04
_audit_creation_method            'Pymatgen'
_symmetry_space_group_name_H-M    'P1'
_symmetry_Int_Tables_number       1
loop_
_symmetry_equiv_pos_as_xyz
  x,y,z
_cell_length_a                    50.3124
_cell_length_b                    50.3124
_cell_length_c                    20.0001
_cell_angle_alpha                 90.0
_cell_angle_beta                 90.0
_cell_angle_gamma                 90.0
loop_
_atom_site_label
_atom_site_type_symbol
_atom_site_fract_x
_atom_site_fract_y
_atom_site_fract_z
Er1     Er     0.0   0.2696   0.5
Er2     Er     0.2696   0.0   0.5
Ti3     Ti     0.3455   0.1545   0.75
V4     V     0.1745   0.1745   0.5
Ti5     Ti     0.1545   0.3455   0.75
V6     V     0.3255   0.3255   0.0
Ti7     Ti     0.1545   0.3455   0.25
Ti8     Ti     0.3455   0.1545   0.25
Er9     Er     0.7304   0.0   0.5
Er10     Er     0.5   0.2304   0.0
V11     V     0.6745   0.3255   0.0
Ti12     Ti     0.8455   0.3455   0.25
Ti13     Ti     0.8455   0.3455   0.75
V14     V     0.8255   0.1745   0.5
Ti15     Ti     0.6545   0.1545   0.25
Ti16     Ti     0.6545   0.1545   0.75
Er17     Er     0.5   0.7696   0.0
V18     V     0.8255   0.8255   0.5
V19     V     0.6745   0.6745   0.0
Ti20     Ti     0.8455   0.6545   0.25
Ti21     Ti     0.6545   0.8455   0.25
Ti22     Ti     0.6545   0.8455   0.75
Ti23     Ti     0.8455   0.6545   0.75
Er24     Er     0.7696   0.5   0.0
Er25     Er     0.0   0.7304   0.5
Er26     Er     0.2304   0.5   0.0
V27     V     0.3255   0.6745   0.0
Ti28     Ti     0.3455   0.8455   0.25
Ti29     Ti     0.3455   0.8455   0.75
V30     V     0.1745   0.8255   0.5
Ti31     Ti     0.1545   0.6545   0.25
Ti32     Ti     0.1545   0.6545   0.75
loop_
_geom_bond_atom_site_label_1
_geom_bond_atom_site_label_2
_geom_bond_distance
_geom_bond_site_symmetry_2
_ccdc_geom_bond_type
Er1     V14    10.0   1_455     S
Er1     V4    10.0   .     S
Er1     Ti13    10.0   1_455     S
Er1     Ti7    10.0   .     S
Er1     Ti12    10.0   1_455     S
Er1     Ti5    10.0   .     S
Er2     V30    10.0   1_545     S
Er2     V4    10.0   .     S
Er2     Ti3    10.0   .     S
Er2     Ti28    10.0   1_545     S
Er2     Ti8    10.0   .     S
Er2     Ti29    10.0   1_545     S
Ti3     V4    10.0   .     S
Ti3     V6    10.0   1_556     S
Ti3     Ti8    10.0   1_556     S
Ti3     Ti8    10.0   .     S
Ti3     Er10    10.0   1_556     S
V4     Ti7    10.0   .     S
V4     Ti8    10.0   .     S
V4     Ti5    10.0   .     S
Ti5     V6    10.0   1_556     S
Ti5     Ti7    10.0   1_556     S
Ti5     Ti7    10.0   .     S
Ti5     Er26    10.0   1_556     S
V6     Ti7    10.0   .     S
V6     Ti3    10.0   1_554     S
V6     Ti5    10.0   1_554     S
V6     Ti8    10.0   .     S
V6     Er10    10.0   .     S
V6     Er26    10.0   .     S
Ti7     Ti5    10.0   1_554     S
Ti7     Er26    10.0   .     S
Ti8     Ti3    10.0   1_554     S
Ti8     Er10    10.0   .     S
Er9     V18    10.0   1_545     S
Er9     V14    10.0   .     S
Er9     Ti22    10.0   1_545     S
Er9     Ti15    10.0   .     S
Er9     Ti21    10.0   1_545     S
Er9     Ti16    10.0   .     S
Er10     V11    10.0   .     S
Er10     Ti15    10.0   .     S
Er10     Ti3    10.0   1_554     S
Er10     Ti16    10.0   1_554     S
V11     Ti12    10.0   .     S
V11     Ti13    10.0   1_554     S
V11     Ti15    10.0   .     S
V11     Ti16    10.0   1_554     S
V11     Er24    10.0   .     S
Ti12     Er1    10.0   1_655     S
Ti12     Ti13    10.0   1_554     S
Ti12     V14    10.0   .     S
Ti12     Ti13    10.0   .     S
Ti12     Er24    10.0   .     S
Ti13     Er1    10.0   1_655     S
Ti13     Ti12    10.0   1_556     S
Ti13     V11    10.0   1_556     S
Ti13     V14    10.0   .     S
Ti13     Er24    10.0   1_556     S
V14     Er1    10.0   1_655     S
V14     Ti15    10.0   .     S
V14     Ti16    10.0   .     S
Ti15     Ti16    10.0   1_554     S
Ti15     Ti16    10.0   .     S
Ti16     Er10    10.0   1_556     S
Ti16     V11    10.0   1_556     S
Ti16     Ti15    10.0   1_556     S
Er17     V19    10.0   .     S
Er17     V27    10.0   .     S
Er17     Ti22    10.0   1_554     S
Er17     Ti28    10.0   .     S
Er17     Ti29    10.0   1_554     S
Er17     Ti21    10.0   .     S
V18     Er9    10.0   1_565     S
V18     Ti20    10.0   .     S
V18     Ti22    10.0   .     S
V18     Ti21    10.0   .     S
V18     Ti23    10.0   .     S
V18     Er25    10.0   1_655     S
V19     Ti20    10.0   .     S
V19     Ti21    10.0   .     S
V19     Ti22    10.0   1_554     S
V19     Ti23    10.0   1_554     S
V19     Er24    10.0   .     S
Ti20     Ti23    10.0   1_554     S
Ti20     Ti23    10.0   .     S
Ti20     Er24    10.0   .     S
Ti20     Er25    10.0   1_655     S
Ti21     Er9    10.0   1_565     S
Ti21     Ti22    10.0   1_554     S
Ti21     Ti22    10.0   .     S
Ti22     Er9    10.0   1_565     S
Ti22     Er17    10.0   1_556     S
Ti22     V19    10.0   1_556     S
Ti22     Ti21    10.0   1_556     S
Ti23     V19    10.0   1_556     S
Ti23     Ti20    10.0   1_556     S
Ti23     Er24    10.0   1_556     S
Ti23     Er25    10.0   1_655     S
Er24     Ti13    10.0   1_554     S
Er24     Ti23    10.0   1_554     S
Er25     V18    10.0   1_455     S
Er25     V30    10.0   .     S
Er25     Ti32    10.0   .     S
Er25     Ti20    10.0   1_455     S
Er25     Ti31    10.0   .     S
Er25     Ti23    10.0   1_455     S
Er26     V27    10.0   .     S
Er26     Ti32    10.0   1_554     S
Er26     Ti5    10.0   1_554     S
Er26     Ti31    10.0   .     S
V27     Ti28    10.0   .     S
V27     Ti29    10.0   1_554     S
V27     Ti31    10.0   .     S
V27     Ti32    10.0   1_554     S
Ti28     Er2    10.0   1_565     S
Ti28     Ti29    10.0   1_554     S
Ti28     V30    10.0   .     S
Ti28     Ti29    10.0   .     S
Ti29     Er2    10.0   1_565     S
Ti29     Er17    10.0   1_556     S
Ti29     Ti28    10.0   1_556     S
Ti29     V27    10.0   1_556     S
Ti29     V30    10.0   .     S
V30     Er2    10.0   1_565     S
V30     Ti32    10.0   .     S
V30     Ti31    10.0   .     S
Ti31     Ti32    10.0   1_554     S
Ti31     Ti32    10.0   .     S
Ti32     Er26    10.0   1_556     S
Ti32     V27    10.0   1_556     S
Ti32     Ti31    10.0   1_556     S
