data_ato
_audit_creation_date              2020-02-04
_audit_creation_method            'Pymatgen'
_symmetry_space_group_name_H-M    'P1'
_symmetry_Int_Tables_number       1
loop_
_symmetry_equiv_pos_as_xyz
  x,y,z
_cell_length_a                    68.4684
_cell_length_b                    68.4684
_cell_length_c                    15.5705
_cell_angle_alpha                 90.0
_cell_angle_beta                 90.0
_cell_angle_gamma                 120.0
loop_
_atom_site_label
_atom_site_type_symbol
_atom_site_fract_x
_atom_site_fract_y
_atom_site_fract_z
V1     V     0.0814   0.4677   0.4167
V2     V     0.9186   0.3863   0.5833
V3     V     0.0529   0.2519   0.75
V4     V     0.1344   0.4148   0.9167
V5     V     0.9471   0.199   0.25
V6     V     0.8656   0.2804   0.0833
V7     V     0.8656   0.5852   0.0833
V8     V     0.9471   0.7481   0.25
V9     V     0.1344   0.7196   0.9167
V10     V     0.0529   0.801   0.75
V11     V     0.9186   0.5323   0.5833
V12     V     0.0814   0.6137   0.4167
V13     V     0.6137   0.5323   0.5833
V14     V     0.5323   0.6137   0.4167
V15     V     0.7196   0.5852   0.0833
V16     V     0.801   0.7481   0.25
V17     V     0.7481   0.801   0.75
V18     V     0.5852   0.7196   0.9167
V19     V     0.4677   0.3863   0.5833
V20     V     0.3863   0.4677   0.4167
V21     V     0.199   0.2519   0.75
V22     V     0.2804   0.4148   0.9167
V23     V     0.4148   0.2804   0.0833
V24     V     0.2519   0.199   0.25
V25     V     0.7196   0.1344   0.0833
V26     V     0.801   0.0529   0.25
V27     V     0.7481   0.9471   0.75
V28     V     0.5852   0.8656   0.9167
V29     V     0.5323   0.9186   0.4167
V30     V     0.6137   0.0814   0.5833
V31     V     0.3863   0.9186   0.4167
V32     V     0.4677   0.0814   0.5833
V33     V     0.4148   0.1344   0.0833
V34     V     0.2519   0.0529   0.25
V35     V     0.199   0.9471   0.75
V36     V     0.2804   0.8656   0.9167
loop_
_geom_bond_atom_site_label_1
_geom_bond_atom_site_label_2
_geom_bond_distance
_geom_bond_site_symmetry_2
_ccdc_geom_bond_type
V1     V2    10.0   1_455     S
V1     V4    10.0   1_554     S
V1     V4    10.0   .     S
V1     V12    10.0   .     S
V2     V1    10.0   1_655     S
V2     V6    10.0   1_556     S
V2     V6    10.0   .     S
V2     V11    10.0   .     S
V3     V4    10.0   .     S
V3     V5    10.0   1_455     S
V3     V5    10.0   1_456     S
V3     V21    10.0   .     S
V4     V1    10.0   1_556     S
V4     V22    10.0   .     S
V5     V6    10.0   .     S
V5     V3    10.0   1_655     S
V5     V3    10.0   1_654     S
V5     V26    10.0   .     S
V6     V2    10.0   1_554     S
V6     V25    10.0   .     S
V7     V8    10.0   .     S
V7     V11    10.0   1_554     S
V7     V11    10.0   .     S
V7     V15    10.0   .     S
V8     V10    10.0   1_655     S
V8     V10    10.0   1_654     S
V8     V16    10.0   .     S
V9     V10    10.0   .     S
V9     V12    10.0   .     S
V9     V12    10.0   1_556     S
V9     V36    10.0   .     S
V10     V8    10.0   1_455     S
V10     V8    10.0   1_456     S
V10     V35    10.0   .     S
V11     V12    10.0   1_655     S
V11     V7    10.0   1_556     S
V12     V11    10.0   1_455     S
V12     V9    10.0   1_554     S
V13     V14    10.0   .     S
V13     V15    10.0   1_556     S
V13     V15    10.0   .     S
V13     V19    10.0   .     S
V14     V18    10.0   1_554     S
V14     V18    10.0   .     S
V14     V20    10.0   .     S
V15     V16    10.0   .     S
V15     V13    10.0   1_554     S
V16     V17    10.0   .     S
V16     V17    10.0   1_554     S
V17     V18    10.0   .     S
V17     V16    10.0   1_556     S
V17     V27    10.0   .     S
V18     V14    10.0   1_556     S
V18     V28    10.0   .     S
V19     V20    10.0   .     S
V19     V23    10.0   1_556     S
V19     V23    10.0   .     S
V20     V22    10.0   1_554     S
V20     V22    10.0   .     S
V21     V22    10.0   .     S
V21     V24    10.0   .     S
V21     V24    10.0   1_556     S
V22     V20    10.0   1_556     S
V23     V24    10.0   .     S
V23     V19    10.0   1_554     S
V23     V33    10.0   .     S
V24     V21    10.0   1_554     S
V24     V34    10.0   .     S
V25     V26    10.0   .     S
V25     V30    10.0   1_554     S
V25     V30    10.0   .     S
V26     V27    10.0   1_545     S
V26     V27    10.0   1_544     S
V27     V28    10.0   .     S
V27     V26    10.0   1_565     S
V27     V26    10.0   1_566     S
V28     V29    10.0   .     S
V28     V29    10.0   1_556     S
V29     V28    10.0   1_554     S
V29     V30    10.0   1_565     S
V29     V31    10.0   .     S
V30     V29    10.0   1_545     S
V30     V25    10.0   1_556     S
V30     V32    10.0   .     S
V31     V32    10.0   1_565     S
V31     V36    10.0   1_554     S
V31     V36    10.0   .     S
V32     V31    10.0   1_545     S
V32     V33    10.0   1_556     S
V32     V33    10.0   .     S
V33     V34    10.0   .     S
V33     V32    10.0   1_554     S
V34     V35    10.0   1_545     S
V34     V35    10.0   1_544     S
V35     V36    10.0   .     S
V35     V34    10.0   1_565     S
V35     V34    10.0   1_566     S
V36     V31    10.0   1_556     S
