data_atoe
_audit_creation_date              2020-02-04
_audit_creation_method            'Pymatgen'
_symmetry_space_group_name_H-M    'P1'
_symmetry_Int_Tables_number       1
loop_
_symmetry_equiv_pos_as_xyz
  x,y,z
_cell_length_a                    79.9225
_cell_length_b                    79.9225
_cell_length_c                    19.3974
_cell_angle_alpha                 90.0
_cell_angle_beta                 90.0
_cell_angle_gamma                 120.0
loop_
_atom_site_label
_atom_site_type_symbol
_atom_site_fract_x
_atom_site_fract_y
_atom_site_fract_z
V1     V     0.1172   0.8828   0.2119
V2     V     0.4505   0.5495   0.8786
V3     V     0.8828   0.1172   0.7881
V4     V     0.5495   0.4505   0.1214
Ce5     Ce     0.2529   0.3333   0.3333
Ti6     Ti     0.3333   0.4388   0.6667
Ti7     Ti     0.2278   0.2278   0.0
Ce8     Ce     0.4137   0.4137   0.0
Ce9     Ce     0.3333   0.2529   0.6667
Ti10     Ti     0.4388   0.3333   0.3333
Er11     Er     0.1974   0.1974   0.5
Er12     Er     0.4693   0.3333   0.8333
Er13     Er     0.3333   0.4693   0.1667
Ce14     Ce     0.6667   0.7471   0.3333
Ce15     Ce     0.5863   0.5863   0.0
Ti16     Ti     0.5612   0.6667   0.6667
Ce17     Ce     0.7471   0.6667   0.6667
Ti18     Ti     0.7722   0.7722   0.0
Ti19     Ti     0.6667   0.5612   0.3333
Er20     Er     0.8026   0.8026   0.5
Er21     Er     0.5307   0.6667   0.1667
Er22     Er     0.6667   0.5307   0.8333
V23     V     0.7839   0.5677   0.5452
V24     V     0.4323   0.2161   0.5452
V25     V     0.2344   0.1172   0.7881
V26     V     0.8828   0.7656   0.7881
V27     V     0.099   0.5495   0.8786
V28     V     0.4505   0.901   0.8786
Ce29     Ce     0.4137   0.0   0.0
Ce30     Ce     0.3333   0.0804   0.6667
Ti31     Ti     0.4388   0.1055   0.3333
Ce32     Ce     0.2529   0.9196   0.3333
Ti33     Ti     0.2278   0.0   0.0
Ti34     Ti     0.3333   0.8945   0.6667
Er35     Er     0.4693   0.136   0.8333
Er36     Er     0.1974   0.0   0.5
Er37     Er     0.3333   0.864   0.1667
V38     V     0.2161   0.7839   0.4548
Ce39     Ce     0.0804   0.7471   0.3333
Ce40     Ce     0.9196   0.6667   0.6667
Ti41     Ti     0.8945   0.5612   0.3333
Ti42     Ti     0.0   0.7722   0.0
Ce43     Ce     0.0   0.5863   0.0
Ti44     Ti     0.1055   0.6667   0.6667
Er45     Er     0.0   0.8026   0.5
Er46     Er     0.136   0.6667   0.1667
Er47     Er     0.864   0.5307   0.8333
V48     V     0.5677   0.7839   0.4548
V49     V     0.2161   0.4323   0.4548
V50     V     0.1172   0.2344   0.2119
V51     V     0.5495   0.099   0.1214
V52     V     0.901   0.4505   0.1214
V53     V     0.7656   0.8828   0.2119
Ce54     Ce     0.0804   0.3333   0.3333
Ce55     Ce     0.0   0.4137   0.0
Ti56     Ti     0.1055   0.4388   0.6667
Ti57     Ti     0.0   0.2278   0.0
Ce58     Ce     0.9196   0.2529   0.6667
Ti59     Ti     0.8945   0.3333   0.3333
Er60     Er     0.0   0.1974   0.5
Er61     Er     0.136   0.4693   0.1667
Er62     Er     0.864   0.3333   0.8333
V63     V     0.7839   0.2161   0.5452
Ce64     Ce     0.5863   0.0   0.0
Ti65     Ti     0.6667   0.1055   0.3333
Ce66     Ce     0.7471   0.0804   0.6667
Ce67     Ce     0.6667   0.9196   0.3333
Ti68     Ti     0.5612   0.8945   0.6667
Ti69     Ti     0.7722   0.0   0.0
Er70     Er     0.8026   0.0   0.5
Er71     Er     0.6667   0.136   0.8333
Er72     Er     0.5307   0.864   0.1667
loop_
_geom_bond_atom_site_label_1
_geom_bond_atom_site_label_2
_geom_bond_distance
_geom_bond_site_symmetry_2
_ccdc_geom_bond_type
V1     Ti42    10.0   .     S
V1     Ti33    10.0   1_565     S
V1     Er45    10.0   .     S
V1     Er36    10.0   1_565     S
V1     Ce32    10.0   .     S
V1     Ce39    10.0   .     S
V2     Ti6    10.0   .     S
V2     Ti16    10.0   .     S
V2     Er13    10.0   1_556     S
V2     Er21    10.0   1_556     S
V2     Ce8    10.0   1_556     S
V2     Ce15    10.0   1_556     S
V3     Ti69    10.0   1_556     S
V3     Ti57    10.0   1_656     S
V3     Er60    10.0   1_655     S
V3     Er70    10.0   .     S
V3     Ce58    10.0   .     S
V3     Ce66    10.0   .     S
V4     Ti10    10.0   .     S
V4     Ti19    10.0   .     S
V4     Er12    10.0   1_554     S
V4     Er22    10.0   1_554     S
V4     Ce8    10.0   .     S
V4     Ce15    10.0   .     S
Ce5     Er13    10.0   .     S
Ce5     Ti6    10.0   .     S
Ce5     V50    10.0   .     S
Ce5     V49    10.0   .     S
Ce5     Er11    10.0   .     S
Ce5     Ti7    10.0   .     S
Ti6     Er13    10.0   .     S
Ti6     Ce8    10.0   1_556     S
Ti6     Er13    10.0   1_556     S
Ti6     V49    10.0   .     S
Ti7     Er11    10.0   .     S
Ti7     Ce9    10.0   1_554     S
Ti7     Er11    10.0   1_554     S
Ti7     V25    10.0   1_554     S
Ti7     V50    10.0   .     S
Ce8     Er12    10.0   1_554     S
Ce8     Ti10    10.0   .     S
Ce8     V2    10.0   1_554     S
Ce8     Er13    10.0   .     S
Ce8     Ti6    10.0   1_554     S
Ce9     V25    10.0   .     S
Ce9     V24    10.0   .     S
Ce9     Er11    10.0   .     S
Ce9     Ti7    10.0   1_556     S
Ce9     Er12    10.0   .     S
Ce9     Ti10    10.0   .     S
Ti10     Er12    10.0   1_554     S
Ti10     Er12    10.0   .     S
Ti10     V24    10.0   .     S
Er11     Ti7    10.0   1_556     S
Er11     V25    10.0   .     S
Er11     V50    10.0   .     S
Er12     V4    10.0   1_556     S
Er12     Ce8    10.0   1_556     S
Er12     Ti10    10.0   1_556     S
Er12     V24    10.0   .     S
Er13     V2    10.0   1_554     S
Er13     Ti6    10.0   1_554     S
Er13     V49    10.0   .     S
Ce14     Er20    10.0   .     S
Ce14     Ti18    10.0   .     S
Ce14     V53    10.0   .     S
Ce14     V48    10.0   .     S
Ce14     Er21    10.0   .     S
Ce14     Ti16    10.0   .     S
Ce15     Er22    10.0   1_554     S
Ce15     Ti19    10.0   .     S
Ce15     V2    10.0   1_554     S
Ce15     Er21    10.0   .     S
Ce15     Ti16    10.0   1_554     S
Ti16     Er21    10.0   .     S
Ti16     Ce15    10.0   1_556     S
Ti16     Er21    10.0   1_556     S
Ti16     V48    10.0   .     S
Ce17     Er20    10.0   .     S
Ce17     Ti18    10.0   1_556     S
Ce17     V23    10.0   .     S
Ce17     V26    10.0   .     S
Ce17     Er22    10.0   .     S
Ce17     Ti19    10.0   .     S
Ti18     Er20    10.0   .     S
Ti18     Ce17    10.0   1_554     S
Ti18     Er20    10.0   1_554     S
Ti18     V26    10.0   1_554     S
Ti18     V53    10.0   .     S
Ti19     Er22    10.0   1_554     S
Ti19     Er22    10.0   .     S
Ti19     V23    10.0   .     S
Er20     Ti18    10.0   1_556     S
Er20     V26    10.0   .     S
Er20     V53    10.0   .     S
Er21     V2    10.0   1_554     S
Er21     Ti16    10.0   1_554     S
Er21     V48    10.0   .     S
Er22     V4    10.0   1_556     S
Er22     Ce15    10.0   1_556     S
Er22     Ti19    10.0   1_556     S
Er22     V23    10.0   .     S
V23     Ti41    10.0   .     S
V23     Er47    10.0   .     S
V23     Ce40    10.0   .     S
V24     Ti31    10.0   .     S
V24     Er35    10.0   .     S
V24     Ce30    10.0   .     S
V25     Ti7    10.0   1_556     S
V25     Ti33    10.0   1_556     S
V25     Er36    10.0   .     S
V25     Ce30    10.0   .     S
V26     Ti18    10.0   1_556     S
V26     Ti42    10.0   1_656     S
V26     Er45    10.0   1_655     S
V26     Ce40    10.0   .     S
V27     Ti56    10.0   .     S
V27     Ti44    10.0   .     S
V27     Er61    10.0   1_556     S
V27     Er46    10.0   1_556     S
V27     Ce43    10.0   1_556     S
V27     Ce55    10.0   1_556     S
V28     Ti68    10.0   .     S
V28     Ti34    10.0   .     S
V28     Er72    10.0   1_556     S
V28     Er37    10.0   1_556     S
V28     Ce29    10.0   1_566     S
V28     Ce64    10.0   1_566     S
Ce29     V51    10.0   .     S
Ce29     V28    10.0   1_544     S
Ce29     Er35    10.0   1_554     S
Ce29     Ti31    10.0   .     S
Ce29     Er37    10.0   1_545     S
Ce29     Ti34    10.0   1_544     S
Ce30     Er36    10.0   .     S
Ce30     Ti33    10.0   1_556     S
Ce30     Er35    10.0   .     S
Ce30     Ti31    10.0   .     S
Ti31     Er35    10.0   1_554     S
Ti31     Er35    10.0   .     S
Ti31     V51    10.0   .     S
Ce32     Er37    10.0   .     S
Ce32     Ti34    10.0   .     S
Ce32     V38    10.0   .     S
Ce32     Er36    10.0   1_565     S
Ce32     Ti33    10.0   1_565     S
Ti33     V1    10.0   1_545     S
Ti33     V25    10.0   1_554     S
Ti33     Ce30    10.0   1_554     S
Ti33     Er36    10.0   1_554     S
Ti33     Ce32    10.0   1_545     S
Ti33     Er36    10.0   .     S
Ti34     Ce29    10.0   1_566     S
Ti34     Er37    10.0   1_556     S
Ti34     Er37    10.0   .     S
Ti34     V38    10.0   .     S
Er35     Ce29    10.0   1_556     S
Er35     Ti31    10.0   1_556     S
Er35     V51    10.0   1_556     S
Er36     V1    10.0   1_545     S
Er36     Ti33    10.0   1_556     S
Er36     Ce32    10.0   1_545     S
Er37     V28    10.0   1_554     S
Er37     Ce29    10.0   1_565     S
Er37     Ti34    10.0   1_554     S
Er37     V38    10.0   .     S
V38     Ti44    10.0   .     S
V38     Er46    10.0   .     S
V38     Ce39    10.0   .     S
Ce39     Er45    10.0   .     S
Ce39     Ti42    10.0   .     S
Ce39     Er46    10.0   .     S
Ce39     Ti44    10.0   .     S
Ce40     Er45    10.0   1_655     S
Ce40     Ti42    10.0   1_656     S
Ce40     Er47    10.0   .     S
Ce40     Ti41    10.0   .     S
Ti41     Er47    10.0   .     S
Ti41     Ce43    10.0   1_655     S
Ti41     Er47    10.0   1_554     S
Ti41     V52    10.0   .     S
Ti42     V26    10.0   1_454     S
Ti42     Er45    10.0   .     S
Ti42     Ce40    10.0   1_454     S
Ti42     Er45    10.0   1_554     S
Ce43     Er47    10.0   1_454     S
Ce43     Ti41    10.0   1_455     S
Ce43     V27    10.0   1_554     S
Ce43     V52    10.0   1_455     S
Ce43     Er46    10.0   .     S
Ce43     Ti44    10.0   1_554     S
Ti44     Er46    10.0   .     S
Ti44     Ce43    10.0   1_556     S
Ti44     Er46    10.0   1_556     S
Er45     V26    10.0   1_455     S
Er45     Ce40    10.0   1_455     S
Er45     Ti42    10.0   1_556     S
Er46     V27    10.0   1_554     S
Er46     Ti44    10.0   1_554     S
Er47     Ce43    10.0   1_656     S
Er47     Ti41    10.0   1_556     S
Er47     V52    10.0   1_556     S
V48     Ti68    10.0   .     S
V48     Er72    10.0   .     S
V48     Ce67    10.0   .     S
V49     Ti56    10.0   .     S
V49     Er61    10.0   .     S
V49     Ce54    10.0   .     S
V50     Ti57    10.0   .     S
V50     Er60    10.0   .     S
V50     Ce54    10.0   .     S
V51     Ti65    10.0   .     S
V51     Er71    10.0   1_554     S
V51     Er35    10.0   1_554     S
V51     Ce64    10.0   .     S
V52     Ce43    10.0   1_655     S
V52     Ti59    10.0   .     S
V52     Er62    10.0   1_554     S
V52     Er47    10.0   1_554     S
V52     Ce55    10.0   1_655     S
V53     Ti69    10.0   1_565     S
V53     Er70    10.0   1_565     S
V53     Ce67    10.0   .     S
Ce54     Er61    10.0   .     S
Ce54     Ti56    10.0   .     S
Ce54     Er60    10.0   .     S
Ce54     Ti57    10.0   .     S
Ce55     Er61    10.0   .     S
Ce55     Ti56    10.0   1_554     S
Ce55     V27    10.0   1_554     S
Ce55     V52    10.0   1_455     S
Ce55     Er62    10.0   1_454     S
Ce55     Ti59    10.0   1_455     S
Ti56     Er61    10.0   .     S
Ti56     Ce55    10.0   1_556     S
Ti56     Er61    10.0   1_556     S
Ti57     V3    10.0   1_454     S
Ti57     Er60    10.0   .     S
Ti57     Ce58    10.0   1_454     S
Ti57     Er60    10.0   1_554     S
Ce58     Er60    10.0   1_655     S
Ce58     Ti57    10.0   1_656     S
Ce58     V63    10.0   .     S
Ce58     Er62    10.0   .     S
Ce58     Ti59    10.0   .     S
Ti59     Ce55    10.0   1_655     S
Ti59     Er62    10.0   1_554     S
Ti59     Er62    10.0   .     S
Ti59     V63    10.0   .     S
Er60     V3    10.0   1_455     S
Er60     Ce58    10.0   1_455     S
Er60     Ti57    10.0   1_556     S
Er61     V27    10.0   1_554     S
Er61     Ti56    10.0   1_554     S
Er62     V52    10.0   1_556     S
Er62     Ce55    10.0   1_656     S
Er62     Ti59    10.0   1_556     S
Er62     V63    10.0   .     S
V63     Ti65    10.0   .     S
V63     Er71    10.0   .     S
V63     Ce66    10.0   .     S
Ce64     Er72    10.0   1_545     S
Ce64     Ti68    10.0   1_544     S
Ce64     V28    10.0   1_544     S
Ce64     Er71    10.0   1_554     S
Ce64     Ti65    10.0   .     S
Ti65     Er71    10.0   1_554     S
Ti65     Ce66    10.0   .     S
Ti65     Er71    10.0   .     S
Ce66     Er70    10.0   .     S
Ce66     Ti69    10.0   1_556     S
Ce66     Er71    10.0   .     S
Ce67     Er70    10.0   1_565     S
Ce67     Ti69    10.0   1_565     S
Ce67     Er72    10.0   .     S
Ce67     Ti68    10.0   .     S
Ti68     Ce64    10.0   1_566     S
Ti68     Er72    10.0   1_556     S
Ti68     Er72    10.0   .     S
Ti69     V3    10.0   1_554     S
Ti69     V53    10.0   1_545     S
Ti69     Ce66    10.0   1_554     S
Ti69     Er70    10.0   1_554     S
Ti69     Ce67    10.0   1_545     S
Ti69     Er70    10.0   .     S
Er70     V53    10.0   1_545     S
Er70     Ti69    10.0   1_556     S
Er70     Ce67    10.0   1_545     S
Er71     V51    10.0   1_556     S
Er71     Ce64    10.0   1_556     S
Er71     Ti65    10.0   1_556     S
Er72     V28    10.0   1_554     S
Er72     Ce64    10.0   1_565     S
Er72     Ti68    10.0   1_554     S
