data_ats
_audit_creation_date              2020-02-04
_audit_creation_method            'Pymatgen'
_symmetry_space_group_name_H-M    'P1'
_symmetry_Int_Tables_number       1
loop_
_symmetry_equiv_pos_as_xyz
  x,y,z
_cell_length_a                    14.9961
_cell_length_b                    14.9961
_cell_length_c                    24.9508
_cell_angle_alpha                 90.0
_cell_angle_beta                 90.0
_cell_angle_gamma                 120.0
loop_
_atom_site_label
_atom_site_type_symbol
_atom_site_fract_x
_atom_site_fract_y
_atom_site_fract_z
Ti1     Ti     0.3333   0.6667   0.75
Er2     Er     0.6667   0.3333   0.75
Er3     Er     0.3333   0.6667   0.25
Ti4     Ti     0.6667   0.3333   0.25
V5     V     0.0   0.0   0.0
V6     V     0.0   0.0   0.5
loop_
_geom_bond_atom_site_label_1
_geom_bond_atom_site_label_2
_geom_bond_distance
_geom_bond_site_symmetry_2
_ccdc_geom_bond_type
Ti1     Er2    8.658   .     S
Ti1     Er2    8.658   1_565     S
Ti1     Er2    8.658   1_455     S
Er2     V5    10.671   1_556     S
Er2     V5    10.671   1_666     S
Er2     V6    10.671   1_665     S
Er2     V6    10.671   .     S
Er2     V5    10.671   1_656     S
Er2     V6    10.671   1_655     S
Er2     Ti1    8.658   1_545     S
Er2     Ti1    8.658   1_655     S
Er3     V5    10.671   1_565     S
Er3     V5    10.671   1_665     S
Er3     V6    10.671   1_565     S
Er3     V6    10.671   1_665     S
Er3     V5    10.671   .     S
Er3     V6    10.671   .     S
Er3     Ti4    8.658   .     S
Er3     Ti4    8.658   1_565     S
Er3     Ti4    8.658   1_455     S
Ti4     Er3    8.658   1_545     S
Ti4     Er3    8.658   1_655     S
V5     Er2    10.671   1_554     S
V5     Er2    10.671   1_444     S
V5     Er2    10.671   1_454     S
V5     Er3    10.671   1_545     S
V5     Er3    10.671   1_445     S
V6     Er2    10.671   1_445     S
V6     Er2    10.671   1_455     S
V6     Er3    10.671   1_545     S
V6     Er3    10.671   1_445     S
