data_awd
_audit_creation_date              2020-02-04
_audit_creation_method            'Pymatgen'
_symmetry_space_group_name_H-M    'P1'
_symmetry_Int_Tables_number       1
loop_
_symmetry_equiv_pos_as_xyz
  x,y,z
_cell_length_a                    63.071
_cell_length_b                    63.071
_cell_length_c                    25.566
_cell_angle_alpha                 90.0
_cell_angle_beta                 90.0
_cell_angle_gamma                 120.0
loop_
_atom_site_label
_atom_site_type_symbol
_atom_site_fract_x
_atom_site_fract_y
_atom_site_fract_z
Er1     Er     0.7378   0.0899   0.5145
Er2     Er     0.6479   0.9101   0.4855
V3     V     0.5516   0.0   0.5
Er4     Er     0.5768   0.9812   0.8478
Er5     Er     0.7565   0.0711   0.8188
V6     V     0.6667   0.885   0.8333
Er7     Er     0.4044   0.4232   0.8478
Er8     Er     0.3146   0.2435   0.8188
V9     V     0.2183   0.3333   0.8333
Er10     Er     0.9812   0.5768   0.1522
Er11     Er     0.0711   0.7565   0.1812
V12     V     0.885   0.6667   0.1667
Er13     Er     0.3521   0.2622   0.5145
Er14     Er     0.2622   0.3521   0.4855
V15     V     0.4484   0.4484   0.5
Ti16     Ti     0.9547   0.4112   0.8671
Ti17     Ti     0.0453   0.4565   0.1329
Ti18     Ti     0.9221   0.2101   0.5338
Ti19     Ti     0.8768   0.2554   0.7996
Ti20     Ti     0.1232   0.3786   0.2004
Ti21     Ti     0.0779   0.2881   0.4662
Ce22     Ce     0.0521   0.3333   0.8333
Ce23     Ce     0.0   0.3855   0.5
Ce24     Ce     0.9479   0.2812   0.1667
Er25     Er     0.4232   0.4044   0.1522
Er26     Er     0.2435   0.3146   0.1812
V27     V     0.3333   0.2183   0.1667
Er28     Er     0.6854   0.9289   0.1812
Er29     Er     0.5956   0.0188   0.1522
V30     V     0.7817   0.115   0.1667
Ti31     Ti     0.3786   0.1232   0.7996
Ti32     Ti     0.2881   0.0779   0.5338
Ti33     Ti     0.2101   0.9221   0.4662
Ti34     Ti     0.2554   0.8768   0.2004
Ti35     Ti     0.4112   0.9547   0.1329
Ti36     Ti     0.4565   0.0453   0.8671
Ce37     Ce     0.3333   0.0521   0.1667
Ce38     Ce     0.3855   0.0   0.5
Ce39     Ce     0.2812   0.9479   0.8333
Er40     Er     0.0188   0.5956   0.8478
Er41     Er     0.9289   0.6854   0.8188
V42     V     0.115   0.7817   0.8333
Er43     Er     0.0899   0.7378   0.4855
Er44     Er     0.9101   0.6479   0.5145
V45     V     0.0   0.5516   0.5
Ti46     Ti     0.7899   0.7119   0.5338
Ti47     Ti     0.7446   0.6214   0.7996
Ti48     Ti     0.7119   0.7899   0.4662
Ti49     Ti     0.6214   0.7446   0.2004
Ti50     Ti     0.5435   0.5888   0.1329
Ti51     Ti     0.5888   0.5435   0.8671
Ce52     Ce     0.7188   0.6667   0.1667
Ce53     Ce     0.6145   0.6145   0.5
Ce54     Ce     0.6667   0.7188   0.8333
loop_
_geom_bond_atom_site_label_1
_geom_bond_atom_site_label_2
_geom_bond_distance
_geom_bond_site_symmetry_2
_ccdc_geom_bond_type
Er1     Er2    9.846   1_545     S
Er1     V3    10.176   .     S
Er1     Ti18    10.235   .     S
Er2     Er1    9.846   1_565     S
Er2     V3    10.176   1_565     S
Er2     Ti48    10.235   .     S
V3     Ce38    10.479   .     S
V3     Er2    10.176   1_545     S
Er4     Er5    9.846   1_565     S
Er4     V6    10.176   .     S
Er4     Ti36    10.235   1_565     S
Er5     Er4    9.846   1_545     S
Er5     V6    10.176   1_545     S
Er5     Ti19    10.235   .     S
V6     Ce54    10.479   .     S
V6     Er5    10.176   1_565     S
Er7     Er8    9.846   .     S
Er7     V9    10.176   .     S
Er7     Ti51    10.235   .     S
Er8     V9    10.176   .     S
Er8     Ti31    10.235   .     S
V9     Ce22    10.479   .     S
Er10     Er11    9.846   1_655     S
Er10     V12    10.176   .     S
Er10     Ti17    10.235   1_655     S
Er11     Er10    9.846   1_455     S
Er11     V12    10.176   1_455     S
Er11     Ti34    10.235   .     S
V12     Ce52    10.479   .     S
V12     Er11    10.176   1_655     S
Er13     Er14    9.846   .     S
Er13     V15    10.176   .     S
Er13     Ti32    10.235   .     S
Er14     V15    10.176   .     S
Er14     Ti21    10.235   .     S
V15     Ce53    10.479   .     S
Ti16     Ce22    9.636   1_655     S
Ti16     Ce24    11.072   1_556     S
Ti16     Ce23    10.174   1_655     S
Ti16     Er40    10.235   1_655     S
Ti16     Ti19    8.685   .     S
Ti16     Ti17    8.405   1_656     S
Ti17     Ce24    9.636   1_455     S
Ti17     Ce22    11.072   1_554     S
Ti17     Ce23    10.174   .     S
Ti17     Er10    10.235   1_455     S
Ti17     Ti20    8.685   .     S
Ti17     Ti16    8.405   1_454     S
Ti18     Ce23    9.636   1_655     S
Ti18     Ce22    11.072   1_655     S
Ti18     Ce24    10.174   .     S
Ti18     Ti21    8.685   1_655     S
Ti18     Ti19    8.405   .     S
Ti19     Ce22    9.636   1_655     S
Ti19     Ce23    11.072   1_655     S
Ti19     Ce24    10.174   1_556     S
Ti20     Ce24    9.636   1_455     S
Ti20     Ce23    11.072   .     S
Ti20     Ce22    10.174   1_554     S
Ti20     Er26    10.235   .     S
Ti20     Ti21    8.405   .     S
Ti21     Ce23    9.636   .     S
Ti21     Ce24    11.072   1_455     S
Ti21     Ce22    10.174   .     S
Ti21     Ti18    8.685   1_455     S
Ce22     Ti16    9.636   1_455     S
Ce22     Ti19    9.636   1_455     S
Ce22     Ti17    11.072   1_556     S
Ce22     Ti18    11.072   1_455     S
Ce22     Ti20    10.174   1_556     S
Ce23     Ti18    9.636   1_455     S
Ce23     Ti19    11.072   1_455     S
Ce23     V45    10.479   .     S
Ce23     Ti16    10.174   1_455     S
Ce24     Ti20    9.636   1_655     S
Ce24     Ti17    9.636   1_655     S
Ce24     Ti21    11.072   1_655     S
Ce24     Ti16    11.072   1_554     S
Ce24     V30    10.479   .     S
Ce24     Ti19    10.174   1_554     S
Er25     Er26    9.846   .     S
Er25     V27    10.176   .     S
Er25     Ti50    10.235   .     S
Er26     V27    10.176   .     S
V27     Ce37    10.479   .     S
Er28     Er29    9.846   1_565     S
Er28     V30    10.176   1_565     S
Er28     Ti49    10.235   .     S
Er29     Er28    9.846   1_545     S
Er29     V30    10.176   .     S
Er29     Ti35    10.235   1_545     S
V30     Er28    10.176   1_545     S
Ti31     Ce39    9.636   1_545     S
Ti31     Ce38    11.072   .     S
Ti31     Ce37    10.174   1_556     S
Ti31     Ti36    8.685   .     S
Ti31     Ti32    8.405   .     S
Ti32     Ce38    9.636   .     S
Ti32     Ce39    11.072   1_545     S
Ti32     Ce37    10.174   .     S
Ti32     Ti33    8.685   1_545     S
Ti33     Ce38    9.636   1_565     S
Ti33     Ce37    11.072   1_565     S
Ti33     Ce39    10.174   .     S
Ti33     Er43    10.235   .     S
Ti33     Ti32    8.685   1_565     S
Ti33     Ti34    8.405   .     S
Ti34     Ce37    9.636   1_565     S
Ti34     Ce38    11.072   1_565     S
Ti34     Ce39    10.174   1_554     S
Ti34     Ti35    8.685   .     S
Ti35     Ce37    9.636   1_565     S
Ti35     Ce39    11.072   1_554     S
Ti35     Ce38    10.174   1_565     S
Ti35     Er29    10.235   1_565     S
Ti35     Ti36    8.405   1_564     S
Ti36     Ce39    9.636   1_545     S
Ti36     Ce37    11.072   1_556     S
Ti36     Ce38    10.174   .     S
Ti36     Er4    10.235   1_545     S
Ti36     Ti35    8.405   1_546     S
Ce37     Ti35    9.636   1_545     S
Ce37     Ti34    9.636   1_545     S
Ce37     Ti36    11.072   1_554     S
Ce37     Ti33    11.072   1_545     S
Ce37     Ti31    10.174   1_554     S
Ce38     Ti33    9.636   1_545     S
Ce38     Ti34    11.072   1_545     S
Ce38     Ti35    10.174   1_545     S
Ce39     Ti36    9.636   1_565     S
Ce39     Ti31    9.636   1_565     S
Ce39     Ti35    11.072   1_556     S
Ce39     Ti32    11.072   1_565     S
Ce39     V42    10.479   .     S
Ce39     Ti34    10.174   1_556     S
Er40     Er41    9.846   1_455     S
Er40     V42    10.176   .     S
Er40     Ti16    10.235   1_455     S
Er41     Er40    9.846   1_655     S
Er41     V42    10.176   1_655     S
Er41     Ti47    10.235   .     S
V42     Er41    10.176   1_455     S
Er43     Er44    9.846   1_455     S
Er43     V45    10.176   .     S
Er44     Er43    9.846   1_655     S
Er44     V45    10.176   1_655     S
Er44     Ti46    10.235   .     S
V45     Er44    10.176   1_455     S
Ti46     Ce53    9.636   .     S
Ti46     Ce54    11.072   .     S
Ti46     Ce52    10.174   .     S
Ti46     Ti48    8.685   .     S
Ti46     Ti47    8.405   .     S
Ti47     Ce54    9.636   .     S
Ti47     Ce53    11.072   .     S
Ti47     Ce52    10.174   1_556     S
Ti47     Ti51    8.685   .     S
Ti48     Ce53    9.636   .     S
Ti48     Ce52    11.072   .     S
Ti48     Ce54    10.174   .     S
Ti48     Ti49    8.405   .     S
Ti49     Ce52    9.636   .     S
Ti49     Ce53    11.072   .     S
Ti49     Ce54    10.174   1_554     S
Ti49     Ti50    8.685   .     S
Ti50     Ce52    9.636   .     S
Ti50     Ce54    11.072   1_554     S
Ti50     Ce53    10.174   .     S
Ti50     Ti51    8.405   1_554     S
Ti51     Ce54    9.636   .     S
Ti51     Ce52    11.072   1_556     S
Ti51     Ce53    10.174   .     S
Ti51     Ti50    8.405   1_556     S
Ce52     Ti51    11.072   1_554     S
Ce52     Ti47    10.174   1_554     S
Ce54     Ti50    11.072   1_556     S
Ce54     Ti49    10.174   1_556     S
