data_bah
_audit_creation_date              2020-02-04
_audit_creation_method            'Pymatgen'
_symmetry_space_group_name_H-M    'P1'
_symmetry_Int_Tables_number       1
loop_
_symmetry_equiv_pos_as_xyz
  x,y,z
_cell_length_a                    108.2843
_cell_length_b                    108.2843
_cell_length_c                    108.2843
_cell_angle_alpha                 90.0
_cell_angle_beta                 90.0
_cell_angle_gamma                 90.0
loop_
_atom_site_label
_atom_site_type_symbol
_atom_site_fract_x
_atom_site_fract_y
_atom_site_fract_z
V1     V     0.5462   0.9538   0.3885
V2     V     0.4538   0.9538   0.3885
V3     V     0.5462   0.0462   0.3885
V4     V     0.4538   0.0462   0.3885
V5     V     0.4538   0.0462   0.1115
V6     V     0.5462   0.0462   0.1115
V7     V     0.5462   0.9538   0.1115
V8     V     0.4538   0.9538   0.1115
Er9     Er     0.4538   0.0462   0.2038
Er10     Er     0.4538   0.0462   0.2962
Er11     Er     0.5462   0.0462   0.2038
Er12     Er     0.5462   0.0462   0.2962
Er13     Er     0.5462   0.9538   0.2038
Er14     Er     0.5462   0.9538   0.2962
Er15     Er     0.4538   0.9538   0.2038
Er16     Er     0.4538   0.9538   0.2962
V17     V     0.4538   0.3885   0.9538
V18     V     0.5462   0.3885   0.9538
V19     V     0.4538   0.3885   0.0462
V20     V     0.5462   0.3885   0.0462
Er21     Er     0.4538   0.2962   0.9538
Er22     Er     0.4538   0.2038   0.9538
Er23     Er     0.5462   0.2038   0.9538
Er24     Er     0.5462   0.2962   0.9538
Er25     Er     0.4538   0.2962   0.0462
Er26     Er     0.4538   0.2038   0.0462
Er27     Er     0.5462   0.2038   0.0462
Er28     Er     0.5462   0.2962   0.0462
V29     V     0.4538   0.1115   0.9538
V30     V     0.5462   0.1115   0.9538
V31     V     0.4538   0.1115   0.0462
V32     V     0.5462   0.1115   0.0462
V33     V     0.3885   0.5462   0.9538
V34     V     0.3885   0.4538   0.9538
V35     V     0.3885   0.5462   0.0462
V36     V     0.3885   0.4538   0.0462
V37     V     0.1115   0.5462   0.0462
V38     V     0.1115   0.4538   0.0462
V39     V     0.1115   0.5462   0.9538
V40     V     0.1115   0.4538   0.9538
Er41     Er     0.2038   0.4538   0.0462
Er42     Er     0.2962   0.4538   0.0462
Er43     Er     0.2038   0.5462   0.0462
Er44     Er     0.2962   0.5462   0.0462
Er45     Er     0.2038   0.5462   0.9538
Er46     Er     0.2962   0.5462   0.9538
Er47     Er     0.2038   0.4538   0.9538
Er48     Er     0.2962   0.4538   0.9538
V49     V     0.9538   0.4538   0.3885
V50     V     0.9538   0.5462   0.3885
V51     V     0.0462   0.4538   0.3885
V52     V     0.0462   0.5462   0.3885
Er53     Er     0.9538   0.4538   0.2962
Er54     Er     0.9538   0.4538   0.2038
Er55     Er     0.9538   0.5462   0.2038
Er56     Er     0.9538   0.5462   0.2962
Er57     Er     0.0462   0.4538   0.2962
Er58     Er     0.0462   0.4538   0.2038
Er59     Er     0.0462   0.5462   0.2038
Er60     Er     0.0462   0.5462   0.2962
V61     V     0.9538   0.4538   0.1115
V62     V     0.9538   0.5462   0.1115
V63     V     0.0462   0.4538   0.1115
V64     V     0.0462   0.5462   0.1115
V65     V     0.3885   0.9538   0.4538
V66     V     0.3885   0.9538   0.5462
V67     V     0.3885   0.0462   0.4538
V68     V     0.3885   0.0462   0.5462
V69     V     0.1115   0.0462   0.4538
V70     V     0.1115   0.0462   0.5462
V71     V     0.1115   0.9538   0.4538
V72     V     0.1115   0.9538   0.5462
Er73     Er     0.2038   0.9538   0.4538
Er74     Er     0.2962   0.9538   0.4538
Er75     Er     0.2038   0.9538   0.5462
Er76     Er     0.2962   0.9538   0.5462
Er77     Er     0.2962   0.0462   0.4538
Er78     Er     0.2038   0.0462   0.4538
Er79     Er     0.2038   0.0462   0.5462
Er80     Er     0.2962   0.0462   0.5462
V81     V     0.0462   0.3885   0.4538
V82     V     0.0462   0.3885   0.5462
V83     V     0.9538   0.3885   0.5462
V84     V     0.9538   0.3885   0.4538
V85     V     0.0462   0.1115   0.4538
V86     V     0.0462   0.1115   0.5462
V87     V     0.9538   0.1115   0.5462
V88     V     0.9538   0.1115   0.4538
Er89     Er     0.0462   0.2038   0.4538
Er90     Er     0.0462   0.2962   0.4538
Er91     Er     0.0462   0.2038   0.5462
Er92     Er     0.0462   0.2962   0.5462
Er93     Er     0.9538   0.2038   0.5462
Er94     Er     0.9538   0.2962   0.5462
Er95     Er     0.9538   0.2038   0.4538
Er96     Er     0.9538   0.2962   0.4538
V97     V     0.5462   0.9538   0.6115
V98     V     0.4538   0.9538   0.6115
V99     V     0.4538   0.0462   0.6115
V100     V     0.5462   0.0462   0.6115
V101     V     0.4538   0.9538   0.8885
V102     V     0.5462   0.9538   0.8885
V103     V     0.4538   0.0462   0.8885
V104     V     0.5462   0.0462   0.8885
Er105     Er     0.4538   0.0462   0.7038
Er106     Er     0.5462   0.0462   0.7038
Er107     Er     0.4538   0.9538   0.7038
Er108     Er     0.5462   0.9538   0.7038
Er109     Er     0.4538   0.9538   0.7962
Er110     Er     0.5462   0.9538   0.7962
Er111     Er     0.4538   0.0462   0.7962
Er112     Er     0.5462   0.0462   0.7962
V113     V     0.5462   0.6115   0.9538
V114     V     0.4538   0.6115   0.9538
V115     V     0.5462   0.6115   0.0462
V116     V     0.4538   0.6115   0.0462
Er117     Er     0.4538   0.7962   0.0462
Er118     Er     0.5462   0.7962   0.0462
Er119     Er     0.5462   0.7038   0.0462
Er120     Er     0.4538   0.7038   0.0462
Er121     Er     0.5462   0.7038   0.9538
Er122     Er     0.4538   0.7038   0.9538
Er123     Er     0.4538   0.7962   0.9538
Er124     Er     0.5462   0.7962   0.9538
V125     V     0.5462   0.8885   0.9538
V126     V     0.4538   0.8885   0.9538
V127     V     0.5462   0.8885   0.0462
V128     V     0.4538   0.8885   0.0462
V129     V     0.6115   0.5462   0.9538
V130     V     0.6115   0.4538   0.9538
V131     V     0.6115   0.4538   0.0462
V132     V     0.6115   0.5462   0.0462
V133     V     0.8885   0.5462   0.9538
V134     V     0.8885   0.4538   0.9538
V135     V     0.8885   0.4538   0.0462
V136     V     0.8885   0.5462   0.0462
Er137     Er     0.7038   0.4538   0.0462
Er138     Er     0.7038   0.5462   0.0462
Er139     Er     0.7038   0.4538   0.9538
Er140     Er     0.7038   0.5462   0.9538
Er141     Er     0.7962   0.4538   0.9538
Er142     Er     0.7962   0.5462   0.9538
Er143     Er     0.7962   0.4538   0.0462
Er144     Er     0.7962   0.5462   0.0462
V145     V     0.9538   0.5462   0.6115
V146     V     0.9538   0.4538   0.6115
V147     V     0.0462   0.5462   0.6115
V148     V     0.0462   0.4538   0.6115
Er149     Er     0.0462   0.4538   0.7962
Er150     Er     0.0462   0.5462   0.7962
Er151     Er     0.0462   0.5462   0.7038
Er152     Er     0.0462   0.4538   0.7038
Er153     Er     0.9538   0.5462   0.7038
Er154     Er     0.9538   0.4538   0.7038
Er155     Er     0.9538   0.4538   0.7962
Er156     Er     0.9538   0.5462   0.7962
V157     V     0.0462   0.4538   0.8885
V158     V     0.0462   0.5462   0.8885
V159     V     0.9538   0.5462   0.8885
V160     V     0.9538   0.4538   0.8885
V161     V     0.9538   0.6115   0.5462
V162     V     0.9538   0.6115   0.4538
V163     V     0.0462   0.6115   0.4538
V164     V     0.0462   0.6115   0.5462
V165     V     0.9538   0.8885   0.4538
V166     V     0.9538   0.8885   0.5462
V167     V     0.0462   0.8885   0.4538
V168     V     0.0462   0.8885   0.5462
Er169     Er     0.0462   0.7038   0.4538
Er170     Er     0.0462   0.7038   0.5462
Er171     Er     0.9538   0.7038   0.4538
Er172     Er     0.9538   0.7038   0.5462
Er173     Er     0.9538   0.7962   0.4538
Er174     Er     0.9538   0.7962   0.5462
Er175     Er     0.0462   0.7962   0.4538
Er176     Er     0.0462   0.7962   0.5462
V177     V     0.6115   0.9538   0.5462
V178     V     0.6115   0.9538   0.4538
V179     V     0.6115   0.0462   0.5462
V180     V     0.6115   0.0462   0.4538
V181     V     0.8885   0.0462   0.4538
V182     V     0.8885   0.0462   0.5462
V183     V     0.8885   0.9538   0.5462
V184     V     0.8885   0.9538   0.4538
Er185     Er     0.7038   0.9538   0.5462
Er186     Er     0.7038   0.9538   0.4538
Er187     Er     0.7038   0.0462   0.4538
Er188     Er     0.7038   0.0462   0.5462
Er189     Er     0.7962   0.0462   0.4538
Er190     Er     0.7962   0.0462   0.5462
Er191     Er     0.7962   0.9538   0.4538
Er192     Er     0.7962   0.9538   0.5462
loop_
_geom_bond_atom_site_label_1
_geom_bond_atom_site_label_2
_geom_bond_distance
_geom_bond_site_symmetry_2
_ccdc_geom_bond_type
V1     Er14    10.0   .     S
V1     V2    9.999   .     S
V1     V3    9.999   1_565     S
V1     V178    10.001   .     S
V2     Er16    10.0   .     S
V2     V4    9.999   1_565     S
V2     V65    10.001   .     S
V3     Er12    10.0   .     S
V3     V1    9.999   1_545     S
V3     V4    9.999   .     S
V3     V180    10.001   .     S
V4     Er10    10.0   .     S
V4     V2    9.999   1_545     S
V4     V67    10.001   .     S
V5     V6    9.999   .     S
V5     V8    9.999   1_545     S
V5     Er9    10.0   .     S
V5     V31    10.001   .     S
V6     V7    9.999   1_545     S
V6     Er11    10.0   .     S
V6     V32    10.001   .     S
V7     V6    9.999   1_565     S
V7     Er13    10.0   .     S
V7     V8    9.999   .     S
V7     V127    10.001   .     S
V8     V5    9.999   1_565     S
V8     Er15    10.0   .     S
V8     V128    10.001   .     S
Er9     Er11    9.999   .     S
Er9     Er10    9.999   .     S
Er9     Er15    9.999   1_545     S
Er10     Er12    9.999   .     S
Er10     Er16    9.999   1_545     S
Er11     Er12    9.999   .     S
Er11     Er13    9.999   1_545     S
Er12     Er14    9.999   1_545     S
Er13     Er11    9.999   1_565     S
Er13     Er14    9.999   .     S
Er13     Er15    9.999   .     S
Er14     Er12    9.999   1_565     S
Er14     Er16    9.999   .     S
Er15     Er9    9.999   1_565     S
Er15     Er16    9.999   .     S
Er16     Er10    9.999   1_565     S
V17     V18    9.999   .     S
V17     Er21    10.0   .     S
V17     V19    9.999   1_556     S
V17     V34    10.001   .     S
V18     Er24    10.0   .     S
V18     V20    9.999   1_556     S
V18     V130    10.001   .     S
V19     V20    9.999   .     S
V19     Er25    10.0   .     S
V19     V17    9.999   1_554     S
V19     V36    10.001   .     S
V20     Er28    10.0   .     S
V20     V18    9.999   1_554     S
V20     V131    10.001   .     S
Er21     Er24    9.999   .     S
Er21     Er22    9.999   .     S
Er21     Er25    9.999   1_556     S
Er22     Er23    9.999   .     S
Er22     Er26    9.999   1_556     S
Er22     V29    10.0   .     S
Er23     Er24    9.999   .     S
Er23     Er27    9.999   1_556     S
Er23     V30    10.0   .     S
Er24     Er28    9.999   1_556     S
Er25     Er28    9.999   .     S
Er25     Er26    9.999   .     S
Er25     Er21    9.999   1_554     S
Er26     Er27    9.999   .     S
Er26     Er22    9.999   1_554     S
Er26     V31    10.0   .     S
Er27     Er28    9.999   .     S
Er27     Er23    9.999   1_554     S
Er27     V32    10.0   .     S
Er28     Er24    9.999   1_554     S
V29     V30    9.999   .     S
V29     V31    9.999   1_556     S
V29     V103    10.001   .     S
V30     V32    9.999   1_556     S
V30     V104    10.001   .     S
V31     V32    9.999   .     S
V31     V29    9.999   1_554     S
V32     V30    9.999   1_554     S
V33     Er46    10.0   .     S
V33     V34    9.999   .     S
V33     V35    9.999   1_556     S
V33     V114    10.001   .     S
V34     Er48    10.0   .     S
V34     V36    9.999   1_556     S
V35     Er44    10.0   .     S
V35     V33    9.999   1_554     S
V35     V36    9.999   .     S
V35     V116    10.001   .     S
V36     Er42    10.0   .     S
V36     V34    9.999   1_554     S
V37     V39    9.999   1_554     S
V37     Er43    10.0   .     S
V37     V38    9.999   .     S
V37     V64    10.001   .     S
V38     V40    9.999   1_554     S
V38     Er41    10.0   .     S
V38     V63    10.001   .     S
V39     V37    9.999   1_556     S
V39     Er45    10.0   .     S
V39     V40    9.999   .     S
V39     V158    10.001   .     S
V40     V38    9.999   1_556     S
V40     Er47    10.0   .     S
V40     V157    10.001   .     S
Er41     Er43    9.999   .     S
Er41     Er42    9.999   .     S
Er41     Er47    9.999   1_554     S
Er42     Er44    9.999   .     S
Er42     Er48    9.999   1_554     S
Er43     Er44    9.999   .     S
Er43     Er45    9.999   1_554     S
Er44     Er46    9.999   1_554     S
Er45     Er43    9.999   1_556     S
Er45     Er46    9.999   .     S
Er45     Er47    9.999   .     S
Er46     Er44    9.999   1_556     S
Er46     Er48    9.999   .     S
Er47     Er41    9.999   1_556     S
Er47     Er48    9.999   .     S
Er48     Er42    9.999   1_556     S
V49     V50    9.999   .     S
V49     Er53    10.0   .     S
V49     V51    9.999   1_655     S
V49     V84    10.001   .     S
V50     Er56    10.0   .     S
V50     V52    9.999   1_655     S
V50     V162    10.001   .     S
V51     V52    9.999   .     S
V51     Er57    10.0   .     S
V51     V49    9.999   1_455     S
V51     V81    10.001   .     S
V52     Er60    10.0   .     S
V52     V50    9.999   1_455     S
V52     V163    10.001   .     S
Er53     Er56    9.999   .     S
Er53     Er54    9.999   .     S
Er53     Er57    9.999   1_655     S
Er54     Er55    9.999   .     S
Er54     Er58    9.999   1_655     S
Er54     V61    10.0   .     S
Er55     Er56    9.999   .     S
Er55     Er59    9.999   1_655     S
Er55     V62    10.0   .     S
Er56     Er60    9.999   1_655     S
Er57     Er60    9.999   .     S
Er57     Er58    9.999   .     S
Er57     Er53    9.999   1_455     S
Er58     Er59    9.999   .     S
Er58     Er54    9.999   1_455     S
Er58     V63    10.0   .     S
Er59     Er60    9.999   .     S
Er59     Er55    9.999   1_455     S
Er59     V64    10.0   .     S
Er60     Er56    9.999   1_455     S
V61     V62    9.999   .     S
V61     V63    9.999   1_655     S
V61     V135    10.001   .     S
V62     V64    9.999   1_655     S
V62     V136    10.001   .     S
V63     V64    9.999   .     S
V63     V61    9.999   1_455     S
V64     V62    9.999   1_455     S
V65     Er74    10.0   .     S
V65     V66    9.999   .     S
V65     V67    9.999   1_565     S
V66     Er76    10.0   .     S
V66     V68    9.999   1_565     S
V66     V98    10.001   .     S
V67     V68    9.999   .     S
V67     Er77    10.0   .     S
V67     V65    9.999   1_545     S
V68     Er80    10.0   .     S
V68     V66    9.999   1_545     S
V68     V99    10.001   .     S
V69     V70    9.999   .     S
V69     V71    9.999   1_545     S
V69     Er78    10.0   .     S
V69     V85    10.001   .     S
V70     V72    9.999   1_545     S
V70     Er79    10.0   .     S
V70     V86    10.001   .     S
V71     V69    9.999   1_565     S
V71     V72    9.999   .     S
V71     Er73    10.0   .     S
V71     V167    10.001   .     S
V72     V70    9.999   1_565     S
V72     Er75    10.0   .     S
V72     V168    10.001   .     S
Er73     Er75    9.999   .     S
Er73     Er74    9.999   .     S
Er73     Er78    9.999   1_565     S
Er74     Er76    9.999   .     S
Er74     Er77    9.999   1_565     S
Er75     Er76    9.999   .     S
Er75     Er79    9.999   1_565     S
Er76     Er80    9.999   1_565     S
Er77     Er80    9.999   .     S
Er77     Er78    9.999   .     S
Er77     Er74    9.999   1_545     S
Er78     Er79    9.999   .     S
Er78     Er73    9.999   1_545     S
Er79     Er80    9.999   .     S
Er79     Er75    9.999   1_545     S
Er80     Er76    9.999   1_545     S
V81     Er90    10.0   .     S
V81     V82    9.999   .     S
V81     V84    9.999   1_455     S
V82     Er92    10.0   .     S
V82     V83    9.999   1_455     S
V82     V148    10.001   .     S
V83     V82    9.999   1_655     S
V83     Er94    10.0   .     S
V83     V84    9.999   .     S
V83     V146    10.001   .     S
V84     V81    9.999   1_655     S
V84     Er96    10.0   .     S
V85     V86    9.999   .     S
V85     V88    9.999   1_455     S
V85     Er89    10.0   .     S
V86     V87    9.999   1_455     S
V86     Er91    10.0   .     S
V87     V86    9.999   1_655     S
V87     Er93    10.0   .     S
V87     V88    9.999   .     S
V87     V182    10.001   .     S
V88     V85    9.999   1_655     S
V88     Er95    10.0   .     S
V88     V181    10.001   .     S
Er89     Er91    9.999   .     S
Er89     Er90    9.999   .     S
Er89     Er95    9.999   1_455     S
Er90     Er92    9.999   .     S
Er90     Er96    9.999   1_455     S
Er91     Er92    9.999   .     S
Er91     Er93    9.999   1_455     S
Er92     Er94    9.999   1_455     S
Er93     Er91    9.999   1_655     S
Er93     Er94    9.999   .     S
Er93     Er95    9.999   .     S
Er94     Er92    9.999   1_655     S
Er94     Er96    9.999   .     S
Er95     Er89    9.999   1_655     S
Er95     Er96    9.999   .     S
Er96     Er90    9.999   1_655     S
V97     Er108    10.0   .     S
V97     V98    9.999   .     S
V97     V100    9.999   1_565     S
V97     V177    10.001   .     S
V98     Er107    10.0   .     S
V98     V99    9.999   1_565     S
V99     Er105    10.0   .     S
V99     V100    9.999   .     S
V99     V98    9.999   1_545     S
V100     Er106    10.0   .     S
V100     V97    9.999   1_545     S
V100     V179    10.001   .     S
V101     V102    9.999   .     S
V101     Er109    10.0   .     S
V101     V103    9.999   1_565     S
V101     V126    10.001   .     S
V102     Er110    10.0   .     S
V102     V104    9.999   1_565     S
V102     V125    10.001   .     S
V103     V104    9.999   .     S
V103     Er111    10.0   .     S
V103     V101    9.999   1_545     S
V104     Er112    10.0   .     S
V104     V102    9.999   1_545     S
Er105     Er106    9.999   .     S
Er105     Er111    9.999   .     S
Er105     Er107    9.999   1_545     S
Er106     Er112    9.999   .     S
Er106     Er108    9.999   1_545     S
Er107     Er105    9.999   1_565     S
Er107     Er109    9.999   .     S
Er107     Er108    9.999   .     S
Er108     Er106    9.999   1_565     S
Er108     Er110    9.999   .     S
Er109     Er110    9.999   .     S
Er109     Er111    9.999   1_565     S
Er110     Er112    9.999   1_565     S
Er111     Er112    9.999   .     S
Er111     Er109    9.999   1_545     S
Er112     Er110    9.999   1_545     S
V113     Er121    10.0   .     S
V113     V114    9.999   .     S
V113     V115    9.999   1_556     S
V113     V129    10.001   .     S
V114     Er122    10.0   .     S
V114     V116    9.999   1_556     S
V115     Er119    10.0   .     S
V115     V113    9.999   1_554     S
V115     V116    9.999   .     S
V115     V132    10.001   .     S
V116     Er120    10.0   .     S
V116     V114    9.999   1_554     S
Er117     Er118    9.999   .     S
Er117     Er123    9.999   1_554     S
Er117     Er120    9.999   .     S
Er117     V128    10.0   .     S
Er118     Er124    9.999   1_554     S
Er118     Er119    9.999   .     S
Er118     V127    10.0   .     S
Er119     Er121    9.999   1_554     S
Er119     Er120    9.999   .     S
Er120     Er122    9.999   1_554     S
Er121     Er119    9.999   1_556     S
Er121     Er124    9.999   .     S
Er121     Er122    9.999   .     S
Er122     Er120    9.999   1_556     S
Er122     Er123    9.999   .     S
Er123     Er117    9.999   1_556     S
Er123     Er124    9.999   .     S
Er123     V126    10.0   .     S
Er124     Er118    9.999   1_556     S
Er124     V125    10.0   .     S
V125     V126    9.999   .     S
V125     V127    9.999   1_556     S
V126     V128    9.999   1_556     S
V127     V125    9.999   1_554     S
V127     V128    9.999   .     S
V128     V126    9.999   1_554     S
V129     Er140    10.0   .     S
V129     V130    9.999   .     S
V129     V132    9.999   1_556     S
V130     Er139    10.0   .     S
V130     V131    9.999   1_556     S
V131     Er137    10.0   .     S
V131     V132    9.999   .     S
V131     V130    9.999   1_554     S
V132     Er138    10.0   .     S
V132     V129    9.999   1_554     S
V133     Er142    10.0   .     S
V133     V134    9.999   .     S
V133     V136    9.999   1_556     S
V133     V159    10.001   .     S
V134     Er141    10.0   .     S
V134     V135    9.999   1_556     S
V134     V160    10.001   .     S
V135     V136    9.999   .     S
V135     Er143    10.0   .     S
V135     V134    9.999   1_554     S
V136     Er144    10.0   .     S
V136     V133    9.999   1_554     S
Er137     Er138    9.999   .     S
Er137     Er143    9.999   .     S
Er137     Er139    9.999   1_554     S
Er138     Er144    9.999   .     S
Er138     Er140    9.999   1_554     S
Er139     Er137    9.999   1_556     S
Er139     Er141    9.999   .     S
Er139     Er140    9.999   .     S
Er140     Er138    9.999   1_556     S
Er140     Er142    9.999   .     S
Er141     Er142    9.999   .     S
Er141     Er143    9.999   1_556     S
Er142     Er144    9.999   1_556     S
Er143     Er144    9.999   .     S
Er143     Er141    9.999   1_554     S
Er144     Er142    9.999   1_554     S
V145     Er153    10.0   .     S
V145     V146    9.999   .     S
V145     V147    9.999   1_655     S
V145     V161    10.001   .     S
V146     Er154    10.0   .     S
V146     V148    9.999   1_655     S
V147     Er151    10.0   .     S
V147     V145    9.999   1_455     S
V147     V148    9.999   .     S
V147     V164    10.001   .     S
V148     Er152    10.0   .     S
V148     V146    9.999   1_455     S
Er149     Er150    9.999   .     S
Er149     Er155    9.999   1_455     S
Er149     Er152    9.999   .     S
Er149     V157    10.0   .     S
Er150     Er156    9.999   1_455     S
Er150     Er151    9.999   .     S
Er150     V158    10.0   .     S
Er151     Er153    9.999   1_455     S
Er151     Er152    9.999   .     S
Er152     Er154    9.999   1_455     S
Er153     Er151    9.999   1_655     S
Er153     Er156    9.999   .     S
Er153     Er154    9.999   .     S
Er154     Er152    9.999   1_655     S
Er154     Er155    9.999   .     S
Er155     Er149    9.999   1_655     S
Er155     Er156    9.999   .     S
Er155     V160    10.0   .     S
Er156     Er150    9.999   1_655     S
Er156     V159    10.0   .     S
V157     V158    9.999   .     S
V157     V160    9.999   1_455     S
V158     V159    9.999   1_455     S
V159     V158    9.999   1_655     S
V159     V160    9.999   .     S
V160     V157    9.999   1_655     S
V161     Er172    10.0   .     S
V161     V162    9.999   .     S
V161     V164    9.999   1_655     S
V162     Er171    10.0   .     S
V162     V163    9.999   1_655     S
V163     Er169    10.0   .     S
V163     V164    9.999   .     S
V163     V162    9.999   1_455     S
V164     Er170    10.0   .     S
V164     V161    9.999   1_455     S
V165     V166    9.999   .     S
V165     Er173    10.0   .     S
V165     V167    9.999   1_655     S
V165     V184    10.001   .     S
V166     Er174    10.0   .     S
V166     V168    9.999   1_655     S
V166     V183    10.001   .     S
V167     V168    9.999   .     S
V167     Er175    10.0   .     S
V167     V165    9.999   1_455     S
V168     Er176    10.0   .     S
V168     V166    9.999   1_455     S
Er169     Er170    9.999   .     S
Er169     Er175    9.999   .     S
Er169     Er171    9.999   1_455     S
Er170     Er176    9.999   .     S
Er170     Er172    9.999   1_455     S
Er171     Er169    9.999   1_655     S
Er171     Er173    9.999   .     S
Er171     Er172    9.999   .     S
Er172     Er170    9.999   1_655     S
Er172     Er174    9.999   .     S
Er173     Er174    9.999   .     S
Er173     Er175    9.999   1_655     S
Er174     Er176    9.999   1_655     S
Er175     Er176    9.999   .     S
Er175     Er173    9.999   1_455     S
Er176     Er174    9.999   1_455     S
V177     Er185    10.0   .     S
V177     V178    9.999   .     S
V177     V179    9.999   1_565     S
V178     Er186    10.0   .     S
V178     V180    9.999   1_565     S
V179     Er188    10.0   .     S
V179     V177    9.999   1_545     S
V179     V180    9.999   .     S
V180     Er187    10.0   .     S
V180     V178    9.999   1_545     S
V181     V182    9.999   .     S
V181     Er189    10.0   .     S
V181     V184    9.999   1_545     S
V182     Er190    10.0   .     S
V182     V183    9.999   1_545     S
V183     V182    9.999   1_565     S
V183     Er192    10.0   .     S
V183     V184    9.999   .     S
V184     V181    9.999   1_565     S
V184     Er191    10.0   .     S
Er185     Er192    9.999   .     S
Er185     Er186    9.999   .     S
Er185     Er188    9.999   1_565     S
Er186     Er191    9.999   .     S
Er186     Er187    9.999   1_565     S
Er187     Er189    9.999   .     S
Er187     Er188    9.999   .     S
Er187     Er186    9.999   1_545     S
Er188     Er190    9.999   .     S
Er188     Er185    9.999   1_545     S
Er189     Er190    9.999   .     S
Er189     Er191    9.999   1_545     S
Er190     Er192    9.999   1_545     S
Er191     Er189    9.999   1_565     S
Er191     Er192    9.999   .     S
Er192     Er190    9.999   1_565     S
