data_bam
_audit_creation_date              2020-02-04
_audit_creation_method            'Pymatgen'
_symmetry_space_group_name_H-M    'P1'
_symmetry_Int_Tables_number       1
loop_
_symmetry_equiv_pos_as_xyz
  x,y,z
_cell_length_a                    75.6677
_cell_length_b                    75.6677
_cell_length_c                    31.4955
_cell_angle_alpha                 90.0
_cell_angle_beta                 90.0
_cell_angle_gamma                 120.0
loop_
_atom_site_label
_atom_site_type_symbol
_atom_site_fract_x
_atom_site_fract_y
_atom_site_fract_z
Er1     Er     0.5279   0.6042   0.6587
Er2     Er     0.5279   0.6042   0.3412
Er3     Er     0.6042   0.5279   0.6587
Er4     Er     0.6042   0.5279   0.3412
Er5     Er     0.3958   0.4721   0.6587
Er6     Er     0.3958   0.4721   0.3412
Er7     Er     0.4721   0.3958   0.6587
Er8     Er     0.4721   0.3958   0.3412
Er9     Er     0.9237   0.5279   0.6587
Er10     Er     0.9237   0.5279   0.3412
Er11     Er     0.0763   0.6042   0.6587
Er12     Er     0.0763   0.6042   0.3412
Er13     Er     0.9237   0.3958   0.6587
Er14     Er     0.9237   0.3958   0.3412
Er15     Er     0.0763   0.4721   0.6587
Er16     Er     0.0763   0.4721   0.3412
V17     V     0.4655   0.6667   0.1588
V18     V     0.4655   0.7988   0.1588
V19     V     0.4655   0.6667   0.8412
V20     V     0.4655   0.7988   0.8412
V21     V     0.2012   0.5345   0.1588
V22     V     0.3333   0.5345   0.1588
V23     V     0.2012   0.5345   0.8412
V24     V     0.3333   0.5345   0.8412
V25     V     0.3333   0.7988   0.1588
V26     V     0.2012   0.6667   0.1588
V27     V     0.3333   0.7988   0.8412
V28     V     0.2012   0.6667   0.8412
V29     V     0.5345   0.3333   0.1588
V30     V     0.5345   0.2012   0.1588
V31     V     0.5345   0.3333   0.8412
V32     V     0.5345   0.2012   0.8412
V33     V     0.7988   0.3333   0.1588
V34     V     0.6667   0.2012   0.1588
V35     V     0.7988   0.3333   0.8412
V36     V     0.6667   0.2012   0.8412
V37     V     0.7988   0.4655   0.1588
V38     V     0.6667   0.4655   0.1588
V39     V     0.7988   0.4655   0.8412
V40     V     0.6667   0.4655   0.8412
Er41     Er     0.5279   0.9237   0.6587
Er42     Er     0.5279   0.9237   0.3412
Er43     Er     0.6042   0.0763   0.6587
Er44     Er     0.6042   0.0763   0.3412
Er45     Er     0.3958   0.9237   0.6587
Er46     Er     0.3958   0.9237   0.3412
Er47     Er     0.4721   0.0763   0.6587
Er48     Er     0.4721   0.0763   0.3412
loop_
_geom_bond_atom_site_label_1
_geom_bond_atom_site_label_2
_geom_bond_distance
_geom_bond_site_symmetry_2
_ccdc_geom_bond_type
Er1     Er2    10.0   .     S
Er1     Er3    10.0   .     S
Er1     Er5    10.0   .     S
Er1     V19    10.0   .     S
Er2     Er4    10.0   .     S
Er2     Er6    10.0   .     S
Er2     V17    10.0   .     S
Er3     Er4    10.0   .     S
Er3     Er7    10.0   .     S
Er3     V40    10.0   .     S
Er4     Er8    10.0   .     S
Er4     V38    10.0   .     S
Er5     Er6    10.0   .     S
Er5     Er7    10.0   .     S
Er5     V24    10.0   .     S
Er6     Er8    10.0   .     S
Er6     V22    10.0   .     S
Er7     Er8    10.0   .     S
Er7     V31    10.0   .     S
Er8     V29    10.0   .     S
Er9     Er10    10.0   .     S
Er9     Er11    10.0   1_655     S
Er9     Er13    10.0   .     S
Er9     V39    10.0   .     S
Er10     Er12    10.0   1_655     S
Er10     Er14    10.0   .     S
Er10     V37    10.0   .     S
Er11     Er12    10.0   .     S
Er11     Er9    10.0   1_455     S
Er11     Er15    10.0   .     S
Er11     V28    10.0   .     S
Er12     Er10    10.0   1_455     S
Er12     Er16    10.0   .     S
Er12     V26    10.0   .     S
Er13     Er14    10.0   .     S
Er13     Er15    10.0   1_655     S
Er13     V35    10.0   .     S
Er14     Er16    10.0   1_655     S
Er14     V33    10.0   .     S
Er15     Er16    10.0   .     S
Er15     Er13    10.0   1_455     S
Er15     V23    10.0   .     S
Er16     Er14    10.0   1_455     S
Er16     V21    10.0   .     S
V17     V18    9.999   .     S
V17     V19    10.0   1_554     S
V17     V22    10.0   .     S
V18     V20    10.0   1_554     S
V18     V25    10.0   .     S
V18     Er42    10.0   .     S
V19     V20    9.999   .     S
V19     V17    10.0   1_556     S
V19     V24    10.0   .     S
V20     V18    10.0   1_556     S
V20     V27    10.0   .     S
V20     Er41    10.0   .     S
V21     V22    9.999   .     S
V21     V23    10.0   1_554     S
V21     V26    10.0   .     S
V22     V24    10.0   1_554     S
V23     V24    9.999   .     S
V23     V21    10.0   1_556     S
V23     V28    10.0   .     S
V24     V22    10.0   1_556     S
V25     V26    9.999   .     S
V25     V27    10.0   1_554     S
V25     Er46    10.0   .     S
V26     V28    10.0   1_554     S
V27     V28    9.999   .     S
V27     V25    10.0   1_556     S
V27     Er45    10.0   .     S
V28     V26    10.0   1_556     S
V29     V30    9.999   .     S
V29     V31    10.0   1_554     S
V29     V38    10.0   .     S
V30     V32    10.0   1_554     S
V30     V34    10.0   .     S
V30     Er48    10.0   .     S
V31     V32    9.999   .     S
V31     V29    10.0   1_556     S
V31     V40    10.0   .     S
V32     V30    10.0   1_556     S
V32     V36    10.0   .     S
V32     Er47    10.0   .     S
V33     V34    9.999   .     S
V33     V35    10.0   1_554     S
V33     V37    10.0   .     S
V34     V36    10.0   1_554     S
V34     Er44    10.0   .     S
V35     V36    9.999   .     S
V35     V33    10.0   1_556     S
V35     V39    10.0   .     S
V36     V34    10.0   1_556     S
V36     Er43    10.0   .     S
V37     V38    9.999   .     S
V37     V39    10.0   1_554     S
V38     V40    10.0   1_554     S
V39     V40    9.999   .     S
V39     V37    10.0   1_556     S
V40     V38    10.0   1_556     S
Er41     Er42    10.0   .     S
Er41     Er43    10.0   1_565     S
Er41     Er45    10.0   .     S
Er42     Er44    10.0   1_565     S
Er42     Er46    10.0   .     S
Er43     Er44    10.0   .     S
Er43     Er41    10.0   1_545     S
Er43     Er47    10.0   .     S
Er44     Er42    10.0   1_545     S
Er44     Er48    10.0   .     S
Er45     Er46    10.0   .     S
Er45     Er47    10.0   1_565     S
Er46     Er48    10.0   1_565     S
Er47     Er48    10.0   .     S
Er47     Er45    10.0   1_545     S
Er48     Er46    10.0   1_545     S
