data_ban
_audit_creation_date              2020-02-04
_audit_creation_method            'Pymatgen'
_symmetry_space_group_name_H-M    'P1'
_symmetry_Int_Tables_number       1
loop_
_symmetry_equiv_pos_as_xyz
  x,y,z
_cell_length_a                    47.1073
_cell_length_b                    47.1073
_cell_length_c                    83.8018
_cell_angle_alpha                 90.0
_cell_angle_beta                 90.0
_cell_angle_gamma                 90.0
loop_
_atom_site_label
_atom_site_type_symbol
_atom_site_fract_x
_atom_site_fract_y
_atom_site_fract_z
V1     V     0.3939   0.1439   0.4764
V2     V     0.6061   0.1439   0.4764
V3     V     0.3939   0.3561   0.4764
V4     V     0.6061   0.3561   0.4764
V5     V     0.1061   0.8561   0.2736
V6     V     0.8939   0.8561   0.2736
V7     V     0.8939   0.6439   0.2736
V8     V     0.1061   0.6439   0.2736
Er9     Er     0.2921   0.8561   0.3311
Er10     Er     0.2921   0.6439   0.3311
Er11     Er     0.6061   0.9579   0.4189
Er12     Er     0.3939   0.9579   0.4189
Er13     Er     0.3939   0.5421   0.4189
Er14     Er     0.6061   0.5421   0.4189
Er15     Er     0.7079   0.8561   0.3311
Er16     Er     0.7079   0.6439   0.3311
V17     V     0.8939   0.3561   0.7264
V18     V     0.1061   0.3561   0.7264
V19     V     0.1061   0.1439   0.7264
V20     V     0.8939   0.1439   0.7264
V21     V     0.6061   0.8561   0.5236
V22     V     0.3939   0.8561   0.5236
V23     V     0.6061   0.6439   0.5236
V24     V     0.3939   0.6439   0.5236
Er25     Er     0.7079   0.1439   0.6689
Er26     Er     0.7079   0.3561   0.6689
Er27     Er     0.6061   0.0421   0.5811
Er28     Er     0.3939   0.0421   0.5811
Er29     Er     0.2921   0.1439   0.6689
Er30     Er     0.2921   0.3561   0.6689
Er31     Er     0.6061   0.4579   0.5811
Er32     Er     0.3939   0.4579   0.5811
V33     V     0.3939   0.8561   0.2264
V34     V     0.6061   0.8561   0.2264
V35     V     0.6061   0.6439   0.2264
V36     V     0.3939   0.6439   0.2264
V37     V     0.1061   0.1439   0.0236
V38     V     0.8939   0.1439   0.0236
V39     V     0.1061   0.3561   0.0236
V40     V     0.8939   0.3561   0.0236
Er41     Er     0.7921   0.8561   0.1689
Er42     Er     0.7921   0.6439   0.1689
Er43     Er     0.1061   0.5421   0.0811
Er44     Er     0.8939   0.5421   0.0811
Er45     Er     0.1061   0.9579   0.0811
Er46     Er     0.8939   0.9579   0.0811
Er47     Er     0.2079   0.8561   0.1689
Er48     Er     0.2079   0.6439   0.1689
V49     V     0.6061   0.3561   0.7736
V50     V     0.3939   0.3561   0.7736
V51     V     0.3939   0.1439   0.7736
V52     V     0.6061   0.1439   0.7736
V53     V     0.1061   0.8561   0.9764
V54     V     0.8939   0.8561   0.9764
V55     V     0.8939   0.6439   0.9764
V56     V     0.1061   0.6439   0.9764
Er57     Er     0.1061   0.4579   0.9189
Er58     Er     0.8939   0.4579   0.9189
Er59     Er     0.7921   0.1439   0.8311
Er60     Er     0.7921   0.3561   0.8311
Er61     Er     0.2079   0.1439   0.8311
Er62     Er     0.2079   0.3561   0.8311
Er63     Er     0.8939   0.0421   0.9189
Er64     Er     0.1061   0.0421   0.9189
loop_
_geom_bond_atom_site_label_1
_geom_bond_atom_site_label_2
_geom_bond_distance
_geom_bond_site_symmetry_2
_ccdc_geom_bond_type
V1     V2    10.0   .     S
V1     V3    10.0   .     S
V1     Er12    10.0   1_545     S
V1     Er28    10.0   .     S
V2     V4    10.0   .     S
V2     Er11    10.0   1_545     S
V2     Er27    10.0   .     S
V3     V4    10.0   .     S
V3     Er13    10.0   .     S
V3     Er32    10.0   .     S
V4     Er14    10.0   .     S
V4     Er31    10.0   .     S
V5     V6    10.0   1_455     S
V5     V8    10.0   .     S
V5     Er9    10.0   .     S
V5     Er47    10.0   .     S
V6     V5    10.0   1_655     S
V6     V7    10.0   .     S
V6     Er15    10.0   .     S
V6     Er41    10.0   .     S
V7     V8    10.0   1_655     S
V7     Er16    10.0   .     S
V7     Er42    10.0   .     S
V8     V7    10.0   1_455     S
V8     Er10    10.0   .     S
V8     Er48    10.0   .     S
Er9     V33    10.0   .     S
Er9     Er10    10.0   .     S
Er9     Er12    10.0   .     S
Er10     V36    10.0   .     S
Er10     Er13    10.0   .     S
Er11     V21    10.0   .     S
Er11     V2    10.0   1_565     S
Er11     Er12    10.0   .     S
Er11     Er15    10.0   .     S
Er12     V22    10.0   .     S
Er12     V1    10.0   1_565     S
Er13     V24    10.0   .     S
Er13     Er14    10.0   .     S
Er14     V23    10.0   .     S
Er14     Er16    10.0   .     S
Er15     V34    10.0   .     S
Er15     Er16    10.0   .     S
Er16     V35    10.0   .     S
V17     V20    10.0   .     S
V17     V18    10.0   1_655     S
V17     Er26    10.0   .     S
V17     Er60    10.0   .     S
V18     V17    10.0   1_455     S
V18     V19    10.0   .     S
V18     Er30    10.0   .     S
V18     Er62    10.0   .     S
V19     V20    10.0   1_455     S
V19     Er29    10.0   .     S
V19     Er61    10.0   .     S
V20     V19    10.0   1_655     S
V20     Er25    10.0   .     S
V20     Er59    10.0   .     S
V21     V22    10.0   .     S
V21     V23    10.0   .     S
V21     Er27    10.0   1_565     S
V22     V24    10.0   .     S
V22     Er28    10.0   1_565     S
V23     V24    10.0   .     S
V23     Er31    10.0   .     S
V24     Er32    10.0   .     S
Er25     V52    10.0   .     S
Er25     Er26    10.0   .     S
Er25     Er27    10.0   .     S
Er26     V49    10.0   .     S
Er26     Er31    10.0   .     S
Er27     V21    10.0   1_545     S
Er27     Er28    10.0   .     S
Er28     V22    10.0   1_545     S
Er28     Er29    10.0   .     S
Er29     V51    10.0   .     S
Er29     Er30    10.0   .     S
Er30     V50    10.0   .     S
Er30     Er32    10.0   .     S
Er31     Er32    10.0   .     S
V33     V34    10.0   .     S
V33     V36    10.0   .     S
V33     Er47    10.0   .     S
V34     V35    10.0   .     S
V34     Er41    10.0   .     S
V35     V36    10.0   .     S
V35     Er42    10.0   .     S
V36     Er48    10.0   .     S
V37     V38    10.0   1_455     S
V37     V39    10.0   .     S
V37     Er45    10.0   1_545     S
V37     Er64    10.0   1_554     S
V38     V37    10.0   1_655     S
V38     V40    10.0   .     S
V38     Er46    10.0   1_545     S
V38     Er63    10.0   1_554     S
V39     V40    10.0   1_455     S
V39     Er43    10.0   .     S
V39     Er57    10.0   1_554     S
V40     V39    10.0   1_655     S
V40     Er44    10.0   .     S
V40     Er58    10.0   1_554     S
Er41     Er42    10.0   .     S
Er41     Er46    10.0   .     S
Er42     Er44    10.0   .     S
Er43     V56    10.0   1_554     S
Er43     Er44    10.0   1_455     S
Er43     Er48    10.0   .     S
Er44     V55    10.0   1_554     S
Er44     Er43    10.0   1_655     S
Er45     V53    10.0   1_554     S
Er45     V37    10.0   1_565     S
Er45     Er46    10.0   1_455     S
Er45     Er47    10.0   .     S
Er46     V54    10.0   1_554     S
Er46     V38    10.0   1_565     S
Er46     Er45    10.0   1_655     S
Er47     Er48    10.0   .     S
V49     V52    10.0   .     S
V49     V50    10.0   .     S
V49     Er60    10.0   .     S
V50     V51    10.0   .     S
V50     Er62    10.0   .     S
V51     V52    10.0   .     S
V51     Er61    10.0   .     S
V52     Er59    10.0   .     S
V53     Er45    10.0   1_556     S
V53     V54    10.0   1_455     S
V53     V56    10.0   .     S
V53     Er64    10.0   1_565     S
V54     Er46    10.0   1_556     S
V54     V53    10.0   1_655     S
V54     V55    10.0   .     S
V54     Er63    10.0   1_565     S
V55     Er44    10.0   1_556     S
V55     V56    10.0   1_655     S
V55     Er58    10.0   .     S
V56     Er43    10.0   1_556     S
V56     V55    10.0   1_455     S
V56     Er57    10.0   .     S
Er57     V39    10.0   1_556     S
Er57     Er58    10.0   1_455     S
Er57     Er62    10.0   .     S
Er58     V40    10.0   1_556     S
Er58     Er57    10.0   1_655     S
Er58     Er60    10.0   .     S
Er59     Er60    10.0   .     S
Er59     Er63    10.0   .     S
Er61     Er62    10.0   .     S
Er61     Er64    10.0   .     S
Er63     V38    10.0   1_556     S
Er63     V54    10.0   1_545     S
Er63     Er64    10.0   1_655     S
Er64     V37    10.0   1_556     S
Er64     V53    10.0   1_545     S
Er64     Er63    10.0   1_455     S
