data_bao
_audit_creation_date              2020-02-04
_audit_creation_method            'Pymatgen'
_symmetry_space_group_name_H-M    'P1'
_symmetry_Int_Tables_number       1
loop_
_symmetry_equiv_pos_as_xyz
  x,y,z
_cell_length_a                    30.8487
_cell_length_b                    30.8487
_cell_length_c                    22.4894
_cell_angle_alpha                 90.0
_cell_angle_beta                 90.0
_cell_angle_gamma                 120.0
loop_
_atom_site_label
_atom_site_type_symbol
_atom_site_fract_x
_atom_site_fract_y
_atom_site_fract_z
Er1     Er     0.8128   0.6257   0.5
Er2     Er     0.8128   0.1872   0.5
Er3     Er     0.6257   0.8128   0.5
V4     V     0.6667   0.3333   0.7777
V5     V     0.6667   0.3333   0.2223
Er6     Er     0.1872   0.8128   0.5
Er7     Er     0.3743   0.1872   0.5
Er8     Er     0.1872   0.3743   0.5
V9     V     0.3333   0.6667   0.7777
V10     V     0.3333   0.6667   0.2223
loop_
_geom_bond_atom_site_label_1
_geom_bond_atom_site_label_2
_geom_bond_distance
_geom_bond_site_symmetry_2
_ccdc_geom_bond_type
Er1     Er3    10.0   .     S
Er1     V4    10.0   .     S
Er1     V5    10.0   .     S
Er1     Er6    10.0   1_655     S
Er2     Er3    10.0   1_545     S
Er2     Er8    10.0   1_655     S
Er2     V4    10.0   .     S
Er2     V5    10.0   .     S
Er3     Er2    10.0   1_565     S
Er3     V9    10.0   .     S
Er3     V10    10.0   .     S
V4     Er7    10.0   .     S
V4     V5    10.0   1_556     S
V5     V4    10.0   1_554     S
V5     Er7    10.0   .     S
Er6     Er7    10.0   1_565     S
Er6     Er1    10.0   1_455     S
Er6     V9    10.0   .     S
Er6     V10    10.0   .     S
Er7     Er6    10.0   1_545     S
Er7     Er8    10.0   .     S
Er8     Er2    10.0   1_455     S
Er8     V9    10.0   .     S
Er8     V10    10.0   .     S
V9     V10    10.0   1_556     S
V10     V9    10.0   1_554     S
