data_baq
_audit_creation_date              2020-02-04
_audit_creation_method            'Pymatgen'
_symmetry_space_group_name_H-M    'P1'
_symmetry_Int_Tables_number       1
loop_
_symmetry_equiv_pos_as_xyz
  x,y,z
_cell_length_a                    82.9253
_cell_length_b                    82.9253
_cell_length_c                    82.9253
_cell_angle_alpha                 90.0
_cell_angle_beta                 90.0
_cell_angle_gamma                 90.0
loop_
_atom_site_label
_atom_site_type_symbol
_atom_site_fract_x
_atom_site_fract_y
_atom_site_fract_z
Er1     Er     0.9397   0.8544   0.5
Er2     Er     0.8544   0.9397   0.5
Er3     Er     0.9397   0.5   0.8544
Er4     Er     0.8544   0.5   0.9397
Er5     Er     0.5   0.9397   0.8544
Er6     Er     0.5   0.8544   0.9397
Er7     Er     0.5603   0.6456   0.0
Er8     Er     0.6456   0.5603   0.0
V9     V     0.5603   0.75   0.9397
V10     V     0.75   0.5603   0.9397
V11     V     0.75   0.5603   0.0603
V12     V     0.5603   0.75   0.0603
Er13     Er     0.6456   0.0   0.5603
Er14     Er     0.5603   0.0   0.6456
V15     V     0.75   0.9397   0.5603
V16     V     0.5603   0.9397   0.75
V17     V     0.5603   0.0603   0.75
V18     V     0.75   0.0603   0.5603
Er19     Er     0.0   0.5603   0.6456
Er20     Er     0.0   0.6456   0.5603
V21     V     0.9397   0.5603   0.75
V22     V     0.9397   0.75   0.5603
V23     V     0.0603   0.75   0.5603
V24     V     0.0603   0.5603   0.75
Er25     Er     0.8544   0.0603   0.5
Er26     Er     0.9397   0.1456   0.5
Er27     Er     0.0   0.4397   0.6456
Er28     Er     0.0   0.3544   0.5603
V29     V     0.9397   0.4397   0.75
V30     V     0.9397   0.25   0.5603
V31     V     0.0603   0.4397   0.75
V32     V     0.0603   0.25   0.5603
Er33     Er     0.1456   0.0603   0.5
Er34     Er     0.0603   0.1456   0.5
Er35     Er     0.4397   0.0   0.6456
Er36     Er     0.3544   0.0   0.5603
V37     V     0.4397   0.9397   0.75
V38     V     0.25   0.9397   0.5603
V39     V     0.4397   0.0603   0.75
V40     V     0.25   0.0603   0.5603
Er41     Er     0.0603   0.8544   0.5
Er42     Er     0.1456   0.9397   0.5
Er43     Er     0.5   0.8544   0.0603
Er44     Er     0.5   0.9397   0.1456
Er45     Er     0.6456   0.0   0.4397
Er46     Er     0.5603   0.0   0.3544
V47     V     0.75   0.9397   0.4397
V48     V     0.5603   0.9397   0.25
V49     V     0.75   0.0603   0.4397
V50     V     0.5603   0.0603   0.25
Er51     Er     0.3544   0.0   0.4397
Er52     Er     0.4397   0.0   0.3544
V53     V     0.25   0.9397   0.4397
V54     V     0.4397   0.9397   0.25
V55     V     0.4397   0.0603   0.25
V56     V     0.25   0.0603   0.4397
Er57     Er     0.5   0.0603   0.1456
Er58     Er     0.5   0.1456   0.0603
Er59     Er     0.6456   0.4397   0.0
Er60     Er     0.5603   0.3544   0.0
V61     V     0.75   0.4397   0.9397
V62     V     0.5603   0.25   0.9397
V63     V     0.75   0.4397   0.0603
V64     V     0.5603   0.25   0.0603
Er65     Er     0.5   0.0603   0.8544
Er66     Er     0.5   0.1456   0.9397
Er67     Er     0.0603   0.5   0.8544
Er68     Er     0.1456   0.5   0.9397
Er69     Er     0.4397   0.6456   0.0
Er70     Er     0.3544   0.5603   0.0
V71     V     0.4397   0.75   0.9397
V72     V     0.25   0.5603   0.9397
V73     V     0.4397   0.75   0.0603
V74     V     0.25   0.5603   0.0603
Er75     Er     0.4397   0.3544   0.0
Er76     Er     0.3544   0.4397   0.0
V77     V     0.4397   0.25   0.9397
V78     V     0.25   0.4397   0.9397
V79     V     0.25   0.4397   0.0603
V80     V     0.4397   0.25   0.0603
Er81     Er     0.1456   0.5   0.0603
Er82     Er     0.0603   0.5   0.1456
Er83     Er     0.0   0.6456   0.4397
Er84     Er     0.0   0.5603   0.3544
V85     V     0.9397   0.75   0.4397
V86     V     0.9397   0.5603   0.25
V87     V     0.0603   0.75   0.4397
V88     V     0.0603   0.5603   0.25
Er89     Er     0.8544   0.5   0.0603
Er90     Er     0.9397   0.5   0.1456
Er91     Er     0.0   0.4397   0.3544
Er92     Er     0.0   0.3544   0.4397
V93     V     0.9397   0.4397   0.25
V94     V     0.9397   0.25   0.4397
V95     V     0.0603   0.25   0.4397
V96     V     0.0603   0.4397   0.25
loop_
_geom_bond_atom_site_label_1
_geom_bond_atom_site_label_2
_geom_bond_distance
_geom_bond_site_symmetry_2
_ccdc_geom_bond_type
Er1     V85    10.0   .     S
Er1     V22    10.0   .     S
Er1     Er2    10.0   .     S
Er1     Er41    10.001   1_655     S
Er2     V15    10.0   .     S
Er2     V47    10.0   .     S
Er2     Er25    10.001   1_565     S
Er3     V21    10.0   .     S
Er3     V29    10.0   .     S
Er3     Er4    10.0   .     S
Er3     Er67    10.001   1_655     S
Er4     V61    10.0   .     S
Er4     V10    10.0   .     S
Er4     Er89    10.001   1_556     S
Er5     V37    10.0   .     S
Er5     V16    10.0   .     S
Er5     Er6    10.0   .     S
Er5     Er65    10.001   1_565     S
Er6     V9    10.0   .     S
Er6     V71    10.0   .     S
Er6     Er43    10.001   1_556     S
Er7     V12    10.0   .     S
Er7     V9    10.0   1_554     S
Er7     Er8    10.0   .     S
Er7     Er69    10.001   .     S
Er8     V11    10.0   .     S
Er8     V10    10.0   1_554     S
Er8     Er59    10.001   .     S
V9     V71    10.001   .     S
V9     Er7    10.0   1_556     S
V9     V12    10.001   1_556     S
V10     V61    10.001   .     S
V10     Er8    10.0   1_556     S
V10     V11    10.001   1_556     S
V11     V10    10.001   1_554     S
V11     Er89    10.0   .     S
V11     V63    10.001   .     S
V12     V9    10.001   1_554     S
V12     Er43    10.0   .     S
V12     V73    10.001   .     S
Er13     V18    10.0   .     S
Er13     V15    10.0   1_545     S
Er13     Er14    10.0   .     S
Er13     Er45    10.001   .     S
Er14     V17    10.0   .     S
Er14     V16    10.0   1_545     S
Er14     Er35    10.001   .     S
V15     V47    10.001   .     S
V15     Er13    10.0   1_565     S
V15     V18    10.001   1_565     S
V16     V37    10.001   .     S
V16     Er14    10.0   1_565     S
V16     V17    10.001   1_565     S
V17     V16    10.001   1_545     S
V17     Er65    10.0   .     S
V17     V39    10.001   .     S
V18     V15    10.001   1_545     S
V18     Er25    10.0   .     S
V18     V49    10.001   .     S
Er19     V24    10.0   .     S
Er19     V21    10.0   1_455     S
Er19     Er20    10.0   .     S
Er19     Er27    10.001   .     S
Er20     V23    10.0   .     S
Er20     V22    10.0   1_455     S
Er20     Er83    10.001   .     S
V21     V29    10.001   .     S
V21     Er19    10.0   1_655     S
V21     V24    10.001   1_655     S
V22     V85    10.001   .     S
V22     Er20    10.0   1_655     S
V22     V23    10.001   1_655     S
V23     V22    10.001   1_455     S
V23     Er41    10.0   .     S
V23     V87    10.001   .     S
V24     V21    10.001   1_455     S
V24     Er67    10.0   .     S
V24     V31    10.001   .     S
Er25     V49    10.0   .     S
Er25     Er26    10.0   .     S
Er25     Er2    10.001   1_545     S
Er26     V30    10.0   .     S
Er26     V94    10.0   .     S
Er26     Er34    10.001   1_655     S
Er27     V31    10.0   .     S
Er27     V29    10.0   1_455     S
Er27     Er28    10.0   .     S
Er28     V32    10.0   .     S
Er28     V30    10.0   1_455     S
Er28     Er92    10.001   .     S
V29     Er27    10.0   1_655     S
V29     V31    10.001   1_655     S
V30     V94    10.001   .     S
V30     Er28    10.0   1_655     S
V30     V32    10.001   1_655     S
V31     V29    10.001   1_455     S
V31     Er67    10.0   .     S
V32     V30    10.001   1_455     S
V32     Er34    10.0   .     S
V32     V95    10.001   .     S
Er33     V40    10.0   .     S
Er33     V56    10.0   .     S
Er33     Er34    10.0   .     S
Er33     Er42    10.001   1_545     S
Er34     V95    10.0   .     S
Er34     Er26    10.001   1_455     S
Er35     V39    10.0   .     S
Er35     V37    10.0   1_545     S
Er35     Er36    10.0   .     S
Er36     V40    10.0   .     S
Er36     V38    10.0   1_545     S
Er36     Er51    10.001   .     S
V37     Er35    10.0   1_565     S
V37     V39    10.001   1_565     S
V38     Er36    10.0   1_565     S
V38     V40    10.001   1_565     S
V38     Er42    10.0   .     S
V38     V53    10.001   .     S
V39     V37    10.001   1_545     S
V39     Er65    10.0   .     S
V40     V56    10.001   .     S
V40     V38    10.001   1_545     S
Er41     V87    10.0   .     S
Er41     Er42    10.0   .     S
Er41     Er1    10.001   1_455     S
Er42     V53    10.0   .     S
Er42     Er33    10.001   1_565     S
Er43     V73    10.0   .     S
Er43     Er44    10.0   .     S
Er43     Er6    10.001   1_554     S
Er44     V48    10.0   .     S
Er44     V54    10.0   .     S
Er44     Er57    10.001   1_565     S
Er45     V49    10.0   .     S
Er45     V47    10.0   1_545     S
Er45     Er46    10.0   .     S
Er46     V50    10.0   .     S
Er46     V48    10.0   1_545     S
Er46     Er52    10.001   .     S
V47     Er45    10.0   1_565     S
V47     V49    10.001   1_565     S
V48     V54    10.001   .     S
V48     Er46    10.0   1_565     S
V48     V50    10.001   1_565     S
V49     V47    10.001   1_545     S
V50     V48    10.001   1_545     S
V50     Er57    10.0   .     S
V50     V55    10.001   .     S
Er51     V56    10.0   .     S
Er51     V53    10.0   1_545     S
Er51     Er52    10.0   .     S
Er52     V55    10.0   .     S
Er52     V54    10.0   1_545     S
V53     Er51    10.0   1_565     S
V53     V56    10.001   1_565     S
V54     Er52    10.0   1_565     S
V54     V55    10.001   1_565     S
V55     V54    10.001   1_545     S
V55     Er57    10.0   .     S
V56     V53    10.001   1_545     S
Er57     Er58    10.0   .     S
Er57     Er44    10.001   1_545     S
Er58     V64    10.0   .     S
Er58     V80    10.0   .     S
Er58     Er66    10.001   1_554     S
Er59     V63    10.0   .     S
Er59     V61    10.0   1_554     S
Er59     Er60    10.0   .     S
Er60     V64    10.0   .     S
Er60     V62    10.0   1_554     S
Er60     Er75    10.001   .     S
V61     Er59    10.0   1_556     S
V61     V63    10.001   1_556     S
V62     Er60    10.0   1_556     S
V62     V64    10.001   1_556     S
V62     Er66    10.0   .     S
V62     V77    10.001   .     S
V63     V61    10.001   1_554     S
V63     Er89    10.0   .     S
V64     V80    10.001   .     S
V64     V62    10.001   1_554     S
Er65     Er66    10.0   .     S
Er65     Er5    10.001   1_545     S
Er66     V77    10.0   .     S
Er66     Er58    10.001   1_556     S
Er67     Er68    10.0   .     S
Er67     Er3    10.001   1_455     S
Er68     V72    10.0   .     S
Er68     V78    10.0   .     S
Er68     Er81    10.001   1_556     S
Er69     V73    10.0   .     S
Er69     V71    10.0   1_554     S
Er69     Er70    10.0   .     S
Er70     V74    10.0   .     S
Er70     V72    10.0   1_554     S
Er70     Er76    10.001   .     S
V71     Er69    10.0   1_556     S
V71     V73    10.001   1_556     S
V72     V78    10.001   .     S
V72     Er70    10.0   1_556     S
V72     V74    10.001   1_556     S
V73     V71    10.001   1_554     S
V74     V72    10.001   1_554     S
V74     Er81    10.0   .     S
V74     V79    10.001   .     S
Er75     V80    10.0   .     S
Er75     V77    10.0   1_554     S
Er75     Er76    10.0   .     S
Er76     V79    10.0   .     S
Er76     V78    10.0   1_554     S
V77     Er75    10.0   1_556     S
V77     V80    10.001   1_556     S
V78     Er76    10.0   1_556     S
V78     V79    10.001   1_556     S
V79     V78    10.001   1_554     S
V79     Er81    10.0   .     S
V80     V77    10.001   1_554     S
Er81     Er82    10.0   .     S
Er81     Er68    10.001   1_554     S
Er82     V88    10.0   .     S
Er82     V96    10.0   .     S
Er82     Er90    10.001   1_455     S
Er83     V87    10.0   .     S
Er83     V85    10.0   1_455     S
Er83     Er84    10.0   .     S
Er84     V88    10.0   .     S
Er84     V86    10.0   1_455     S
Er84     Er91    10.001   .     S
V85     Er83    10.0   1_655     S
V85     V87    10.001   1_655     S
V86     Er84    10.0   1_655     S
V86     V88    10.001   1_655     S
V86     Er90    10.0   .     S
V86     V93    10.001   .     S
V87     V85    10.001   1_455     S
V88     V96    10.001   .     S
V88     V86    10.001   1_455     S
Er89     Er90    10.0   .     S
Er89     Er4    10.001   1_554     S
Er90     V93    10.0   .     S
Er90     Er82    10.001   1_655     S
Er91     V96    10.0   .     S
Er91     V93    10.0   1_455     S
Er91     Er92    10.0   .     S
Er92     V95    10.0   .     S
Er92     V94    10.0   1_455     S
V93     Er91    10.0   1_655     S
V93     V96    10.001   1_655     S
V94     Er92    10.0   1_655     S
V94     V95    10.001   1_655     S
V95     V94    10.001   1_455     S
V96     V93    10.001   1_455     S
