data_bca
_audit_creation_date              2020-02-04
_audit_creation_method            'Pymatgen'
_symmetry_space_group_name_H-M    'P1'
_symmetry_Int_Tables_number       1
loop_
_symmetry_equiv_pos_as_xyz
  x,y,z
_cell_length_a                    72.9984
_cell_length_b                    72.9984
_cell_length_c                    23.4243
_cell_angle_alpha                 90.0
_cell_angle_beta                 90.0
_cell_angle_gamma                 120.0
loop_
_atom_site_label
_atom_site_type_symbol
_atom_site_fract_x
_atom_site_fract_y
_atom_site_fract_z
Er1     Er     0.6667   0.4703   0.0
Er2     Er     0.5297   0.3333   0.0
Er3     Er     0.3333   0.5297   0.0
Er4     Er     0.4703   0.6667   0.0
V5     V     0.471   0.392   0.2866
V6     V     0.608   0.529   0.2866
V7     V     0.471   0.392   0.7134
V8     V     0.608   0.529   0.7134
V9     V     0.392   0.471   0.7134
V10     V     0.529   0.608   0.7134
V11     V     0.392   0.471   0.2866
V12     V     0.529   0.608   0.2866
Er13     Er     0.3333   0.8037   0.0
Er14     Er     0.4703   0.8037   0.0
V15     V     0.471   0.0791   0.2866
V16     V     0.471   0.0791   0.7134
V17     V     0.392   0.9209   0.7134
V18     V     0.392   0.9209   0.2866
Er19     Er     0.6667   0.1963   0.0
Er20     Er     0.5297   0.1963   0.0
V21     V     0.608   0.0791   0.7134
V22     V     0.608   0.0791   0.2866
V23     V     0.529   0.9209   0.2866
V24     V     0.529   0.9209   0.7134
Er25     Er     0.8037   0.3333   0.0
Er26     Er     0.8037   0.4703   0.0
V27     V     0.0791   0.608   0.2866
V28     V     0.0791   0.608   0.7134
V29     V     0.9209   0.529   0.7134
V30     V     0.9209   0.529   0.2866
Er31     Er     0.1963   0.6667   0.0
Er32     Er     0.1963   0.5297   0.0
V33     V     0.0791   0.471   0.7134
V34     V     0.0791   0.471   0.2866
V35     V     0.9209   0.392   0.2866
V36     V     0.9209   0.392   0.7134
loop_
_geom_bond_atom_site_label_1
_geom_bond_atom_site_label_2
_geom_bond_distance
_geom_bond_site_symmetry_2
_ccdc_geom_bond_type
Er1     V8    10.0   1_554     S
Er1     V6    10.0   .     S
Er1     Er2    9.999   .     S
Er1     Er26    10.001   .     S
Er2     V7    10.0   1_554     S
Er2     V5    10.0   .     S
Er2     Er20    10.001   .     S
Er3     V9    10.0   1_554     S
Er3     V11    10.0   .     S
Er3     Er4    9.999   .     S
Er3     Er32    10.001   .     S
Er4     V12    10.0   .     S
Er4     V10    10.0   1_554     S
Er4     Er14    10.001   .     S
V5     V6    10.0   .     S
V5     V7    10.0   .     S
V5     V11    10.0   .     S
V6     V8    10.0   .     S
V6     V12    10.0   .     S
V7     Er2    10.0   1_556     S
V7     V8    10.0   .     S
V7     V9    10.0   .     S
V8     Er1    10.0   1_556     S
V8     V10    10.0   .     S
V9     Er3    10.0   1_556     S
V9     V10    10.0   .     S
V9     V11    10.0   .     S
V10     Er4    10.0   1_556     S
V10     V12    10.0   .     S
V11     V12    10.0   .     S
Er13     V18    10.0   .     S
Er13     V17    10.0   1_554     S
Er13     Er14    9.999   .     S
Er13     Er31    10.001   .     S
Er14     V24    10.0   1_554     S
Er14     V23    10.0   .     S
V15     V22    10.0   .     S
V15     V16    10.0   .     S
V15     V18    10.0   1_545     S
V15     Er20    10.0   .     S
V16     V17    10.0   1_545     S
V16     Er20    10.0   1_556     S
V16     V21    10.0   .     S
V17     Er13    10.0   1_556     S
V17     V24    10.0   .     S
V17     V18    10.0   .     S
V17     V16    10.0   1_565     S
V18     V15    10.0   1_565     S
V18     V23    10.0   .     S
Er19     V21    10.0   1_554     S
Er19     V22    10.0   .     S
Er19     Er20    9.999   .     S
Er19     Er25    10.001   .     S
Er20     V16    10.0   1_554     S
V21     Er19    10.0   1_556     S
V21     V22    10.0   .     S
V21     V24    10.0   1_545     S
V22     V23    10.0   1_545     S
V23     V24    10.0   .     S
V23     V22    10.0   1_565     S
V24     Er14    10.0   1_556     S
V24     V21    10.0   1_565     S
Er25     V36    10.0   1_554     S
Er25     V35    10.0   .     S
Er25     Er26    9.999   .     S
Er26     V29    10.0   1_554     S
Er26     V30    10.0   .     S
V27     V34    10.0   .     S
V27     V28    10.0   .     S
V27     V30    10.0   1_455     S
V27     Er31    10.0   .     S
V28     V29    10.0   1_455     S
V28     Er31    10.0   1_556     S
V28     V33    10.0   .     S
V29     Er26    10.0   1_556     S
V29     V36    10.0   .     S
V29     V30    10.0   .     S
V29     V28    10.0   1_655     S
V30     V27    10.0   1_655     S
V30     V35    10.0   .     S
Er31     V28    10.0   1_554     S
Er31     Er32    9.999   .     S
Er32     V33    10.0   1_554     S
Er32     V34    10.0   .     S
V33     Er32    10.0   1_556     S
V33     V34    10.0   .     S
V33     V36    10.0   1_455     S
V34     V35    10.0   1_455     S
V35     V36    10.0   .     S
V35     V34    10.0   1_655     S
V36     Er25    10.0   1_556     S
V36     V33    10.0   1_655     S
