data_bco
_audit_creation_date              2020-02-04
_audit_creation_method            'Pymatgen'
_symmetry_space_group_name_H-M    'P1'
_symmetry_Int_Tables_number       1
loop_
_symmetry_equiv_pos_as_xyz
  x,y,z
_cell_length_a                    27.3672
_cell_length_b                    20.9472
_cell_length_c                    15.599
_cell_angle_alpha                 90.0
_cell_angle_beta                 90.0
_cell_angle_gamma                 90.0
loop_
_atom_site_label
_atom_site_type_symbol
_atom_site_fract_x
_atom_site_fract_y
_atom_site_fract_z
Er1     Er     0.1827   0.3506   0.25
Er2     Er     0.8173   0.3506   0.25
V3     V     0.6143   0.0   0.0
V4     V     0.3857   0.0   0.5
Er5     Er     0.1827   0.6494   0.75
Er6     Er     0.8173   0.6494   0.75
loop_
_geom_bond_atom_site_label_1
_geom_bond_atom_site_label_2
_geom_bond_distance
_geom_bond_site_symmetry_2
_ccdc_geom_bond_type
Er1     V4    10.0   .     S
Er1     Er2    10.0   1_455     S
Er1     Er5    10.0   .     S
Er1     Er5    10.0   1_554     S
Er2     V3    10.0   .     S
Er2     Er1    10.0   1_655     S
Er2     Er6    10.0   .     S
Er2     Er6    10.0   1_554     S
V3     V4    10.0   .     S
V3     V4    10.0   1_554     S
V3     Er6    10.0   1_544     S
V4     V3    10.0   1_556     S
V4     Er5    10.0   1_545     S
Er5     V4    10.0   1_565     S
Er5     Er6    10.0   1_455     S
Er5     Er1    10.0   1_556     S
Er6     V3    10.0   1_566     S
Er6     Er5    10.0   1_655     S
Er6     Er2    10.0   1_556     S
