data_bcuk
_audit_creation_date              2020-02-04
_audit_creation_method            'Pymatgen'
_symmetry_space_group_name_H-M    'P1'
_symmetry_Int_Tables_number       1
loop_
_symmetry_equiv_pos_as_xyz
  x,y,z
_cell_length_a                    38.8561
_cell_length_b                    38.8561
_cell_length_c                    38.8561
_cell_angle_alpha                 90.0
_cell_angle_beta                 90.0
_cell_angle_gamma                 90.0
loop_
_atom_site_label
_atom_site_type_symbol
_atom_site_fract_x
_atom_site_fract_y
_atom_site_fract_z
V1     V     0.8713   0.3107   0.8713
V2     V     0.6893   0.1287   0.8713
V3     V     0.8713   0.1287   0.6893
V4     V     0.6287   0.3713   0.8107
V5     V     0.8107   0.3713   0.6287
V6     V     0.6287   0.1893   0.6287
V7     V     0.1287   0.1287   0.6893
V8     V     0.3107   0.1287   0.8713
V9     V     0.1287   0.3107   0.8713
V10     V     0.3713   0.3713   0.8107
V11     V     0.1893   0.3713   0.6287
V12     V     0.3713   0.1893   0.6287
V13     V     0.3107   0.8713   0.8713
V14     V     0.1287   0.6893   0.8713
V15     V     0.1287   0.8713   0.6893
V16     V     0.3713   0.6287   0.8107
V17     V     0.3713   0.8107   0.6287
V18     V     0.1893   0.6287   0.6287
V19     V     0.8713   0.8713   0.6893
V20     V     0.8713   0.6893   0.8713
V21     V     0.6893   0.8713   0.8713
V22     V     0.8107   0.6287   0.6287
V23     V     0.6287   0.6287   0.8107
V24     V     0.6287   0.8107   0.6287
V25     V     0.8713   0.3107   0.1287
V26     V     0.8107   0.3713   0.3713
V27     V     0.8713   0.1287   0.3107
V28     V     0.6893   0.1287   0.1287
V29     V     0.6287   0.3713   0.1893
V30     V     0.6287   0.1893   0.3713
V31     V     0.8713   0.8713   0.3107
V32     V     0.8713   0.6893   0.1287
V33     V     0.6893   0.8713   0.1287
V34     V     0.6287   0.8107   0.3713
V35     V     0.8107   0.6287   0.3713
V36     V     0.6287   0.6287   0.1893
V37     V     0.1893   0.3713   0.3713
V38     V     0.3713   0.3713   0.1893
V39     V     0.3713   0.1893   0.3713
V40     V     0.1287   0.1287   0.3107
V41     V     0.3107   0.1287   0.1287
V42     V     0.1287   0.3107   0.1287
V43     V     0.3713   0.8107   0.3713
V44     V     0.1287   0.8713   0.3107
V45     V     0.3107   0.8713   0.1287
V46     V     0.1287   0.6893   0.1287
V47     V     0.3713   0.6287   0.1893
V48     V     0.1893   0.6287   0.3713
loop_
_geom_bond_atom_site_label_1
_geom_bond_atom_site_label_2
_geom_bond_distance
_geom_bond_site_symmetry_2
_ccdc_geom_bond_type
V1     V4    10.0   .     S
V1     V5    10.0   .     S
V1     V3    10.0   .     S
V1     V2    10.0   .     S
V1     V9    10.0   1_655     S
V1     V25    10.0   1_556     S
V2     V3    10.0   .     S
V2     V4    10.0   .     S
V2     V6    10.0   .     S
V2     V21    10.0   1_545     S
V2     V28    10.0   1_556     S
V3     V5    10.0   .     S
V3     V6    10.0   .     S
V3     V19    10.0   1_545     S
V3     V7    10.0   1_655     S
V4     V5    10.0   .     S
V4     V6    10.0   .     S
V4     V10    10.0   .     S
V4     V23    10.0   .     S
V5     V6    10.0   .     S
V5     V26    10.0   .     S
V5     V22    10.0   .     S
V6     V30    10.0   .     S
V6     V12    10.0   .     S
V7     V8    10.0   .     S
V7     V9    10.0   .     S
V7     V12    10.0   .     S
V7     V11    10.0   .     S
V7     V15    10.0   1_545     S
V7     V3    10.0   1_455     S
V8     V12    10.0   .     S
V8     V10    10.0   .     S
V8     V9    10.0   .     S
V8     V13    10.0   1_545     S
V8     V41    10.0   1_556     S
V9     V11    10.0   .     S
V9     V10    10.0   .     S
V9     V1    10.0   1_455     S
V9     V42    10.0   1_556     S
V10     V12    10.0   .     S
V10     V11    10.0   .     S
V10     V16    10.0   .     S
V11     V12    10.0   .     S
V11     V37    10.0   .     S
V11     V18    10.0   .     S
V12     V39    10.0   .     S
V13     V8    10.0   1_565     S
V13     V17    10.0   .     S
V13     V16    10.0   .     S
V13     V15    10.0   .     S
V13     V14    10.0   .     S
V13     V45    10.0   1_556     S
V14     V15    10.0   .     S
V14     V16    10.0   .     S
V14     V18    10.0   .     S
V14     V20    10.0   1_455     S
V14     V46    10.0   1_556     S
V15     V7    10.0   1_565     S
V15     V17    10.0   .     S
V15     V18    10.0   .     S
V15     V19    10.0   1_455     S
V16     V17    10.0   .     S
V16     V18    10.0   .     S
V16     V23    10.0   .     S
V17     V18    10.0   .     S
V17     V43    10.0   .     S
V17     V24    10.0   .     S
V18     V48    10.0   .     S
V19     V3    10.0   1_565     S
V19     V15    10.0   1_655     S
V19     V21    10.0   .     S
V19     V24    10.0   .     S
V19     V20    10.0   .     S
V19     V22    10.0   .     S
V20     V14    10.0   1_655     S
V20     V21    10.0   .     S
V20     V23    10.0   .     S
V20     V22    10.0   .     S
V20     V32    10.0   1_556     S
V21     V2    10.0   1_565     S
V21     V23    10.0   .     S
V21     V24    10.0   .     S
V21     V33    10.0   1_556     S
V22     V23    10.0   .     S
V22     V24    10.0   .     S
V22     V35    10.0   .     S
V23     V24    10.0   .     S
V24     V34    10.0   .     S
V25     V29    10.0   .     S
V25     V26    10.0   .     S
V25     V27    10.0   .     S
V25     V28    10.0   .     S
V25     V1    10.0   1_554     S
V25     V42    10.0   1_655     S
V26     V30    10.0   .     S
V26     V27    10.0   .     S
V26     V29    10.0   .     S
V26     V35    10.0   .     S
V27     V30    10.0   .     S
V27     V28    10.0   .     S
V27     V31    10.0   1_545     S
V27     V40    10.0   1_655     S
V28     V29    10.0   .     S
V28     V30    10.0   .     S
V28     V2    10.0   1_554     S
V28     V33    10.0   1_545     S
V29     V30    10.0   .     S
V29     V38    10.0   .     S
V29     V36    10.0   .     S
V30     V39    10.0   .     S
V31     V27    10.0   1_565     S
V31     V35    10.0   .     S
V31     V34    10.0   .     S
V31     V33    10.0   .     S
V31     V32    10.0   .     S
V31     V44    10.0   1_655     S
V32     V35    10.0   .     S
V32     V36    10.0   .     S
V32     V33    10.0   .     S
V32     V20    10.0   1_554     S
V32     V46    10.0   1_655     S
V33     V28    10.0   1_565     S
V33     V34    10.0   .     S
V33     V36    10.0   .     S
V33     V21    10.0   1_554     S
V34     V35    10.0   .     S
V34     V36    10.0   .     S
V34     V43    10.0   .     S
V35     V36    10.0   .     S
V36     V47    10.0   .     S
V37     V38    10.0   .     S
V37     V39    10.0   .     S
V37     V40    10.0   .     S
V37     V42    10.0   .     S
V37     V48    10.0   .     S
V38     V39    10.0   .     S
V38     V42    10.0   .     S
V38     V41    10.0   .     S
V38     V47    10.0   .     S
V39     V41    10.0   .     S
V39     V40    10.0   .     S
V40     V42    10.0   .     S
V40     V41    10.0   .     S
V40     V44    10.0   1_545     S
V40     V27    10.0   1_455     S
V41     V42    10.0   .     S
V41     V8    10.0   1_554     S
V41     V45    10.0   1_545     S
V42     V9    10.0   1_554     S
V42     V25    10.0   1_455     S
V43     V48    10.0   .     S
V43     V44    10.0   .     S
V43     V47    10.0   .     S
V43     V45    10.0   .     S
V44     V40    10.0   1_565     S
V44     V45    10.0   .     S
V44     V48    10.0   .     S
V44     V46    10.0   .     S
V44     V31    10.0   1_455     S
V45     V41    10.0   1_565     S
V45     V47    10.0   .     S
V45     V46    10.0   .     S
V45     V13    10.0   1_554     S
V46     V48    10.0   .     S
V46     V47    10.0   .     S
V46     V14    10.0   1_554     S
V46     V32    10.0   1_455     S
V47     V48    10.0   .     S
