data_bcut
_audit_creation_date              2020-02-04
_audit_creation_method            'Pymatgen'
_symmetry_space_group_name_H-M    'P1'
_symmetry_Int_Tables_number       1
loop_
_symmetry_equiv_pos_as_xyz
  x,y,z
_cell_length_a                    80.6232
_cell_length_b                    80.6232
_cell_length_c                    80.6232
_cell_angle_alpha                 90.0
_cell_angle_beta                 90.0
_cell_angle_gamma                 90.0
loop_
_atom_site_label
_atom_site_type_symbol
_atom_site_fract_x
_atom_site_fract_y
_atom_site_fract_z
Er1     Er     0.562   0.1128   0.6497
Er2     Er     0.6497   0.1128   0.562
V3     V     0.7297   0.062   0.642
V4     V     0.7703   0.142   0.562
Er5     Er     0.8503   0.062   0.6128
Er6     Er     0.938   0.1497   0.6128
V7     V     0.642   0.062   0.7297
V8     V     0.562   0.142   0.7703
Er9     Er     0.6128   0.062   0.8503
Er10     Er     0.6128   0.1497   0.938
V11     V     0.858   0.2297   0.562
V12     V     0.938   0.2703   0.642
V13     V     0.858   0.438   0.7703
V14     V     0.938   0.358   0.7297
Er15     Er     0.8872   0.438   0.6497
Er16     Er     0.8872   0.3503   0.562
Er17     Er     0.8503   0.3872   0.938
Er18     Er     0.938   0.3872   0.8503
V19     V     0.562   0.2297   0.858
V20     V     0.642   0.2703   0.938
V21     V     0.7297   0.358   0.938
V22     V     0.7703   0.438   0.858
Er23     Er     0.6497   0.438   0.8872
Er24     Er     0.562   0.3503   0.8872
V25     V     0.642   0.938   0.7297
V26     V     0.562   0.858   0.7703
V27     V     0.642   0.7297   0.938
V28     V     0.562   0.7703   0.858
Er29     Er     0.6128   0.8503   0.938
Er30     Er     0.6128   0.938   0.8503
Er31     Er     0.6497   0.562   0.8872
Er32     Er     0.562   0.6497   0.8872
V33     V     0.7297   0.642   0.938
V34     V     0.7703   0.562   0.858
V35     V     0.938   0.642   0.7297
V36     V     0.858   0.562   0.7703
Er37     Er     0.938   0.6128   0.8503
Er38     Er     0.8503   0.6128   0.938
Er39     Er     0.8872   0.6497   0.562
Er40     Er     0.8872   0.562   0.6497
Er41     Er     0.6497   0.8872   0.562
Er42     Er     0.562   0.8872   0.6497
V43     V     0.938   0.7297   0.642
V44     V     0.858   0.7703   0.562
V45     V     0.7297   0.938   0.642
V46     V     0.7703   0.858   0.562
Er47     Er     0.938   0.8503   0.6128
Er48     Er     0.8503   0.938   0.6128
Er49     Er     0.1128   0.6497   0.562
Er50     Er     0.1128   0.562   0.6497
V51     V     0.062   0.642   0.7297
V52     V     0.142   0.562   0.7703
Er53     Er     0.062   0.6128   0.8503
Er54     Er     0.1497   0.6128   0.938
V55     V     0.062   0.7297   0.642
V56     V     0.142   0.7703   0.562
Er57     Er     0.062   0.8503   0.6128
Er58     Er     0.1497   0.938   0.6128
V59     V     0.2297   0.562   0.858
V60     V     0.2703   0.642   0.938
V61     V     0.438   0.7703   0.858
V62     V     0.358   0.7297   0.938
Er63     Er     0.438   0.6497   0.8872
Er64     Er     0.3503   0.562   0.8872
Er65     Er     0.3872   0.938   0.8503
Er66     Er     0.3872   0.8503   0.938
V67     V     0.2297   0.858   0.562
V68     V     0.2703   0.938   0.642
V69     V     0.358   0.938   0.7297
V70     V     0.438   0.858   0.7703
Er71     Er     0.438   0.8872   0.6497
Er72     Er     0.3503   0.8872   0.562
V73     V     0.2297   0.438   0.858
V74     V     0.2703   0.358   0.938
V75     V     0.438   0.2297   0.858
V76     V     0.358   0.2703   0.938
Er77     Er     0.438   0.3503   0.8872
Er78     Er     0.3503   0.438   0.8872
Er79     Er     0.438   0.1128   0.6497
Er80     Er     0.3503   0.1128   0.562
V81     V     0.358   0.062   0.7297
V82     V     0.438   0.142   0.7703
Er83     Er     0.3872   0.062   0.8503
Er84     Er     0.3872   0.1497   0.938
Er85     Er     0.1128   0.438   0.6497
Er86     Er     0.1128   0.3503   0.562
V87     V     0.062   0.358   0.7297
V88     V     0.142   0.438   0.7703
Er89     Er     0.062   0.3872   0.8503
Er90     Er     0.1497   0.3872   0.938
V91     V     0.2703   0.062   0.642
V92     V     0.2297   0.142   0.562
V93     V     0.062   0.2703   0.642
V94     V     0.142   0.2297   0.562
Er95     Er     0.062   0.1497   0.6128
Er96     Er     0.1497   0.062   0.6128
V97     V     0.438   0.858   0.2297
V98     V     0.358   0.938   0.2703
V99     V     0.2297   0.858   0.438
V100     V     0.2703   0.938   0.358
Er101     Er     0.3503   0.8872   0.438
Er102     Er     0.438   0.8872   0.3503
Er103     Er     0.438   0.6497   0.1128
Er104     Er     0.3503   0.562   0.1128
V105     V     0.358   0.7297   0.062
V106     V     0.438   0.7703   0.142
Er107     Er     0.3872   0.8503   0.062
Er108     Er     0.3872   0.938   0.1497
V109     V     0.2703   0.642   0.062
V110     V     0.2297   0.562   0.142
V111     V     0.062   0.642   0.2703
V112     V     0.142   0.562   0.2297
Er113     Er     0.062   0.6128   0.1497
Er114     Er     0.1497   0.6128   0.062
Er115     Er     0.1128   0.6497   0.438
Er116     Er     0.1128   0.562   0.3503
V117     V     0.062   0.7297   0.358
V118     V     0.142   0.7703   0.438
Er119     Er     0.062   0.8503   0.3872
Er120     Er     0.1497   0.938   0.3872
Er121     Er     0.6497   0.562   0.1128
Er122     Er     0.562   0.6497   0.1128
V123     V     0.7297   0.642   0.062
V124     V     0.7703   0.562   0.142
Er125     Er     0.8503   0.6128   0.062
Er126     Er     0.938   0.6128   0.1497
V127     V     0.642   0.7297   0.062
V128     V     0.562   0.7703   0.142
Er129     Er     0.6128   0.8503   0.062
Er130     Er     0.6128   0.938   0.1497
V131     V     0.562   0.858   0.2297
V132     V     0.642   0.938   0.2703
V133     V     0.7297   0.938   0.358
V134     V     0.7703   0.858   0.438
Er135     Er     0.6497   0.8872   0.438
Er136     Er     0.562   0.8872   0.3503
Er137     Er     0.8503   0.938   0.3872
Er138     Er     0.938   0.8503   0.3872
V139     V     0.858   0.562   0.2297
V140     V     0.938   0.642   0.2703
V141     V     0.938   0.7297   0.358
V142     V     0.858   0.7703   0.438
Er143     Er     0.8872   0.6497   0.438
Er144     Er     0.8872   0.562   0.3503
V145     V     0.438   0.2297   0.142
V146     V     0.358   0.2703   0.062
V147     V     0.2297   0.438   0.142
V148     V     0.2703   0.358   0.062
Er149     Er     0.3503   0.438   0.1128
Er150     Er     0.438   0.3503   0.1128
Er151     Er     0.062   0.3872   0.1497
Er152     Er     0.1497   0.3872   0.062
Er153     Er     0.3872   0.062   0.1497
Er154     Er     0.3872   0.1497   0.062
V155     V     0.358   0.062   0.2703
V156     V     0.438   0.142   0.2297
V157     V     0.2297   0.142   0.438
V158     V     0.2703   0.062   0.358
Er159     Er     0.3503   0.1128   0.438
Er160     Er     0.438   0.1128   0.3503
Er161     Er     0.062   0.1497   0.3872
Er162     Er     0.1497   0.062   0.3872
V163     V     0.062   0.358   0.2703
V164     V     0.142   0.438   0.2297
V165     V     0.142   0.2297   0.438
V166     V     0.062   0.2703   0.358
Er167     Er     0.1128   0.3503   0.438
Er168     Er     0.1128   0.438   0.3503
V169     V     0.858   0.438   0.2297
V170     V     0.938   0.358   0.2703
V171     V     0.858   0.2297   0.438
V172     V     0.938   0.2703   0.358
Er173     Er     0.8872   0.3503   0.438
Er174     Er     0.8872   0.438   0.3503
Er175     Er     0.6497   0.438   0.1128
Er176     Er     0.562   0.3503   0.1128
V177     V     0.7297   0.358   0.062
V178     V     0.7703   0.438   0.142
Er179     Er     0.8503   0.3872   0.062
Er180     Er     0.938   0.3872   0.1497
Er181     Er     0.6497   0.1128   0.438
Er182     Er     0.562   0.1128   0.3503
V183     V     0.7297   0.062   0.358
V184     V     0.7703   0.142   0.438
Er185     Er     0.8503   0.062   0.3872
Er186     Er     0.938   0.1497   0.3872
V187     V     0.642   0.2703   0.062
V188     V     0.562   0.2297   0.142
V189     V     0.642   0.062   0.2703
V190     V     0.562   0.142   0.2297
Er191     Er     0.6128   0.062   0.1497
Er192     Er     0.6128   0.1497   0.062
loop_
_geom_bond_atom_site_label_1
_geom_bond_atom_site_label_2
_geom_bond_distance
_geom_bond_site_symmetry_2
_ccdc_geom_bond_type
Er1     Er2    9.999   .     S
Er1     V8    10.0   .     S
Er1     V7    10.0   .     S
Er1     Er79    10.001   .     S
Er2     V4    10.0   .     S
Er2     V3    10.0   .     S
Er2     Er181    10.001   .     S
V3     Er5    10.0   .     S
V3     V45    10.001   1_545     S
V3     V7    10.001   .     S
V4     Er5    10.0   .     S
V4     V184    10.001   .     S
V4     V11    10.001   .     S
Er5     Er6    9.999   .     S
Er5     Er48    10.001   1_545     S
Er6     V12    10.0   .     S
Er6     V11    10.0   .     S
Er6     Er95    10.001   1_655     S
V7     Er9    10.0   .     S
V7     V25    10.001   1_545     S
V8     Er9    10.0   .     S
V8     V82    10.001   .     S
V8     V19    10.001   .     S
Er9     Er10    9.999   .     S
Er9     Er30    10.001   1_545     S
Er10     V20    10.0   .     S
Er10     V19    10.0   .     S
Er10     Er192    10.001   1_556     S
V11     Er16    10.0   .     S
V11     V171    10.001   .     S
V12     Er16    10.0   .     S
V12     V93    10.001   1_655     S
V12     V14    10.001   .     S
V13     Er18    10.0   .     S
V13     Er15    10.0   .     S
V13     V36    10.001   .     S
V13     V22    10.001   .     S
V14     Er18    10.0   .     S
V14     Er15    10.0   .     S
V14     V87    10.001   1_655     S
Er15     Er16    9.999   .     S
Er15     Er40    10.001   .     S
Er16     Er173    10.001   .     S
Er17     Er18    9.999   .     S
Er17     V21    10.0   .     S
Er17     V22    10.0   .     S
Er17     Er179    10.001   1_556     S
Er18     Er89    10.001   1_655     S
V19     Er24    10.0   .     S
V19     V75    10.001   .     S
V20     Er24    10.0   .     S
V20     V187    10.001   1_556     S
V20     V21    10.001   .     S
V21     Er23    10.0   .     S
V21     V177    10.001   1_556     S
V22     Er23    10.0   .     S
V22     V34    10.001   .     S
Er23     Er24    9.999   .     S
Er23     Er31    10.001   .     S
Er24     Er77    10.001   .     S
V25     Er42    10.0   .     S
V25     Er30    10.0   .     S
V25     V7    10.001   1_565     S
V25     V45    10.001   .     S
V26     Er42    10.0   .     S
V26     Er30    10.0   .     S
V26     V70    10.001   .     S
V26     V28    10.001   .     S
V27     Er32    10.0   .     S
V27     Er29    10.0   .     S
V27     V127    10.001   1_556     S
V27     V33    10.001   .     S
V28     Er32    10.0   .     S
V28     Er29    10.0   .     S
V28     V61    10.001   .     S
Er29     Er30    9.999   .     S
Er29     Er129    10.001   1_556     S
Er30     Er9    10.001   1_565     S
Er31     Er32    9.999   .     S
Er31     V34    10.0   .     S
Er31     V33    10.0   .     S
Er32     Er63    10.001   .     S
V33     Er38    10.0   .     S
V33     V123    10.001   1_556     S
V34     Er38    10.0   .     S
V34     V36    10.001   .     S
V35     Er40    10.0   .     S
V35     Er37    10.0   .     S
V35     V51    10.001   1_655     S
V35     V43    10.001   .     S
V36     Er40    10.0   .     S
V36     Er37    10.0   .     S
Er37     Er38    9.999   .     S
Er37     Er53    10.001   1_655     S
Er38     Er125    10.001   1_556     S
Er39     Er40    9.999   .     S
Er39     V44    10.0   .     S
Er39     V43    10.0   .     S
Er39     Er143    10.001   .     S
Er41     Er42    9.999   .     S
Er41     V46    10.0   .     S
Er41     V45    10.0   .     S
Er41     Er135    10.001   .     S
Er42     Er71    10.001   .     S
V43     Er47    10.0   .     S
V43     V55    10.001   1_655     S
V44     Er47    10.0   .     S
V44     V142    10.001   .     S
V44     V46    10.001   .     S
V45     Er48    10.0   .     S
V45     V3    10.001   1_565     S
V46     Er48    10.0   .     S
V46     V134    10.001   .     S
Er47     Er48    9.999   .     S
Er47     Er57    10.001   1_655     S
Er48     Er5    10.001   1_565     S
Er49     Er50    9.999   .     S
Er49     V56    10.0   .     S
Er49     V55    10.0   .     S
Er49     Er115    10.001   .     S
Er50     V52    10.0   .     S
Er50     V51    10.0   .     S
Er50     Er85    10.001   .     S
V51     V35    10.001   1_455     S
V51     Er53    10.0   .     S
V51     V55    10.001   .     S
V52     Er53    10.0   .     S
V52     V88    10.001   .     S
V52     V59    10.001   .     S
Er53     Er37    10.001   1_455     S
Er53     Er54    9.999   .     S
Er54     V60    10.0   .     S
Er54     V59    10.0   .     S
Er54     Er114    10.001   1_556     S
V55     V43    10.001   1_455     S
V55     Er57    10.0   .     S
V56     Er57    10.0   .     S
V56     V118    10.001   .     S
V56     V67    10.001   .     S
Er57     Er47    10.001   1_455     S
Er57     Er58    9.999   .     S
Er58     V68    10.0   .     S
Er58     V67    10.0   .     S
Er58     Er96    10.001   1_565     S
V59     Er64    10.0   .     S
V59     V73    10.001   .     S
V60     Er64    10.0   .     S
V60     V109    10.001   1_556     S
V60     V62    10.001   .     S
V61     Er66    10.0   .     S
V61     Er63    10.0   .     S
V61     V70    10.001   .     S
V62     Er66    10.0   .     S
V62     Er63    10.0   .     S
V62     V105    10.001   1_556     S
Er63     Er64    9.999   .     S
Er64     Er78    10.001   .     S
Er65     Er66    9.999   .     S
Er65     V69    10.0   .     S
Er65     V70    10.0   .     S
Er65     Er83    10.001   1_565     S
Er66     Er107    10.001   1_556     S
V67     Er72    10.0   .     S
V67     V99    10.001   .     S
V68     Er72    10.0   .     S
V68     V91    10.001   1_565     S
V68     V69    10.001   .     S
V69     Er71    10.0   .     S
V69     V81    10.001   1_565     S
V70     Er71    10.0   .     S
Er71     Er72    9.999   .     S
Er72     Er101    10.001   .     S
V73     Er90    10.0   .     S
V73     Er78    10.0   .     S
V73     V88    10.001   .     S
V74     Er90    10.0   .     S
V74     Er78    10.0   .     S
V74     V148    10.001   1_556     S
V74     V76    10.001   .     S
V75     Er84    10.0   .     S
V75     Er77    10.0   .     S
V75     V82    10.001   .     S
V76     Er84    10.0   .     S
V76     Er77    10.0   .     S
V76     V146    10.001   1_556     S
Er77     Er78    9.999   .     S
Er79     Er80    9.999   .     S
Er79     V82    10.0   .     S
Er79     V81    10.0   .     S
Er80     V92    10.0   .     S
Er80     V91    10.0   .     S
Er80     Er159    10.001   .     S
V81     V69    10.001   1_545     S
V81     Er83    10.0   .     S
V81     V91    10.001   .     S
V82     Er83    10.0   .     S
Er83     Er65    10.001   1_545     S
Er83     Er84    9.999   .     S
Er84     Er154    10.001   1_556     S
Er85     Er86    9.999   .     S
Er85     V88    10.0   .     S
Er85     V87    10.0   .     S
Er86     V94    10.0   .     S
Er86     V93    10.0   .     S
Er86     Er167    10.001   .     S
V87     V14    10.001   1_455     S
V87     Er89    10.0   .     S
V87     V93    10.001   .     S
V88     Er89    10.0   .     S
Er89     Er18    10.001   1_455     S
Er89     Er90    9.999   .     S
Er90     Er152    10.001   1_556     S
V91     V68    10.001   1_545     S
V91     Er96    10.0   .     S
V92     Er96    10.0   .     S
V92     V157    10.001   .     S
V92     V94    10.001   .     S
V93     V12    10.001   1_455     S
V93     Er95    10.0   .     S
V94     Er95    10.0   .     S
V94     V165    10.001   .     S
Er95     Er6    10.001   1_455     S
Er95     Er96    9.999   .     S
Er96     Er58    10.001   1_545     S
V97     Er108    10.0   .     S
V97     Er102    10.0   .     S
V97     V131    10.001   .     S
V97     V106    10.001   .     S
V98     Er108    10.0   .     S
V98     Er102    10.0   .     S
V98     V155    10.001   1_565     S
V98     V100    10.001   .     S
V99     Er120    10.0   .     S
V99     Er101    10.0   .     S
V99     V118    10.001   .     S
V100     Er120    10.0   .     S
V100     Er101    10.0   .     S
V100     V158    10.001   1_565     S
Er101     Er102    9.999   .     S
Er102     Er136    10.001   .     S
Er103     Er104    9.999   .     S
Er103     V106    10.0   .     S
Er103     V105    10.0   .     S
Er103     Er122    10.001   .     S
Er104     V110    10.0   .     S
Er104     V109    10.0   .     S
Er104     Er149    10.001   .     S
V105     V62    10.001   1_554     S
V105     Er107    10.0   .     S
V105     V109    10.001   .     S
V106     Er107    10.0   .     S
V106     V128    10.001   .     S
Er107     Er66    10.001   1_554     S
Er107     Er108    9.999   .     S
Er108     Er153    10.001   1_565     S
V109     V60    10.001   1_554     S
V109     Er114    10.0   .     S
V110     Er114    10.0   .     S
V110     V147    10.001   .     S
V110     V112    10.001   .     S
V111     Er116    10.0   .     S
V111     Er113    10.0   .     S
V111     V140    10.001   1_455     S
V111     V117    10.001   .     S
V112     Er116    10.0   .     S
V112     Er113    10.0   .     S
V112     V164    10.001   .     S
Er113     Er114    9.999   .     S
Er113     Er126    10.001   1_455     S
Er114     Er54    10.001   1_554     S
Er115     Er116    9.999   .     S
Er115     V118    10.0   .     S
Er115     V117    10.0   .     S
Er116     Er168    10.001   .     S
V117     Er119    10.0   .     S
V117     V141    10.001   1_455     S
V118     Er119    10.0   .     S
Er119     Er120    9.999   .     S
Er119     Er138    10.001   1_455     S
Er120     Er162    10.001   1_565     S
Er121     Er122    9.999   .     S
Er121     V124    10.0   .     S
Er121     V123    10.0   .     S
Er121     Er175    10.001   .     S
Er122     V128    10.0   .     S
Er122     V127    10.0   .     S
V123     V33    10.001   1_554     S
V123     Er125    10.0   .     S
V123     V127    10.001   .     S
V124     Er125    10.0   .     S
V124     V178    10.001   .     S
V124     V139    10.001   .     S
Er125     Er38    10.001   1_554     S
Er125     Er126    9.999   .     S
Er126     V140    10.0   .     S
Er126     V139    10.0   .     S
Er126     Er113    10.001   1_655     S
V127     V27    10.001   1_554     S
V127     Er129    10.0   .     S
V128     Er129    10.0   .     S
V128     V131    10.001   .     S
Er129     Er29    10.001   1_554     S
Er129     Er130    9.999   .     S
Er130     V132    10.0   .     S
Er130     V131    10.0   .     S
Er130     Er191    10.001   1_565     S
V131     Er136    10.0   .     S
V132     Er136    10.0   .     S
V132     V189    10.001   1_565     S
V132     V133    10.001   .     S
V133     Er135    10.0   .     S
V133     Er137    10.0   .     S
V133     V183    10.001   1_565     S
V134     Er135    10.0   .     S
V134     Er137    10.0   .     S
V134     V142    10.001   .     S
Er135     Er136    9.999   .     S
Er137     Er138    9.999   .     S
Er137     Er185    10.001   1_565     S
Er138     V141    10.0   .     S
Er138     V142    10.0   .     S
Er138     Er119    10.001   1_655     S
V139     Er144    10.0   .     S
V139     V169    10.001   .     S
V140     Er144    10.0   .     S
V140     V111    10.001   1_655     S
V140     V141    10.001   .     S
V141     Er143    10.0   .     S
V141     V117    10.001   1_655     S
V142     Er143    10.0   .     S
Er143     Er144    9.999   .     S
Er144     Er174    10.001   .     S
V145     Er154    10.0   .     S
V145     Er150    10.0   .     S
V145     V188    10.001   .     S
V145     V156    10.001   .     S
V146     V76    10.001   1_554     S
V146     Er154    10.0   .     S
V146     Er150    10.0   .     S
V146     V148    10.001   .     S
V147     Er152    10.0   .     S
V147     Er149    10.0   .     S
V147     V164    10.001   .     S
V148     V74    10.001   1_554     S
V148     Er152    10.0   .     S
V148     Er149    10.0   .     S
Er149     Er150    9.999   .     S
Er150     Er176    10.001   .     S
Er151     Er152    9.999   .     S
Er151     V163    10.0   .     S
Er151     V164    10.0   .     S
Er151     Er180    10.001   1_455     S
Er152     Er90    10.001   1_554     S
Er153     Er108    10.001   1_545     S
Er153     Er154    9.999   .     S
Er153     V155    10.0   .     S
Er153     V156    10.0   .     S
Er154     Er84    10.001   1_554     S
V155     V98    10.001   1_545     S
V155     Er160    10.0   .     S
V155     V158    10.001   .     S
V156     Er160    10.0   .     S
V156     V190    10.001   .     S
V157     Er162    10.0   .     S
V157     Er159    10.0   .     S
V157     V165    10.001   .     S
V158     V100    10.001   1_545     S
V158     Er162    10.0   .     S
V158     Er159    10.0   .     S
Er159     Er160    9.999   .     S
Er160     Er182    10.001   .     S
Er161     Er162    9.999   .     S
Er161     V166    10.0   .     S
Er161     V165    10.0   .     S
Er161     Er186    10.001   1_455     S
Er162     Er120    10.001   1_545     S
V163     Er168    10.0   .     S
V163     V170    10.001   1_455     S
V163     V166    10.001   .     S
V164     Er168    10.0   .     S
V165     Er167    10.0   .     S
V166     Er167    10.0   .     S
V166     V172    10.001   1_455     S
Er167     Er168    9.999   .     S
V169     Er180    10.0   .     S
V169     Er174    10.0   .     S
V169     V178    10.001   .     S
V170     Er180    10.0   .     S
V170     Er174    10.0   .     S
V170     V163    10.001   1_655     S
V170     V172    10.001   .     S
V171     Er186    10.0   .     S
V171     Er173    10.0   .     S
V171     V184    10.001   .     S
V172     Er186    10.0   .     S
V172     Er173    10.0   .     S
V172     V166    10.001   1_655     S
Er173     Er174    9.999   .     S
Er175     Er176    9.999   .     S
Er175     V178    10.0   .     S
Er175     V177    10.0   .     S
Er176     V188    10.0   .     S
Er176     V187    10.0   .     S
V177     V21    10.001   1_554     S
V177     Er179    10.0   .     S
V177     V187    10.001   .     S
V178     Er179    10.0   .     S
Er179     Er17    10.001   1_554     S
Er179     Er180    9.999   .     S
Er180     Er151    10.001   1_655     S
Er181     Er182    9.999   .     S
Er181     V184    10.0   .     S
Er181     V183    10.0   .     S
Er182     V190    10.0   .     S
Er182     V189    10.0   .     S
V183     V133    10.001   1_545     S
V183     Er185    10.0   .     S
V183     V189    10.001   .     S
V184     Er185    10.0   .     S
Er185     Er137    10.001   1_545     S
Er185     Er186    9.999   .     S
Er186     Er161    10.001   1_655     S
V187     V20    10.001   1_554     S
V187     Er192    10.0   .     S
V188     Er192    10.0   .     S
V188     V190    10.001   .     S
V189     V132    10.001   1_545     S
V189     Er191    10.0   .     S
V190     Er191    10.0   .     S
Er191     Er130    10.001   1_545     S
Er191     Er192    9.999   .     S
Er192     Er10    10.001   1_554     S
