data_bcv
_audit_creation_date              2020-02-04
_audit_creation_method            'Pymatgen'
_symmetry_space_group_name_H-M    'P1'
_symmetry_Int_Tables_number       1
loop_
_symmetry_equiv_pos_as_xyz
  x,y,z
_cell_length_a                    65.4267
_cell_length_b                    65.4267
_cell_length_c                    65.4267
_cell_angle_alpha                 90.0
_cell_angle_beta                 90.0
_cell_angle_gamma                 90.0
loop_
_atom_site_label
_atom_site_type_symbol
_atom_site_fract_x
_atom_site_fract_y
_atom_site_fract_z
Er1     Er     0.6218   0.5687   0.0612
Er2     Er     0.6813   0.6282   0.1888
Er3     Er     0.3718   0.6888   0.8187
Er4     Er     0.4313   0.5612   0.8782
Er5     Er     0.5612   0.6218   0.9313
Er6     Er     0.6888   0.6813   0.8718
Er7     Er     0.5687   0.0612   0.6218
Er8     Er     0.6282   0.1888   0.6813
Er9     Er     0.6888   0.8187   0.3718
Er10     Er     0.5612   0.8782   0.4313
Er11     Er     0.6218   0.9313   0.5612
Er12     Er     0.6813   0.8718   0.6888
Er13     Er     0.4388   0.1218   0.5687
Er14     Er     0.3112   0.1813   0.6282
Er15     Er     0.8187   0.3718   0.6888
Er16     Er     0.8782   0.4313   0.5612
Er17     Er     0.6282   0.8112   0.8187
Er18     Er     0.5687   0.9388   0.8782
Er19     Er     0.6218   0.0687   0.9388
Er20     Er     0.6813   0.1282   0.8112
Er21     Er     0.6888   0.1813   0.1282
Er22     Er     0.5612   0.1218   0.0687
Er23     Er     0.3718   0.3112   0.6813
Er24     Er     0.4313   0.4388   0.6218
Er25     Er     0.5612   0.3782   0.5687
Er26     Er     0.6888   0.3187   0.6282
Er27     Er     0.3782   0.4313   0.9388
Er28     Er     0.3187   0.3718   0.8112
Er29     Er     0.6282   0.3112   0.1813
Er30     Er     0.5687   0.4388   0.1218
Er31     Er     0.3718   0.1888   0.1813
Er32     Er     0.4313   0.0612   0.1218
Er33     Er     0.3112   0.3187   0.1282
Er34     Er     0.4388   0.3782   0.0687
Er35     Er     0.8187   0.8718   0.3112
Er36     Er     0.8782   0.9313   0.4388
Er37     Er     0.3112   0.8187   0.8718
Er38     Er     0.4388   0.8782   0.9313
Er39     Er     0.1888   0.1813   0.3718
Er40     Er     0.0612   0.1218   0.4313
Er41     Er     0.3187   0.1282   0.3112
Er42     Er     0.3782   0.0687   0.4388
Er43     Er     0.8718   0.6888   0.6813
Er44     Er     0.9313   0.5612   0.6218
Er45     Er     0.0612   0.6218   0.5687
Er46     Er     0.1888   0.6813   0.6282
Er47     Er     0.8112   0.8187   0.6282
Er48     Er     0.9388   0.8782   0.5687
Er49     Er     0.0687   0.9388   0.6218
Er50     Er     0.1282   0.8112   0.6813
Er51     Er     0.1813   0.1282   0.6888
Er52     Er     0.1218   0.0687   0.5612
Er53     Er     0.8187   0.6282   0.8112
Er54     Er     0.8782   0.5687   0.9388
Er55     Er     0.3782   0.5687   0.5612
Er56     Er     0.3187   0.6282   0.6888
Er57     Er     0.3112   0.6813   0.3718
Er58     Er     0.4388   0.6218   0.4313
Er59     Er     0.9388   0.3782   0.4313
Er60     Er     0.8112   0.3187   0.3718
Er61     Er     0.6813   0.3718   0.3112
Er62     Er     0.6218   0.4313   0.4388
Er63     Er     0.5687   0.5612   0.3782
Er64     Er     0.6282   0.6888   0.3187
Er65     Er     0.1813   0.6282   0.3112
Er66     Er     0.1218   0.5687   0.4388
Er67     Er     0.1813   0.3718   0.1888
Er68     Er     0.1218   0.4313   0.0612
Er69     Er     0.0687   0.4388   0.3782
Er70     Er     0.1282   0.3112   0.3187
Er71     Er     0.4313   0.9388   0.3782
Er72     Er     0.3718   0.8112   0.3187
Er73     Er     0.1218   0.9313   0.9388
Er74     Er     0.1813   0.8718   0.8112
Er75     Er     0.9388   0.6218   0.0687
Er76     Er     0.8112   0.6813   0.1282
Er77     Er     0.0687   0.5612   0.1218
Er78     Er     0.1282   0.6888   0.1813
Er79     Er     0.1888   0.8187   0.1282
Er80     Er     0.0612   0.8782   0.0687
Er81     Er     0.3782   0.9313   0.0612
Er82     Er     0.3187   0.8718   0.1888
Er83     Er     0.9313   0.0612   0.3782
Er84     Er     0.8718   0.1888   0.3187
Er85     Er     0.8187   0.1282   0.1888
Er86     Er     0.8782   0.0687   0.0612
Er87     Er     0.9313   0.9388   0.1218
Er88     Er     0.8718   0.8112   0.1813
Er89     Er     0.9388   0.1218   0.9313
Er90     Er     0.8112   0.1813   0.8718
Er91     Er     0.9313   0.4388   0.8782
Er92     Er     0.8718   0.3112   0.8187
Er93     Er     0.1282   0.1888   0.8187
Er94     Er     0.0687   0.0612   0.8782
Er95     Er     0.1888   0.3187   0.8718
Er96     Er     0.0612   0.3782   0.9313
V97     V     0.75   0.875   0.5
V98     V     0.5   0.75   0.875
V99     V     0.25   0.125   0.5
V100     V     0.875   0.5   0.75
V101     V     0.5   0.25   0.125
V102     V     0.125   0.5   0.25
V103     V     0.0   0.75   0.125
V104     V     0.125   0.0   0.75
V105     V     0.75   0.125   0.0
V106     V     0.625   0.0   0.75
V107     V     0.75   0.625   0.0
V108     V     0.0   0.75   0.625
V109     V     0.5   0.75   0.375
V110     V     0.0   0.25   0.875
V111     V     0.375   0.0   0.25
V112     V     0.25   0.875   0.0
V113     V     0.25   0.375   0.0
V114     V     0.875   0.0   0.25
V115     V     0.25   0.625   0.5
V116     V     0.375   0.5   0.75
V117     V     0.75   0.375   0.5
V118     V     0.0   0.25   0.375
V119     V     0.5   0.25   0.625
V120     V     0.625   0.5   0.25
loop_
_geom_bond_atom_site_label_1
_geom_bond_atom_site_label_2
_geom_bond_distance
_geom_bond_site_symmetry_2
_ccdc_geom_bond_type
Er1     V107    10.0   .     S
Er1     Er2    10.0   .     S
Er1     Er30    10.0   .     S
Er1     Er5    10.0   1_554     S
Er2     V120    10.0   .     S
Er2     Er76    10.0   .     S
Er2     Er64    10.0   .     S
Er3     V98    10.0   .     S
Er3     Er4    10.0   .     S
Er3     Er56    10.0   .     S
Er3     Er37    10.0   .     S
Er4     V116    10.0   .     S
Er4     Er5    10.0   .     S
Er4     Er27    10.0   .     S
Er5     V98    10.0   .     S
Er5     Er6    10.0   .     S
Er5     Er1    10.0   1_556     S
Er6     V107    10.0   1_556     S
Er6     Er17    10.0   .     S
Er6     Er53    10.0   .     S
Er7     V106    10.0   .     S
Er7     Er8    10.0   .     S
Er7     Er13    10.0   .     S
Er7     Er11    10.0   1_545     S
Er8     V119    10.0   .     S
Er8     Er20    10.0   .     S
Er8     Er26    10.0   .     S
Er9     V97    10.0   .     S
Er9     Er10    10.0   .     S
Er9     Er64    10.0   .     S
Er9     Er35    10.0   .     S
Er10     V109    10.0   .     S
Er10     Er11    10.0   .     S
Er10     Er71    10.0   .     S
Er11     V97    10.0   .     S
Er11     Er12    10.0   .     S
Er11     Er7    10.0   1_565     S
Er12     V106    10.0   1_565     S
Er12     Er47    10.0   .     S
Er12     Er17    10.0   .     S
Er13     V119    10.0   .     S
Er13     Er14    10.0   .     S
Er13     Er42    10.0   .     S
Er14     V99    10.0   .     S
Er14     Er23    10.0   .     S
Er14     Er51    10.0   .     S
Er15     V100    10.0   .     S
Er15     Er16    10.0   .     S
Er15     Er26    10.0   .     S
Er15     Er92    10.0   .     S
Er16     V117    10.0   .     S
Er16     Er44    10.0   .     S
Er16     Er59    10.0   .     S
Er17     V98    10.0   .     S
Er17     Er18    10.0   .     S
Er18     V106    10.0   1_565     S
Er18     Er38    10.0   .     S
Er18     Er19    10.0   1_565     S
Er19     V105    10.0   1_556     S
Er19     Er20    10.0   .     S
Er19     Er18    10.0   1_545     S
Er19     Er22    10.0   1_556     S
Er20     V106    10.0   .     S
Er20     Er90    10.0   .     S
Er21     V105    10.0   .     S
Er21     Er22    10.0   .     S
Er21     Er29    10.0   .     S
Er21     Er85    10.0   .     S
Er22     V101    10.0   .     S
Er22     Er19    10.0   1_554     S
Er22     Er32    10.0   .     S
Er23     V119    10.0   .     S
Er23     Er24    10.0   .     S
Er23     Er28    10.0   .     S
Er24     V116    10.0   .     S
Er24     Er25    10.0   .     S
Er24     Er55    10.0   .     S
Er25     V119    10.0   .     S
Er25     Er26    10.0   .     S
Er25     Er62    10.0   .     S
Er26     V117    10.0   .     S
Er27     V113    10.0   1_556     S
Er27     Er28    10.0   .     S
Er27     Er34    10.0   1_556     S
Er28     V116    10.0   .     S
Er28     Er95    10.0   .     S
Er29     V101    10.0   .     S
Er29     Er30    10.0   .     S
Er29     Er61    10.0   .     S
Er30     V120    10.0   .     S
Er30     Er34    10.0   .     S
Er31     V101    10.0   .     S
Er31     Er32    10.0   .     S
Er31     Er41    10.0   .     S
Er31     Er33    10.0   .     S
Er32     V111    10.0   .     S
Er32     Er81    10.0   1_545     S
Er33     V113    10.0   .     S
Er33     Er34    10.0   .     S
Er33     Er67    10.0   .     S
Er34     V101    10.0   .     S
Er34     Er27    10.0   1_554     S
Er35     V114    10.0   1_565     S
Er35     Er36    10.0   .     S
Er35     Er88    10.0   .     S
Er36     V97    10.0   .     S
Er36     Er83    10.0   1_565     S
Er36     Er48    10.0   .     S
Er37     V112    10.0   1_556     S
Er37     Er38    10.0   .     S
Er37     Er74    10.0   .     S
Er38     V98    10.0   .     S
Er38     Er81    10.0   1_556     S
Er39     V99    10.0   .     S
Er39     Er40    10.0   .     S
Er39     Er70    10.0   .     S
Er39     Er41    10.0   .     S
Er40     V118    10.0   .     S
Er40     Er52    10.0   .     S
Er40     Er83    10.0   1_455     S
Er41     V111    10.0   .     S
Er41     Er42    10.0   .     S
Er42     V99    10.0   .     S
Er42     Er71    10.0   1_545     S
Er43     V108    10.0   1_655     S
Er43     Er44    10.0   .     S
Er43     Er53    10.0   .     S
Er43     Er47    10.0   .     S
Er44     V100    10.0   .     S
Er44     Er45    10.0   1_655     S
Er45     Er44    10.0   1_455     S
Er45     V108    10.0   .     S
Er45     Er46    10.0   .     S
Er45     Er66    10.0   .     S
Er46     V115    10.0   .     S
Er46     Er50    10.0   .     S
Er46     Er56    10.0   .     S
Er47     V97    10.0   .     S
Er47     Er48    10.0   .     S
Er48     V108    10.0   1_655     S
Er48     Er49    10.0   1_655     S
Er49     V104    10.0   1_565     S
Er49     Er50    10.0   .     S
Er49     Er48    10.0   1_455     S
Er49     Er52    10.0   1_565     S
Er50     V108    10.0   .     S
Er50     Er74    10.0   .     S
Er51     V104    10.0   .     S
Er51     Er52    10.0   .     S
Er51     Er93    10.0   .     S
Er52     V99    10.0   .     S
Er52     Er49    10.0   1_545     S
Er53     V100    10.0   .     S
Er53     Er54    10.0   .     S
Er54     V107    10.0   1_556     S
Er54     Er91    10.0   .     S
Er54     Er75    10.0   1_556     S
Er55     V115    10.0   .     S
Er55     Er56    10.0   .     S
Er55     Er58    10.0   .     S
Er56     V116    10.0   .     S
Er57     V115    10.0   .     S
Er57     Er58    10.0   .     S
Er57     Er72    10.0   .     S
Er57     Er65    10.0   .     S
Er58     V109    10.0   .     S
Er58     Er63    10.0   .     S
Er59     V118    10.0   1_655     S
Er59     Er60    10.0   .     S
Er59     Er69    10.0   1_655     S
Er60     V117    10.0   .     S
Er60     Er84    10.0   .     S
Er60     Er61    10.0   .     S
Er61     V120    10.0   .     S
Er61     Er62    10.0   .     S
Er62     V117    10.0   .     S
Er62     Er63    10.0   .     S
Er63     V120    10.0   .     S
Er63     Er64    10.0   .     S
Er64     V109    10.0   .     S
Er65     V102    10.0   .     S
Er65     Er66    10.0   .     S
Er65     Er78    10.0   .     S
Er66     V115    10.0   .     S
Er66     Er69    10.0   .     S
Er67     V102    10.0   .     S
Er67     Er68    10.0   .     S
Er67     Er70    10.0   .     S
Er68     V113    10.0   .     S
Er68     Er77    10.0   .     S
Er68     Er96    10.0   1_554     S
Er69     V102    10.0   .     S
Er69     Er70    10.0   .     S
Er69     Er59    10.0   1_455     S
Er70     V118    10.0   .     S
Er71     Er42    10.0   1_565     S
Er71     V111    10.0   1_565     S
Er71     Er72    10.0   .     S
Er72     V109    10.0   .     S
Er72     Er82    10.0   .     S
Er73     V112    10.0   1_556     S
Er73     Er74    10.0   .     S
Er73     Er94    10.0   1_565     S
Er73     Er80    10.0   1_556     S
Er74     V104    10.0   1_565     S
Er75     V103    10.0   1_655     S
Er75     Er76    10.0   .     S
Er75     Er54    10.0   1_554     S
Er75     Er77    10.0   1_655     S
Er76     V107    10.0   .     S
Er76     Er88    10.0   .     S
Er77     V102    10.0   .     S
Er77     Er78    10.0   .     S
Er77     Er75    10.0   1_455     S
Er78     V103    10.0   .     S
Er78     Er79    10.0   .     S
Er79     V112    10.0   .     S
Er79     Er80    10.0   .     S
Er79     Er82    10.0   .     S
Er80     V103    10.0   .     S
Er80     Er73    10.0   1_554     S
Er80     Er87    10.0   1_455     S
Er81     Er38    10.0   1_554     S
Er81     V112    10.0   .     S
Er81     Er82    10.0   .     S
Er81     Er32    10.0   1_565     S
Er82     V111    10.0   1_565     S
Er83     Er36    10.0   1_545     S
Er83     V114    10.0   .     S
Er83     Er84    10.0   .     S
Er83     Er40    10.0   1_655     S
Er84     V118    10.0   1_655     S
Er84     Er85    10.0   .     S
Er85     V114    10.0   .     S
Er85     Er86    10.0   .     S
Er86     V105    10.0   .     S
Er86     Er87    10.0   1_545     S
Er86     Er89    10.0   1_554     S
Er87     Er86    10.0   1_565     S
Er87     V114    10.0   1_565     S
Er87     Er88    10.0   .     S
Er87     Er80    10.0   1_655     S
Er88     V103    10.0   1_655     S
Er89     V110    10.0   1_655     S
Er89     Er90    10.0   .     S
Er89     Er86    10.0   1_556     S
Er89     Er94    10.0   1_655     S
Er90     V105    10.0   1_556     S
Er90     Er92    10.0   .     S
Er91     V100    10.0   .     S
Er91     Er92    10.0   .     S
Er91     Er96    10.0   1_655     S
Er92     V110    10.0   1_655     S
Er93     V110    10.0   .     S
Er93     Er94    10.0   .     S
Er93     Er95    10.0   .     S
Er94     Er73    10.0   1_545     S
Er94     V104    10.0   .     S
Er94     Er89    10.0   1_455     S
Er95     V113    10.0   1_556     S
Er95     Er96    10.0   .     S
Er96     Er91    10.0   1_455     S
Er96     V110    10.0   .     S
Er96     Er68    10.0   1_556     S
V103     Er75    10.0   1_455     S
V103     Er88    10.0   1_455     S
V104     Er49    10.0   1_545     S
V104     Er74    10.0   1_545     S
V105     Er19    10.0   1_554     S
V105     Er90    10.0   1_554     S
V106     Er12    10.0   1_545     S
V106     Er18    10.0   1_545     S
V107     Er6    10.0   1_554     S
V107     Er54    10.0   1_554     S
V108     Er43    10.0   1_455     S
V108     Er48    10.0   1_455     S
V110     Er89    10.0   1_455     S
V110     Er92    10.0   1_455     S
V111     Er71    10.0   1_545     S
V111     Er82    10.0   1_545     S
V112     Er37    10.0   1_554     S
V112     Er73    10.0   1_554     S
V113     Er27    10.0   1_554     S
V113     Er95    10.0   1_554     S
V114     Er35    10.0   1_545     S
V114     Er87    10.0   1_545     S
V118     Er59    10.0   1_455     S
V118     Er84    10.0   1_455     S
