data_bem
_audit_creation_date              2020-02-04
_audit_creation_method            'Pymatgen'
_symmetry_space_group_name_H-M    'P1'
_symmetry_Int_Tables_number       1
loop_
_symmetry_equiv_pos_as_xyz
  x,y,z
_cell_length_a                    23.6315
_cell_length_b                    23.6315
_cell_length_c                    23.6315
_cell_angle_alpha                 90.0
_cell_angle_beta                 90.0
_cell_angle_gamma                 90.0
loop_
_atom_site_label
_atom_site_type_symbol
_atom_site_fract_x
_atom_site_fract_y
_atom_site_fract_z
V1     V     0.2112   0.5389   0.375
V2     V     0.375   0.2112   0.5389
V3     V     0.5389   0.375   0.2112
Er4     Er     0.9303   0.4303   0.0697
Er5     Er     0.1803   0.1803   0.1803
Er6     Er     0.0697   0.9303   0.4303
Er7     Er     0.6803   0.3197   0.8197
Er8     Er     0.5697   0.5697   0.5697
Er9     Er     0.8197   0.6803   0.3197
Er10     Er     0.3197   0.8197   0.6803
Er11     Er     0.4303   0.0697   0.9303
V12     V     0.875   0.2888   0.4611
V13     V     0.7111   0.9612   0.625
V14     V     0.0388   0.125   0.7889
V15     V     0.2888   0.4611   0.875
V16     V     0.9612   0.625   0.7111
V17     V     0.125   0.7889   0.0389
V18     V     0.4612   0.875   0.2889
V19     V     0.625   0.7111   0.9612
V20     V     0.7889   0.0388   0.125
loop_
_geom_bond_atom_site_label_1
_geom_bond_atom_site_label_2
_geom_bond_distance
_geom_bond_site_symmetry_2
_ccdc_geom_bond_type
V1     V15    12.098   1_554     S
V1     V15    12.098   .     S
V1     Er8    9.668   .     S
V1     Er5    9.668   .     S
V1     Er4    10.133   1_455     S
V1     Er10    10.133   .     S
V1     Er9    9.923   1_455     S
V1     Er6    9.923   .     S
V1     V12    10.107   1_455     S
V1     V17    10.107   .     S
V1     V18    10.107   .     S
V1     V16    10.107   1_455     S
V1     V2    9.484   .     S
V1     V3    9.484   .     S
V2     V12    12.098   1_455     S
V2     V12    12.098   .     S
V2     Er8    9.668   .     S
V2     Er5    9.668   .     S
V2     Er6    10.133   1_545     S
V2     Er7    10.133   .     S
V2     Er10    9.923   1_545     S
V2     Er11    9.923   .     S
V2     V18    10.107   1_545     S
V2     V14    10.107   .     S
V2     V13    10.107   1_545     S
V2     V15    10.107   .     S
V2     V3    9.484   .     S
V3     V18    12.098   1_545     S
V3     V18    12.098   .     S
V3     Er8    9.668   .     S
V3     Er5    9.668   .     S
V3     Er11    10.133   1_554     S
V3     Er9    10.133   .     S
V3     Er7    9.923   1_554     S
V3     Er4    9.923   .     S
V3     V20    10.107   .     S
V3     V15    10.107   1_554     S
V3     V12    10.107   .     S
V3     V19    10.107   1_554     S
Er4     V16    9.668   1_554     S
Er4     V15    9.668   1_654     S
Er4     V17    9.668   1_655     S
Er4     V19    10.133   1_554     S
Er4     V14    10.133   1_654     S
Er4     V1    10.133   1_655     S
Er4     V20    9.923   .     S
Er4     V12    9.923   .     S
Er4     Er5    8.755   1_655     S
Er4     Er7    8.755   1_554     S
Er4     Er9    8.755   .     S
Er5     V18    10.133   1_545     S
Er5     V12    10.133   1_455     S
Er5     V15    10.133   1_554     S
Er5     V20    9.923   1_455     S
Er5     V14    9.923   1_554     S
Er5     V17    9.923   1_545     S
Er5     Er4    8.755   1_455     S
Er5     Er11    8.755   1_554     S
Er5     Er6    8.755   1_545     S
Er6     V13    9.668   1_455     S
Er6     V12    9.668   1_465     S
Er6     V14    9.668   1_565     S
Er6     V20    10.133   1_465     S
Er6     V16    10.133   1_455     S
Er6     V2    10.133   1_565     S
Er6     V18    9.923   .     S
Er6     V17    9.923   .     S
Er6     Er5    8.755   1_565     S
Er6     Er9    8.755   1_455     S
Er6     Er10    8.755   .     S
Er7     V13    9.668   1_545     S
Er7     V12    9.668   .     S
Er7     V14    9.668   1_655     S
Er7     V20    10.133   1_556     S
Er7     V16    10.133   .     S
Er7     V19    9.923   .     S
Er7     V15    9.923   .     S
Er7     V3    9.923   1_556     S
Er7     Er4    8.755   1_556     S
Er7     Er8    8.755   .     S
Er7     Er11    8.755   .     S
Er8     V18    10.133   .     S
Er8     V12    10.133   .     S
Er8     V15    10.133   .     S
Er8     V19    9.923   .     S
Er8     V13    9.923   .     S
Er8     V16    9.923   .     S
Er8     Er9    8.755   .     S
Er8     Er10    8.755   .     S
Er9     V19    9.668   1_554     S
Er9     V18    9.668   .     S
Er9     V20    9.668   1_565     S
Er9     V13    10.133   .     S
Er9     V17    10.133   1_655     S
Er9     V12    9.923   .     S
Er9     V16    9.923   .     S
Er9     V1    9.923   1_655     S
Er9     Er6    8.755   1_655     S
Er10     V16    9.668   1_455     S
Er10     V15    9.668   .     S
Er10     V17    9.668   1_556     S
Er10     V19    10.133   .     S
Er10     V14    10.133   1_565     S
Er10     V18    9.923   .     S
Er10     V13    9.923   .     S
Er10     V2    9.923   1_565     S
Er10     Er11    8.755   1_565     S
Er11     V19    9.668   1_545     S
Er11     V18    9.668   1_546     S
Er11     V20    9.668   1_556     S
Er11     V13    10.133   1_545     S
Er11     V17    10.133   1_546     S
Er11     V3    10.133   1_556     S
Er11     V14    9.923   .     S
Er11     V15    9.923   .     S
Er11     Er5    8.755   1_556     S
Er11     Er10    8.755   1_545     S
V12     V2    12.098   1_655     S
V12     Er6    9.668   1_645     S
V12     Er5    10.133   1_655     S
V12     V16    10.107   .     S
V12     V20    10.107   .     S
V12     V1    10.107   1_655     S
V12     V13    9.484   1_545     S
V12     V14    9.484   1_655     S
V13     V20    12.098   1_566     S
V13     V20    12.098   1_565     S
V13     Er6    9.668   1_655     S
V13     Er7    9.668   1_565     S
V13     Er11    10.133   1_565     S
V13     V16    10.107   .     S
V13     V19    10.107   .     S
V13     V18    10.107   .     S
V13     V2    10.107   1_565     S
V13     V12    9.484   1_565     S
V13     V14    9.484   1_665     S
V14     V16    12.098   1_445     S
V14     V16    12.098   1_455     S
V14     Er7    9.668   1_455     S
V14     Er6    9.668   1_545     S
V14     Er10    10.133   1_545     S
V14     Er4    10.133   1_456     S
V14     Er5    9.923   1_556     S
V14     V17    10.107   1_546     S
V14     V20    10.107   1_456     S
V14     V15    10.107   .     S
V14     V12    9.484   1_455     S
V14     V13    9.484   1_445     S
V15     V1    12.098   1_556     S
V15     Er4    9.668   1_456     S
V15     Er5    10.133   1_556     S
V15     V19    10.107   .     S
V15     V3    10.107   1_556     S
V15     V16    9.484   1_455     S
V15     V17    9.484   1_556     S
V16     V14    12.098   1_665     S
V16     V14    12.098   1_655     S
V16     Er4    9.668   1_556     S
V16     Er10    9.668   1_655     S
V16     Er6    10.133   1_655     S
V16     V19    10.107   .     S
V16     V1    10.107   1_655     S
V16     V15    9.484   1_655     S
V16     V17    9.484   1_656     S
V17     V19    12.098   1_454     S
V17     V19    12.098   1_554     S
V17     Er10    9.668   1_554     S
V17     Er4    9.668   1_455     S
V17     Er9    10.133   1_455     S
V17     Er11    10.133   1_564     S
V17     Er5    9.923   1_565     S
V17     V20    10.107   1_465     S
V17     V14    10.107   1_564     S
V17     V18    10.107   .     S
V17     V15    9.484   1_554     S
V17     V16    9.484   1_454     S
V18     V3    12.098   1_565     S
V18     Er11    9.668   1_564     S
V18     Er5    10.133   1_565     S
V18     V2    10.107   1_565     S
V18     V20    9.484   1_565     S
V18     V19    9.484   1_554     S
V19     V17    12.098   1_656     S
V19     V17    12.098   1_556     S
V19     Er11    9.668   1_565     S
V19     Er9    9.668   1_556     S
V19     Er4    10.133   1_556     S
V19     V3    10.107   1_556     S
V19     V18    9.484   1_556     S
V19     V20    9.484   1_566     S
V20     V13    12.098   1_544     S
V20     V13    12.098   1_545     S
V20     Er9    9.668   1_545     S
V20     Er11    9.668   1_554     S
V20     Er7    10.133   1_554     S
V20     Er6    10.133   1_645     S
V20     Er5    9.923   1_655     S
V20     V17    10.107   1_645     S
V20     V14    10.107   1_654     S
V20     V18    9.484   1_545     S
V20     V19    9.484   1_544     S
