data_bix
_audit_creation_date              2020-02-04
_audit_creation_method            'Pymatgen'
_symmetry_space_group_name_H-M    'P1'
_symmetry_Int_Tables_number       1
loop_
_symmetry_equiv_pos_as_xyz
  x,y,z
_cell_length_a                    46.6199
_cell_length_b                    46.6199
_cell_length_c                    46.6199
_cell_angle_alpha                 90.0
_cell_angle_beta                 90.0
_cell_angle_gamma                 90.0
loop_
_atom_site_label
_atom_site_type_symbol
_atom_site_fract_x
_atom_site_fract_y
_atom_site_fract_z
Ti1     Ti     0.25   0.7243   0.5
Ti2     Ti     0.75   0.7243   0.0
Ti3     Ti     0.2243   0.5   0.25
Ti4     Ti     0.5   0.25   0.2243
Ti5     Ti     0.25   0.2243   0.5
Ti6     Ti     0.7243   0.5   0.25
Ti7     Ti     0.0   0.25   0.2757
Ti8     Ti     0.7757   0.0   0.25
Ti9     Ti     0.75   0.7757   0.5
V10     V     0.8939   0.8668   0.3696
V11     V     0.8668   0.1304   0.3939
V12     V     0.8696   0.8939   0.6332
V13     V     0.1304   0.1061   0.3668
V14     V     0.1061   0.1332   0.6304
V15     V     0.1332   0.8696   0.6061
Er16     Er     0.0   0.0   0.5
Ti17     Ti     0.75   0.2757   0.5
Ti18     Ti     0.0   0.75   0.7243
V19     V     0.1304   0.6061   0.6332
V20     V     0.1332   0.3696   0.3939
V21     V     0.8668   0.6304   0.6061
V22     V     0.8696   0.3939   0.3668
V23     V     0.8939   0.3668   0.6304
V24     V     0.1061   0.6332   0.3696
Er25     Er     0.0   0.5   0.5
V26     V     0.6332   0.3696   0.1061
V27     V     0.6061   0.6332   0.1304
V28     V     0.3939   0.3668   0.8696
V29     V     0.3668   0.6304   0.8939
V30     V     0.6304   0.6061   0.8668
V31     V     0.3696   0.3939   0.1332
Er32     Er     0.5   0.5   0.0
Ti33     Ti     0.2757   0.5   0.75
V34     V     0.6332   0.6304   0.3939
V35     V     0.6304   0.3939   0.6332
V36     V     0.3939   0.6332   0.6304
V37     V     0.3696   0.6061   0.3668
V38     V     0.6061   0.3668   0.3696
V39     V     0.3668   0.3696   0.6061
Er40     Er     0.5   0.5   0.5
Ti41     Ti     0.5   0.75   0.7757
Ti42     Ti     0.2757   0.0   0.25
Ti43     Ti     0.25   0.7757   0.0
V44     V     0.3696   0.8939   0.8668
V45     V     0.6332   0.8696   0.8939
V46     V     0.3939   0.8668   0.1304
V47     V     0.3668   0.1304   0.1061
V48     V     0.6061   0.1332   0.8696
V49     V     0.6304   0.1061   0.1332
Er50     Er     0.5   0.0   0.0
Ti51     Ti     0.0   0.75   0.2243
Ti52     Ti     0.75   0.2243   0.0
Ti53     Ti     0.2243   0.0   0.75
V54     V     0.1332   0.1304   0.8939
V55     V     0.1304   0.8939   0.1332
V56     V     0.8939   0.1332   0.1304
V57     V     0.8668   0.8696   0.1061
V58     V     0.1061   0.8668   0.8696
V59     V     0.8696   0.1061   0.8668
Er60     Er     0.0   0.0   0.0
Ti61     Ti     0.25   0.2757   0.0
Ti62     Ti     0.7757   0.5   0.75
Ti63     Ti     0.0   0.25   0.7757
V64     V     0.8668   0.3696   0.8939
V65     V     0.1304   0.3939   0.8668
V66     V     0.8939   0.6332   0.8696
V67     V     0.1061   0.3668   0.1304
V68     V     0.8696   0.6061   0.1332
V69     V     0.1332   0.6304   0.1061
Er70     Er     0.0   0.5   0.0
Ti71     Ti     0.5   0.75   0.2757
Ti72     Ti     0.5   0.25   0.7243
Ti73     Ti     0.7243   0.0   0.75
V74     V     0.3696   0.1061   0.6332
V75     V     0.6061   0.8668   0.6304
V76     V     0.6332   0.1304   0.6061
V77     V     0.3668   0.8696   0.3939
V78     V     0.6304   0.8939   0.3668
V79     V     0.3939   0.1332   0.3696
Er80     Er     0.5   0.0   0.5
loop_
_geom_bond_atom_site_label_1
_geom_bond_atom_site_label_2
_geom_bond_distance
_geom_bond_site_symmetry_2
_ccdc_geom_bond_type
Ti1     V37    10.0   .     S
Ti1     V19    10.0   .     S
Ti1     V36    10.0   .     S
Ti1     V24    10.0   .     S
Ti1     V15    10.0   .     S
Ti1     V77    10.0   .     S
Ti2     V68    10.0   .     S
Ti2     V30    10.0   1_554     S
Ti2     V66    10.0   1_554     S
Ti2     V27    10.0   .     S
Ti2     V45    10.0   1_554     S
Ti2     V57    10.0   .     S
Ti3     V67    10.0   .     S
Ti3     V24    10.0   .     S
Ti3     V20    10.0   .     S
Ti3     V69    10.0   .     S
Ti3     V31    10.0   .     S
Ti3     V37    10.0   .     S
Ti4     V47    10.0   .     S
Ti4     V26    10.0   .     S
Ti4     V31    10.0   .     S
Ti4     V49    10.0   .     S
Ti4     V38    10.0   .     S
Ti4     V79    10.0   .     S
Ti5     V13    10.0   .     S
Ti5     V74    10.0   .     S
Ti5     V14    10.0   .     S
Ti5     V79    10.0   .     S
Ti5     V20    10.0   .     S
Ti5     V39    10.0   .     S
Ti6     V38    10.0   .     S
Ti6     V27    10.0   .     S
Ti6     V34    10.0   .     S
Ti6     V26    10.0   .     S
Ti6     V22    10.0   .     S
Ti6     V68    10.0   .     S
Ti7     V20    10.0   .     S
Ti7     V11    10.0   1_455     S
Ti7     V22    10.0   1_455     S
Ti7     V13    10.0   .     S
Ti7     V56    10.0   1_455     S
Ti7     V67    10.0   .     S
Ti8     V56    10.0   .     S
Ti8     V10    10.0   1_545     S
Ti8     V57    10.0   1_545     S
Ti8     V11    10.0   .     S
Ti8     V49    10.0   .     S
Ti8     V78    10.0   1_545     S
Ti9     V78    10.0   .     S
Ti9     V12    10.0   .     S
Ti9     V10    10.0   .     S
Ti9     V75    10.0   .     S
Ti9     V21    10.0   .     S
Ti9     V34    10.0   .     S
V10     Ti8    10.0   1_565     S
V10     Ti51    10.0   1_655     S
V10     Er16    10.0   1_665     S
V11     Ti7    10.0   1_655     S
V11     Ti17    10.0   .     S
V11     Er16    10.0   1_655     S
V12     Ti73    10.0   1_565     S
V12     Er16    10.0   1_665     S
V12     Ti18    10.0   1_655     S
V13     Ti42    10.0   .     S
V13     Er16    10.0   .     S
V14     Ti63    10.0   .     S
V14     Er16    10.0   .     S
V14     Ti53    10.0   .     S
V15     Er16    10.0   1_565     S
V15     Ti18    10.0   .     S
V15     Ti53    10.0   1_565     S
Er16     V10    10.0   1_445     S
Er16     V11    10.0   1_455     S
Er16     V12    10.0   1_445     S
Er16     V15    10.0   1_545     S
Ti17     V22    10.0   .     S
Ti17     V35    10.0   .     S
Ti17     V23    10.0   .     S
Ti17     V38    10.0   .     S
Ti17     V76    10.0   .     S
Ti18     V21    10.0   1_455     S
Ti18     V12    10.0   1_455     S
Ti18     V19    10.0   .     S
Ti18     V58    10.0   .     S
Ti18     V66    10.0   1_455     S
V19     Ti33    10.0   .     S
V19     Er25    10.0   .     S
V20     Er25    10.0   .     S
V21     Ti18    10.0   1_655     S
V21     Er25    10.0   1_655     S
V21     Ti62    10.0   .     S
V22     Ti7    10.0   1_655     S
V22     Er25    10.0   1_655     S
V23     Ti63    10.0   1_655     S
V23     Er25    10.0   1_655     S
V23     Ti62    10.0   .     S
V24     Ti51    10.0   .     S
V24     Er25    10.0   .     S
Er25     V21    10.0   1_455     S
Er25     V22    10.0   1_455     S
Er25     V23    10.0   1_455     S
V26     Ti52    10.0   .     S
V26     Er32    10.0   .     S
V27     Ti71    10.0   .     S
V27     Er32    10.0   .     S
V28     Ti72    10.0   .     S
V28     Er32    10.0   1_556     S
V28     Ti33    10.0   .     S
V28     Ti61    10.0   1_556     S
V29     Ti43    10.0   1_556     S
V29     Er32    10.0   1_556     S
V29     Ti33    10.0   .     S
V29     Ti41    10.0   .     S
V30     Ti2    10.0   1_556     S
V30     Ti62    10.0   .     S
V30     Er32    10.0   1_556     S
V30     Ti41    10.0   .     S
V31     Er32    10.0   .     S
V31     Ti61    10.0   .     S
Er32     V28    10.0   1_554     S
Er32     V29    10.0   1_554     S
Er32     V30    10.0   1_554     S
Ti33     V36    10.0   .     S
Ti33     V39    10.0   .     S
Ti33     V65    10.0   .     S
V34     Er40    10.0   .     S
V34     Ti71    10.0   .     S
V35     Ti62    10.0   .     S
V35     Er40    10.0   .     S
V35     Ti72    10.0   .     S
V36     Ti41    10.0   .     S
V36     Er40    10.0   .     S
V37     Er40    10.0   .     S
V37     Ti71    10.0   .     S
V38     Er40    10.0   .     S
V39     Er40    10.0   .     S
V39     Ti72    10.0   .     S
Ti41     V45    10.0   .     S
Ti41     V44    10.0   .     S
Ti41     V75    10.0   .     S
Ti42     V79    10.0   .     S
Ti42     V46    10.0   1_545     S
Ti42     V77    10.0   1_545     S
Ti42     V47    10.0   .     S
Ti42     V55    10.0   1_545     S
Ti43     V29    10.0   1_554     S
Ti43     V55    10.0   .     S
Ti43     V44    10.0   1_554     S
Ti43     V58    10.0   1_554     S
Ti43     V46    10.0   .     S
Ti43     V69    10.0   .     S
V44     Ti43    10.0   1_556     S
V44     Ti53    10.0   1_565     S
V44     Er50    10.0   1_566     S
V45     Ti2    10.0   1_556     S
V45     Er50    10.0   1_566     S
V45     Ti73    10.0   1_565     S
V46     Ti42    10.0   1_565     S
V46     Ti71    10.0   .     S
V46     Er50    10.0   1_565     S
V47     Ti61    10.0   .     S
V47     Er50    10.0   .     S
V48     Ti72    10.0   .     S
V48     Er50    10.0   1_556     S
V48     Ti52    10.0   1_556     S
V48     Ti73    10.0   .     S
V49     Er50    10.0   .     S
V49     Ti52    10.0   .     S
Er50     V44    10.0   1_544     S
Er50     V45    10.0   1_544     S
Er50     V46    10.0   1_545     S
Er50     V48    10.0   1_554     S
Ti51     V10    10.0   1_455     S
Ti51     V69    10.0   .     S
Ti51     V57    10.0   1_455     S
Ti51     V68    10.0   1_455     S
Ti51     V55    10.0   .     S
Ti52     V59    10.0   1_554     S
Ti52     V48    10.0   1_554     S
Ti52     V56    10.0   .     S
Ti52     V64    10.0   1_554     S
Ti53     V44    10.0   1_545     S
Ti53     V58    10.0   1_545     S
Ti53     V54    10.0   .     S
Ti53     V15    10.0   1_545     S
Ti53     V74    10.0   .     S
V54     Ti61    10.0   1_556     S
V54     Er60    10.0   1_556     S
V54     Ti63    10.0   .     S
V55     Ti42    10.0   1_565     S
V55     Er60    10.0   1_565     S
V56     Ti7    10.0   1_655     S
V56     Er60    10.0   1_655     S
V57     Ti8    10.0   1_565     S
V57     Ti51    10.0   1_655     S
V57     Er60    10.0   1_665     S
V58     Ti43    10.0   1_556     S
V58     Ti53    10.0   1_565     S
V58     Er60    10.0   1_566     S
V59     Ti52    10.0   1_556     S
V59     Ti73    10.0   .     S
V59     Er60    10.0   1_656     S
V59     Ti63    10.0   1_655     S
Er60     V54    10.0   1_554     S
Er60     V55    10.0   1_545     S
Er60     V56    10.0   1_455     S
Er60     V57    10.0   1_445     S
Er60     V58    10.0   1_544     S
Er60     V59    10.0   1_454     S
Ti61     V54    10.0   1_554     S
Ti61     V65    10.0   1_554     S
Ti61     V28    10.0   1_554     S
Ti61     V67    10.0   .     S
Ti62     V66    10.0   .     S
Ti62     V64    10.0   .     S
Ti63     V23    10.0   1_455     S
Ti63     V64    10.0   1_455     S
Ti63     V59    10.0   1_455     S
Ti63     V65    10.0   .     S
V64     Ti63    10.0   1_655     S
V64     Ti52    10.0   1_556     S
V64     Er70    10.0   1_656     S
V65     Ti61    10.0   1_556     S
V65     Er70    10.0   1_556     S
V66     Ti2    10.0   1_556     S
V66     Ti18    10.0   1_655     S
V66     Er70    10.0   1_656     S
V67     Er70    10.0   .     S
V68     Ti51    10.0   1_655     S
V68     Er70    10.0   1_655     S
V69     Er70    10.0   .     S
Er70     V64    10.0   1_454     S
Er70     V65    10.0   1_554     S
Er70     V66    10.0   1_454     S
Er70     V68    10.0   1_455     S
Ti71     V77    10.0   .     S
Ti71     V78    10.0   .     S
Ti72     V76    10.0   .     S
Ti72     V74    10.0   .     S
Ti73     V12    10.0   1_545     S
Ti73     V75    10.0   1_545     S
Ti73     V76    10.0   .     S
Ti73     V45    10.0   1_545     S
V74     Er80    10.0   .     S
V75     Ti73    10.0   1_565     S
V75     Er80    10.0   1_565     S
V76     Er80    10.0   .     S
V77     Ti42    10.0   1_565     S
V77     Er80    10.0   1_565     S
V78     Ti8    10.0   1_565     S
V78     Er80    10.0   1_565     S
V79     Er80    10.0   .     S
Er80     V75    10.0   1_545     S
Er80     V77    10.0   1_545     S
Er80     V78    10.0   1_545     S
