data_bkt
_audit_creation_date              2020-02-04
_audit_creation_method            'Pymatgen'
_symmetry_space_group_name_H-M    'P1'
_symmetry_Int_Tables_number       1
loop_
_symmetry_equiv_pos_as_xyz
  x,y,z
_cell_length_a                    114.6492
_cell_length_b                    114.6492
_cell_length_c                    28.4258
_cell_angle_alpha                 90.0
_cell_angle_beta                 90.0
_cell_angle_gamma                 90.0
loop_
_atom_site_label
_atom_site_type_symbol
_atom_site_fract_x
_atom_site_fract_y
_atom_site_fract_z
Ce1     Ce     0.341   0.4087   0.4494
Ce2     Ce     0.3413   0.409   0.8006
V3     V     0.2207   0.5321   0.8808
V4     V     0.2821   0.4707   0.8692
V5     V     0.2793   0.4679   0.3808
V6     V     0.2179   0.5293   0.3692
Ce7     Ce     0.1587   0.591   0.3006
Ce8     Ce     0.159   0.5913   0.9494
Ti9     Ti     0.1054   0.6446   0.125
Ti10     Ti     0.3946   0.3554   0.625
V11     V     0.2207   0.4679   0.1192
V12     V     0.2821   0.5293   0.1308
Ce13     Ce     0.341   0.5913   0.5506
Ce14     Ce     0.3413   0.591   0.1994
V15     V     0.2793   0.5321   0.6192
V16     V     0.2179   0.4707   0.6308
Ce17     Ce     0.1587   0.409   0.6994
Ce18     Ce     0.159   0.4087   0.0506
Ti19     Ti     0.1054   0.3554   0.875
Ti20     Ti     0.3946   0.6446   0.375
Er21     Er     0.5436   0.2936   0.625
Er22     Er     0.4564   0.2936   0.625
Er23     Er     0.4564   0.2064   0.625
Er24     Er     0.5436   0.2064   0.625
Ce25     Ce     0.841   0.5913   0.9494
Ce26     Ce     0.8413   0.591   0.3007
V27     V     0.7821   0.5293   0.3692
V28     V     0.7207   0.4679   0.3808
V29     V     0.7793   0.5321   0.8808
V30     V     0.7179   0.4707   0.8692
Ce31     Ce     0.659   0.4087   0.4494
Ce32     Ce     0.6587   0.409   0.8006
Ti33     Ti     0.8946   0.6446   0.125
Ti34     Ti     0.6054   0.3554   0.625
Ti35     Ti     0.6054   0.6446   0.375
V36     V     0.7179   0.5293   0.1308
V37     V     0.7793   0.4679   0.1192
Ce38     Ce     0.659   0.5913   0.5506
Ce39     Ce     0.6587   0.591   0.1993
V40     V     0.7207   0.5321   0.6192
V41     V     0.7821   0.4707   0.6308
Ce42     Ce     0.8413   0.409   0.6994
Ce43     Ce     0.841   0.4087   0.0507
Ti44     Ti     0.8946   0.3554   0.875
Er45     Er     0.9564   0.2064   0.875
Er46     Er     0.9564   0.2936   0.875
Er47     Er     0.0436   0.2064   0.875
Er48     Er     0.0436   0.2936   0.875
Ce49     Ce     0.341   0.9087   0.5506
Ce50     Ce     0.3413   0.909   0.1994
V51     V     0.2821   0.9707   0.1308
V52     V     0.2207   0.0321   0.1192
V53     V     0.2793   0.9679   0.6192
V54     V     0.2179   0.0293   0.6308
Ce55     Ce     0.1587   0.091   0.6994
Ce56     Ce     0.159   0.0913   0.0506
Ti57     Ti     0.1054   0.1446   0.875
Ti58     Ti     0.3946   0.8554   0.375
Ti59     Ti     0.3946   0.1446   0.625
Ce60     Ce     0.341   0.0913   0.4494
Ce61     Ce     0.3413   0.091   0.8006
V62     V     0.2821   0.0293   0.8692
V63     V     0.2207   0.9679   0.8808
V64     V     0.2793   0.0321   0.3808
V65     V     0.2179   0.9707   0.3692
Ce66     Ce     0.1587   0.909   0.3006
Ce67     Ce     0.159   0.9087   0.9494
Ti68     Ti     0.1054   0.8554   0.125
Er69     Er     0.5436   0.7936   0.375
Er70     Er     0.4564   0.7936   0.375
Er71     Er     0.5436   0.7064   0.375
Er72     Er     0.4564   0.7064   0.375
Ti73     Ti     0.6054   0.8554   0.375
V74     V     0.7179   0.9707   0.1308
V75     V     0.7793   0.0321   0.1192
Ce76     Ce     0.8413   0.091   0.6994
Ce77     Ce     0.841   0.0913   0.0506
V78     V     0.7821   0.0293   0.6308
V79     V     0.7207   0.9679   0.6192
Ce80     Ce     0.659   0.9087   0.5506
Ce81     Ce     0.6587   0.909   0.1994
Ti82     Ti     0.8946   0.1446   0.875
V83     V     0.7179   0.0293   0.8692
V84     V     0.7793   0.9679   0.8808
Ce85     Ce     0.841   0.9087   0.9494
Ce86     Ce     0.8413   0.909   0.3006
V87     V     0.7821   0.9707   0.3692
V88     V     0.7207   0.0321   0.3808
Ce89     Ce     0.659   0.0913   0.4494
Ce90     Ce     0.6587   0.091   0.8006
Ti91     Ti     0.8946   0.8554   0.125
Ti92     Ti     0.6054   0.1446   0.625
Er93     Er     0.9564   0.7064   0.125
Er94     Er     0.0436   0.7064   0.125
Er95     Er     0.0436   0.7936   0.125
Er96     Er     0.9564   0.7936   0.125
loop_
_geom_bond_atom_site_label_1
_geom_bond_atom_site_label_2
_geom_bond_distance
_geom_bond_site_symmetry_2
_ccdc_geom_bond_type
Ce1     Ti10    10.002   .     S
Ce1     V5    9.999   .     S
Ce1     Ce2    9.986   .     S
Ce2     Ti10    10.002   .     S
Ce2     V4    9.999   .     S
V3     V15    10.015   .     S
V3     V16    10.007   .     S
V3     V12    10.007   1_556     S
V3     V11    10.009   1_556     S
V3     Ce8    9.999   .     S
V3     V4    9.957   .     S
V4     V15    10.007   .     S
V4     V16    10.009   .     S
V4     V11    10.007   1_556     S
V4     V12    10.015   1_556     S
V5     V15    10.009   .     S
V5     V16    10.007   .     S
V5     V12    10.007   .     S
V5     V11    10.015   .     S
V5     V6    9.957   .     S
V6     V15    10.007   .     S
V6     V16    10.015   .     S
V6     Ce7    9.999   .     S
V6     V11    10.007   .     S
V6     V12    10.009   .     S
Ce7     Ti9    10.002   .     S
Ce7     Ce8    9.986   1_554     S
Ce8     Ti9    10.002   1_556     S
Ce8     Ce7    9.986   1_556     S
Ti9     Ce8    10.002   1_554     S
Ti9     Er94    10.014   .     S
Ti10     Er22    10.014   .     S
V11     V4    10.007   1_554     S
V11     V3    10.009   1_554     S
V11     Ce18    9.999   .     S
V11     V12    9.957   .     S
V12     V4    10.015   1_554     S
V12     V3    10.007   1_554     S
V12     Ce14    9.999   .     S
Ce13     Ti20    10.002   .     S
Ce13     V15    9.999   .     S
Ce13     Ce14    9.986   .     S
Ce14     Ti20    10.002   .     S
V15     V16    9.957   .     S
V16     Ce17    9.999   .     S
Ce17     Ti19    10.002   .     S
Ce17     Ce18    9.986   1_556     S
Ce18     Ti19    10.002   1_554     S
Ce18     Ce17    9.986   1_554     S
Ti19     Ce18    10.002   1_556     S
Ti19     Er48    10.014   .     S
Ti20     Er72    10.014   .     S
Er21     Er22    10.002   .     S
Er21     Er24    10.002   .     S
Er21     Ti34    10.014   .     S
Er22     Er23    10.002   .     S
Er23     Er24    10.002   .     S
Er23     Ti59    10.014   .     S
Er24     Ti92    10.014   .     S
Ce25     Ti33    10.002   1_556     S
Ce25     V29    9.999   .     S
Ce25     Ce26    9.986   1_556     S
Ce26     Ti33    10.002   .     S
Ce26     V27    9.999   .     S
Ce26     Ce25    9.986   1_554     S
V27     V40    10.007   .     S
V27     V41    10.015   .     S
V27     V36    10.009   .     S
V27     V37    10.007   .     S
V27     V28    9.957   .     S
V28     V40    10.009   .     S
V28     V41    10.007   .     S
V28     Ce31    9.999   .     S
V28     V36    10.007   .     S
V28     V37    10.015   .     S
V29     V40    10.015   .     S
V29     V41    10.007   .     S
V29     V37    10.009   1_556     S
V29     V36    10.007   1_556     S
V29     V30    9.957   .     S
V30     V40    10.007   .     S
V30     V41    10.009   .     S
V30     V37    10.007   1_556     S
V30     V36    10.015   1_556     S
V30     Ce32    9.999   .     S
Ce31     Ti34    10.002   .     S
Ce31     Ce32    9.986   .     S
Ce32     Ti34    10.002   .     S
Ti33     Ce25    10.002   1_554     S
Ti33     Er93    10.014   .     S
Ti35     Ce38    10.002   .     S
Ti35     Ce39    10.002   .     S
Ti35     Er71    10.014   .     S
V36     V29    10.007   1_554     S
V36     V30    10.015   1_554     S
V36     Ce39    9.999   .     S
V36     V37    9.957   .     S
V37     V30    10.007   1_554     S
V37     V29    10.009   1_554     S
V37     Ce43    9.999   .     S
Ce38     V40    9.999   .     S
Ce38     Ce39    9.986   .     S
V40     V41    9.957   .     S
V41     Ce42    9.999   .     S
Ce42     Ti44    10.002   .     S
Ce42     Ce43    9.986   1_556     S
Ce43     Ti44    10.002   1_554     S
Ce43     Ce42    9.986   1_554     S
Ti44     Ce43    10.002   1_556     S
Ti44     Er46    10.014   .     S
Er45     Er46    10.002   .     S
Er45     Er47    10.002   1_655     S
Er45     Ti82    10.014   .     S
Er46     Er48    10.002   1_655     S
Er47     Er48    10.002   .     S
Er47     Er45    10.002   1_455     S
Er47     Ti57    10.014   .     S
Er48     Er46    10.002   1_455     S
Ce49     Ti58    10.002   .     S
Ce49     V53    9.999   .     S
Ce49     Ce50    9.986   .     S
Ce50     Ti58    10.002   .     S
Ce50     V51    9.999   .     S
V51     V64    10.007   1_565     S
V51     V65    10.009   .     S
V51     V62    10.015   1_564     S
V51     V63    10.007   1_554     S
V51     V52    9.957   1_565     S
V52     V64    10.015   .     S
V52     V65    10.007   1_545     S
V52     Ce56    9.999   .     S
V52     V62    10.007   1_554     S
V52     V63    10.009   1_544     S
V52     V51    9.957   1_545     S
V53     V62    10.007   1_565     S
V53     V63    10.015   .     S
V53     V65    10.007   .     S
V53     V64    10.009   1_565     S
V53     V54    9.957   1_565     S
V54     V62    10.009   .     S
V54     V63    10.007   1_545     S
V54     V64    10.007   .     S
V54     V65    10.015   1_545     S
V54     Ce55    9.999   .     S
V54     V53    9.957   1_545     S
Ce55     Ti57    10.002   .     S
Ce55     Ce56    9.986   1_556     S
Ce56     Ti57    10.002   1_554     S
Ce56     Ce55    9.986   1_554     S
Ti57     Ce56    10.002   1_556     S
Ti58     Er70    10.014   .     S
Ti59     Ce61    10.002   .     S
Ti59     Ce60    10.002   .     S
Ce60     V64    9.999   .     S
Ce60     Ce61    9.986   .     S
Ce61     V62    9.999   .     S
V62     V53    10.007   1_545     S
V62     V52    10.007   1_556     S
V62     V51    10.015   1_546     S
V62     V63    9.957   1_545     S
V63     V54    10.007   1_565     S
V63     V51    10.007   1_556     S
V63     V52    10.009   1_566     S
V63     Ce67    9.999   .     S
V63     V62    9.957   1_565     S
V64     V53    10.009   1_545     S
V64     V51    10.007   1_545     S
V64     V65    9.957   1_545     S
V65     V54    10.015   1_565     S
V65     V52    10.007   1_565     S
V65     Ce66    9.999   .     S
V65     V64    9.957   1_565     S
Ce66     Ti68    10.002   .     S
Ce66     Ce67    9.986   1_554     S
Ce67     Ti68    10.002   1_556     S
Ce67     Ce66    9.986   1_556     S
Ti68     Ce67    10.002   1_554     S
Ti68     Er95    10.014   .     S
Er69     Er70    10.002   .     S
Er69     Er71    10.002   .     S
Er69     Ti73    10.014   .     S
Er70     Er72    10.002   .     S
Er71     Er72    10.002   .     S
Ti73     Ce81    10.002   .     S
Ti73     Ce80    10.002   .     S
V74     V88    10.007   1_565     S
V74     V87    10.009   .     S
V74     Ce81    9.999   .     S
V74     V83    10.015   1_564     S
V74     V84    10.007   1_554     S
V74     V75    9.957   1_565     S
V75     V87    10.007   1_545     S
V75     V88    10.015   .     S
V75     Ce77    9.999   .     S
V75     V83    10.007   1_554     S
V75     V84    10.009   1_544     S
V75     V74    9.957   1_545     S
Ce76     V78    9.999   .     S
Ce76     Ti82    10.002   .     S
Ce76     Ce77    9.986   1_556     S
Ce77     Ti82    10.002   1_554     S
Ce77     Ce76    9.986   1_554     S
V78     V88    10.007   .     S
V78     V87    10.015   1_545     S
V78     V84    10.007   1_545     S
V78     V83    10.009   .     S
V78     V79    9.957   1_545     S
V79     V87    10.007   .     S
V79     V88    10.009   1_565     S
V79     V83    10.007   1_565     S
V79     V84    10.015   .     S
V79     Ce80    9.999   .     S
V79     V78    9.957   1_565     S
Ce80     Ce81    9.986   .     S
Ti82     Ce77    10.002   1_556     S
V83     V79    10.007   1_545     S
V83     V75    10.007   1_556     S
V83     V74    10.015   1_546     S
V83     Ce90    9.999   .     S
V83     V84    9.957   1_545     S
V84     V78    10.007   1_565     S
V84     V74    10.007   1_556     S
V84     V75    10.009   1_566     S
V84     Ce85    9.999   .     S
V84     V83    9.957   1_565     S
Ce85     Ti91    10.002   1_556     S
Ce85     Ce86    9.986   1_556     S
Ce86     V87    9.999   .     S
Ce86     Ti91    10.002   .     S
Ce86     Ce85    9.986   1_554     S
V87     V78    10.015   1_565     S
V87     V75    10.007   1_565     S
V87     V88    9.957   1_565     S
V88     V79    10.009   1_545     S
V88     V74    10.007   1_545     S
V88     Ce89    9.999   .     S
V88     V87    9.957   1_545     S
Ce89     Ti92    10.002   .     S
Ce89     Ce90    9.986   .     S
Ce90     Ti92    10.002   .     S
Ti91     Ce85    10.002   1_554     S
Ti91     Er96    10.014   .     S
Er93     Er96    10.002   .     S
Er93     Er94    10.002   1_655     S
Er94     Er95    10.002   .     S
Er94     Er93    10.002   1_455     S
Er95     Er96    10.002   1_455     S
Er96     Er95    10.002   1_655     S
