data_bnl
_audit_creation_date              2020-02-04
_audit_creation_method            'Pymatgen'
_symmetry_space_group_name_H-M    'P1'
_symmetry_Int_Tables_number       1
loop_
_symmetry_equiv_pos_as_xyz
  x,y,z
_cell_length_a                    31.4607
_cell_length_b                    30.767
_cell_length_c                    50.8301
_cell_angle_alpha                 90.0
_cell_angle_beta                 90.0
_cell_angle_gamma                 90.0
loop_
_atom_site_label
_atom_site_type_symbol
_atom_site_fract_x
_atom_site_fract_y
_atom_site_fract_z
V1     V     0.7954   0.6413   0.9016
Er2     Er     0.9083   0.3612   0.8304
V3     V     0.2046   0.6413   0.5984
Er4     Er     0.0917   0.3612   0.6696
V5     V     0.7046   0.1413   0.9016
Er6     Er     0.5917   0.8612   0.8304
V7     V     0.2954   0.1413   0.5984
Er8     Er     0.4083   0.8612   0.6696
V9     V     0.2046   0.3587   0.9016
Er10     Er     0.0917   0.6388   0.8304
V11     V     0.7954   0.3587   0.5984
Er12     Er     0.9083   0.6388   0.6696
V13     V     0.2954   0.8587   0.9016
Er14     Er     0.4083   0.1388   0.8304
V15     V     0.7046   0.8587   0.5984
Er16     Er     0.5917   0.1388   0.6696
V17     V     0.2046   0.6413   0.4016
Er18     Er     0.0917   0.3612   0.3304
V19     V     0.7954   0.6413   0.0984
Er20     Er     0.9083   0.3612   0.1696
V21     V     0.7046   0.1413   0.0984
Er22     Er     0.5917   0.8612   0.1696
V23     V     0.2954   0.1413   0.4016
Er24     Er     0.4083   0.8612   0.3304
V25     V     0.2046   0.3587   0.0984
Er26     Er     0.0917   0.6388   0.1696
V27     V     0.7954   0.3587   0.4016
Er28     Er     0.9083   0.6388   0.3304
V29     V     0.7046   0.8587   0.4016
Er30     Er     0.5917   0.1388   0.3304
V31     V     0.2954   0.8587   0.0984
Er32     Er     0.4083   0.1388   0.1696
loop_
_geom_bond_atom_site_label_1
_geom_bond_atom_site_label_2
_geom_bond_distance
_geom_bond_site_symmetry_2
_ccdc_geom_bond_type
V1     Er6    10.0   .     S
V1     Er10    10.0   1_655     S
V1     Er2    10.0   .     S
V1     V19    10.0   1_556     S
Er2     Er4    10.0   1_655     S
Er2     V5    10.0   .     S
Er2     V9    10.0   1_655     S
V3     Er8    10.0   .     S
V3     Er12    10.0   1_455     S
V3     Er4    10.0   .     S
V3     V17    10.0   .     S
Er4     Er2    10.0   1_455     S
Er4     V7    10.0   .     S
Er4     V11    10.0   1_455     S
V5     Er14    10.0   .     S
V5     Er6    10.0   1_545     S
V5     V21    10.0   1_556     S
Er6     V5    10.0   1_565     S
Er6     Er8    10.0   .     S
Er6     V13    10.0   .     S
V7     Er16    10.0   .     S
V7     Er8    10.0   1_545     S
V7     V23    10.0   .     S
Er8     V7    10.0   1_565     S
Er8     V15    10.0   .     S
V9     Er14    10.0   .     S
V9     Er2    10.0   1_455     S
V9     Er10    10.0   .     S
V9     V25    10.0   1_556     S
Er10     V1    10.0   1_455     S
Er10     Er12    10.0   1_455     S
Er10     V13    10.0   .     S
V11     Er16    10.0   .     S
V11     Er4    10.0   1_655     S
V11     Er12    10.0   .     S
V11     V27    10.0   .     S
Er12     V3    10.0   1_655     S
Er12     Er10    10.0   1_655     S
Er12     V15    10.0   .     S
V13     Er14    10.0   1_565     S
V13     V31    10.0   1_556     S
Er14     V13    10.0   1_545     S
Er14     Er16    10.0   .     S
V15     Er16    10.0   1_565     S
V15     V29    10.0   .     S
Er16     V15    10.0   1_545     S
V17     Er24    10.0   .     S
V17     Er28    10.0   1_455     S
V17     Er18    10.0   .     S
Er18     Er20    10.0   1_455     S
Er18     V23    10.0   .     S
Er18     V27    10.0   1_455     S
V19     Er22    10.0   .     S
V19     Er26    10.0   1_655     S
V19     Er20    10.0   .     S
V19     V1    10.0   1_554     S
Er20     Er18    10.0   1_655     S
Er20     V21    10.0   .     S
Er20     V25    10.0   1_655     S
V21     Er32    10.0   .     S
V21     Er22    10.0   1_545     S
V21     V5    10.0   1_554     S
Er22     V21    10.0   1_565     S
Er22     Er24    10.0   .     S
Er22     V31    10.0   .     S
V23     Er30    10.0   .     S
V23     Er24    10.0   1_545     S
Er24     V23    10.0   1_565     S
Er24     V29    10.0   .     S
V25     Er32    10.0   .     S
V25     Er20    10.0   1_455     S
V25     Er26    10.0   .     S
V25     V9    10.0   1_554     S
Er26     V19    10.0   1_455     S
Er26     Er28    10.0   1_455     S
Er26     V31    10.0   .     S
V27     Er30    10.0   .     S
V27     Er18    10.0   1_655     S
V27     Er28    10.0   .     S
Er28     V17    10.0   1_655     S
Er28     Er26    10.0   1_655     S
Er28     V29    10.0   .     S
V29     Er30    10.0   1_565     S
Er30     V29    10.0   1_545     S
Er30     Er32    10.0   .     S
V31     Er32    10.0   1_565     S
V31     V13    10.0   1_554     S
Er32     V31    10.0   1_545     S
