data_bpk
_audit_creation_date              2020-02-04
_audit_creation_method            'Pymatgen'
_symmetry_space_group_name_H-M    'P1'
_symmetry_Int_Tables_number       1
loop_
_symmetry_equiv_pos_as_xyz
  x,y,z
_cell_length_a                    55.3079
_cell_length_b                    36.8737
_cell_length_c                    35.2184
_cell_angle_alpha                 90.0
_cell_angle_beta                 90.0
_cell_angle_gamma                 90.0
loop_
_atom_site_label
_atom_site_type_symbol
_atom_site_fract_x
_atom_site_fract_y
_atom_site_fract_z
Er1     Er     0.8059   0.4693   0.6117
V2     V     0.9684   0.3771   0.5335
Er3     Er     0.1941   0.5307   0.3883
V4     V     0.0316   0.6229   0.4665
Er5     Er     0.1941   0.0307   0.6117
V6     V     0.0316   0.1229   0.5335
Er7     Er     0.8059   0.9693   0.3883
V8     V     0.9684   0.8771   0.4665
Er9     Er     0.8059   0.0307   0.1117
V10     V     0.9684   0.1229   0.0335
Er11     Er     0.1941   0.9693   0.8883
V12     V     0.0316   0.8771   0.9665
Er13     Er     0.1941   0.4693   0.1117
V14     V     0.0316   0.3771   0.0335
Er15     Er     0.8059   0.5307   0.8883
V16     V     0.9684   0.6229   0.9665
Er17     Er     0.3059   0.4693   0.8883
V18     V     0.4684   0.3771   0.9665
Er19     Er     0.6941   0.5307   0.1117
V20     V     0.5316   0.6229   0.0335
Er21     Er     0.6941   0.0307   0.8883
V22     V     0.5316   0.1229   0.9665
Er23     Er     0.3059   0.9693   0.1117
V24     V     0.4684   0.8771   0.0335
Er25     Er     0.3059   0.5307   0.6117
V26     V     0.4684   0.6229   0.5335
Er27     Er     0.6941   0.4693   0.3883
V28     V     0.5316   0.3771   0.4665
Er29     Er     0.3059   0.0307   0.3883
V30     V     0.4684   0.1229   0.4665
Er31     Er     0.6941   0.9693   0.6117
V32     V     0.5316   0.8771   0.5335
loop_
_geom_bond_atom_site_label_1
_geom_bond_atom_site_label_2
_geom_bond_distance
_geom_bond_site_symmetry_2
_ccdc_geom_bond_type
Er1     V2    9.995   .     S
Er1     Er15    10.004   .     S
Er1     Er27    10.005   .     S
V2     V4    9.998   1_655     S
V2     V6    10.003   1_655     S
Er3     V4    9.995   .     S
Er3     Er13    10.004   .     S
Er3     Er25    10.005   .     S
V4     V2    9.998   1_455     S
V4     V8    10.003   1_455     S
Er5     V6    9.995   .     S
Er5     Er11    10.004   1_545     S
Er5     Er29    10.005   .     S
V6     V8    9.998   1_445     S
V6     V2    10.003   1_455     S
Er7     V8    9.995   .     S
Er7     Er9    10.004   1_565     S
Er7     Er31    10.005   .     S
V8     V6    9.998   1_665     S
V8     V4    10.003   1_655     S
Er9     V10    9.995   .     S
Er9     Er7    10.004   1_545     S
Er9     Er21    10.005   1_554     S
V10     V12    9.998   1_644     S
V10     V14    10.003   1_655     S
Er11     V12    9.995   .     S
Er11     Er5    10.004   1_565     S
Er11     Er23    10.005   1_556     S
V12     V10    9.998   1_466     S
V12     V16    10.003   1_455     S
Er13     V14    9.995   .     S
Er13     Er17    10.005   1_554     S
V14     V16    9.998   1_454     S
V14     V10    10.003   1_455     S
Er15     V16    9.995   .     S
Er15     Er19    10.005   1_556     S
V16     V14    9.998   1_656     S
V16     V12    10.003   1_655     S
Er17     V18    9.995   .     S
Er17     Er25    10.004   .     S
Er17     Er13    10.005   1_556     S
V18     V20    9.998   1_556     S
V18     V22    10.003   .     S
Er19     Er15    10.005   1_554     S
Er19     V20    9.995   .     S
Er19     Er27    10.004   .     S
V20     V18    9.998   1_554     S
V20     V24    10.003   .     S
Er21     Er9    10.005   1_556     S
Er21     V22    9.995   .     S
Er21     Er31    10.004   1_545     S
V22     V24    9.998   1_546     S
Er23     V24    9.995   .     S
Er23     Er29    10.004   1_565     S
Er23     Er11    10.005   1_554     S
V24     V22    9.998   1_564     S
Er25     V26    9.995   .     S
V26     V28    9.998   .     S
V26     V32    10.003   .     S
Er27     V28    9.995   .     S
V28     V30    10.003   .     S
Er29     V30    9.995   .     S
Er29     Er23    10.004   1_545     S
V30     V32    9.998   1_545     S
Er31     V32    9.995   .     S
Er31     Er21    10.004   1_565     S
V32     V30    9.998   1_565     S
