data_bpp
_audit_creation_date              2020-02-04
_audit_creation_method            'Pymatgen'
_symmetry_space_group_name_H-M    'P1'
_symmetry_Int_Tables_number       1
loop_
_symmetry_equiv_pos_as_xyz
  x,y,z
_cell_length_a                    18.103
_cell_length_b                    34.0481
_cell_length_c                    107.6997
_cell_angle_alpha                 90.0
_cell_angle_beta                 90.0
_cell_angle_gamma                 90.0
loop_
_atom_site_label
_atom_site_type_symbol
_atom_site_fract_x
_atom_site_fract_y
_atom_site_fract_z
V1     V     0.875   0.875   0.6447
Er2     Er     0.875   0.875   0.7375
V3     V     0.375   0.875   0.6053
Er4     Er     0.375   0.875   0.5125
V5     V     0.875   0.375   0.6053
Er6     Er     0.875   0.375   0.5125
V7     V     0.375   0.375   0.6447
Er8     Er     0.375   0.375   0.7375
V9     V     0.625   0.125   0.8553
Er10     Er     0.625   0.125   0.7625
V11     V     0.125   0.125   0.8947
Er12     Er     0.125   0.125   0.9875
V13     V     0.625   0.625   0.3553
Er14     Er     0.625   0.625   0.2625
V15     V     0.125   0.625   0.3947
Er16     Er     0.125   0.625   0.4875
V17     V     0.625   0.625   0.8947
Er18     Er     0.625   0.625   0.9875
V19     V     0.125   0.625   0.8553
Er20     Er     0.125   0.625   0.7625
V21     V     0.375   0.375   0.1053
Er22     Er     0.375   0.375   0.0125
V23     V     0.875   0.375   0.1447
Er24     Er     0.875   0.375   0.2375
V25     V     0.375   0.875   0.1447
Er26     Er     0.375   0.875   0.2375
V27     V     0.875   0.875   0.1053
Er28     Er     0.875   0.875   0.0125
V29     V     0.625   0.125   0.3947
Er30     Er     0.625   0.125   0.4875
V31     V     0.125   0.125   0.3553
Er32     Er     0.125   0.125   0.2625
loop_
_geom_bond_atom_site_label_1
_geom_bond_atom_site_label_2
_geom_bond_distance
_geom_bond_site_symmetry_2
_ccdc_geom_bond_type
V1     Er2    9.993   .     S
V1     V3    9.997   .     S
V1     V3    9.997   1_655     S
Er2     Er20    10.01   1_655     S
Er2     Er10    10.01   1_565     S
V3     Er4    9.993   .     S
V3     V1    9.997   1_455     S
Er4     Er16    10.01   .     S
Er4     Er30    10.01   1_565     S
V5     Er6    9.993   .     S
V5     V7    9.997   .     S
V5     V7    9.997   1_655     S
Er6     Er30    10.01   .     S
Er6     Er16    10.01   1_655     S
V7     Er8    9.993   .     S
V7     V5    9.997   1_455     S
Er8     Er10    10.01   .     S
Er8     Er20    10.01   .     S
V9     Er10    9.993   .     S
V9     V11    9.997   1_655     S
V9     V11    9.997   .     S
Er10     Er2    10.01   1_545     S
V11     V9    9.997   1_455     S
V11     Er12    9.993   .     S
Er12     Er22    10.01   1_556     S
Er12     Er28    10.01   1_446     S
V13     Er14    9.993   .     S
V13     V15    9.997   1_655     S
V13     V15    9.997   .     S
Er14     Er26    10.01   .     S
Er14     Er24    10.01   .     S
V15     V13    9.997   1_455     S
V15     Er16    9.993   .     S
Er16     Er6    10.01   1_455     S
V17     Er18    9.993   .     S
V17     V19    9.997   1_655     S
V17     V19    9.997   .     S
Er18     Er28    10.01   1_556     S
Er18     Er22    10.01   1_556     S
V19     V17    9.997   1_455     S
V19     Er20    9.993   .     S
Er20     Er2    10.01   1_455     S
V21     Er22    9.993   .     S
V21     V23    9.997   .     S
V21     V23    9.997   1_455     S
Er22     Er12    10.01   1_554     S
Er22     Er18    10.01   1_554     S
V23     Er24    9.993   .     S
V23     V21    9.997   1_655     S
Er24     Er32    10.01   1_655     S
V25     Er26    9.993   .     S
V25     V27    9.997   .     S
V25     V27    9.997   1_455     S
Er26     Er32    10.01   1_565     S
V27     Er28    9.993   .     S
V27     V25    9.997   1_655     S
Er28     Er18    10.01   1_554     S
Er28     Er12    10.01   1_664     S
V29     Er30    9.993   .     S
V29     V31    9.997   1_655     S
V29     V31    9.997   .     S
Er30     Er4    10.01   1_545     S
V31     V29    9.997   1_455     S
V31     Er32    9.993   .     S
Er32     Er24    10.01   1_455     S
Er32     Er26    10.01   1_545     S
