data_bpr
_audit_creation_date              2020-02-04
_audit_creation_method            'Pymatgen'
_symmetry_space_group_name_H-M    'P1'
_symmetry_Int_Tables_number       1
loop_
_symmetry_equiv_pos_as_xyz
  x,y,z
_cell_length_a                    58.5505
_cell_length_b                    58.5505
_cell_length_c                    58.5505
_cell_angle_alpha                 90.0
_cell_angle_beta                 90.0
_cell_angle_gamma                 90.0
loop_
_atom_site_label
_atom_site_type_symbol
_atom_site_fract_x
_atom_site_fract_y
_atom_site_fract_z
V1     V     0.227   0.023   0.625
Er2     Er     0.1063   0.1437   0.625
V3     V     0.227   0.977   0.875
Er4     Er     0.1063   0.8563   0.875
V5     V     0.125   0.773   0.023
Er6     Er     0.125   0.8937   0.1437
V7     V     0.477   0.875   0.273
Er8     Er     0.3563   0.875   0.3937
V9     V     0.273   0.977   0.125
Er10     Er     0.3937   0.8563   0.125
V11     V     0.875   0.227   0.977
Er12     Er     0.875   0.1063   0.8563
V13     V     0.023   0.125   0.773
Er14     Er     0.1437   0.125   0.8937
V15     V     0.023   0.625   0.227
Er16     Er     0.1437   0.625   0.1063
V17     V     0.625   0.227   0.023
Er18     Er     0.625   0.1063   0.1437
V19     V     0.727   0.023   0.875
Er20     Er     0.6063   0.1437   0.875
V21     V     0.523   0.125   0.727
Er22     Er     0.6437   0.125   0.6063
V23     V     0.773   0.023   0.125
Er24     Er     0.8937   0.1437   0.125
V25     V     0.977   0.875   0.227
Er26     Er     0.8563   0.875   0.1063
V27     V     0.875   0.773   0.523
Er28     Er     0.875   0.8937   0.6437
V29     V     0.625   0.773   0.477
Er30     Er     0.625   0.8937   0.3563
V31     V     0.773   0.977   0.375
Er32     Er     0.8937   0.8563   0.375
V33     V     0.727   0.977   0.625
Er34     Er     0.6063   0.8563   0.625
V35     V     0.523   0.875   0.773
Er36     Er     0.6437   0.875   0.8937
V37     V     0.477   0.625   0.773
Er38     Er     0.3563   0.625   0.8937
V39     V     0.375   0.773   0.977
Er40     Er     0.375   0.8937   0.8563
V41     V     0.625   0.727   0.977
Er42     Er     0.625   0.6063   0.8563
V43     V     0.773   0.477   0.625
Er44     Er     0.8937   0.3563   0.625
V45     V     0.977   0.625   0.727
Er46     Er     0.8563   0.625   0.6063
V47     V     0.773   0.523   0.875
Er48     Er     0.8937   0.6437   0.875
V49     V     0.977   0.375   0.773
Er50     Er     0.8563   0.375   0.8937
V51     V     0.273   0.477   0.875
Er52     Er     0.3937   0.3563   0.875
V53     V     0.125   0.273   0.977
Er54     Er     0.125   0.3937   0.8563
V55     V     0.227   0.477   0.125
Er56     Er     0.1063   0.3563   0.125
V57     V     0.375   0.273   0.023
Er58     Er     0.375   0.3937   0.1437
V59     V     0.625   0.273   0.523
Er60     Er     0.625   0.3937   0.6437
V61     V     0.523   0.375   0.227
Er62     Er     0.6437   0.375   0.1063
V63     V     0.727   0.477   0.375
Er64     Er     0.6063   0.3563   0.375
V65     V     0.023   0.875   0.727
Er66     Er     0.1437   0.875   0.6063
V67     V     0.477   0.125   0.227
Er68     Er     0.3563   0.125   0.1063
V69     V     0.273   0.023   0.375
Er70     Er     0.3937   0.1437   0.375
V71     V     0.273   0.523   0.625
Er72     Er     0.3937   0.6437   0.625
V73     V     0.375   0.227   0.523
Er74     Er     0.375   0.1063   0.6437
V75     V     0.477   0.375   0.727
Er76     Er     0.3563   0.375   0.6063
V77     V     0.125   0.727   0.523
Er78     Er     0.125   0.6063   0.6437
V79     V     0.875   0.727   0.023
Er80     Er     0.875   0.6063   0.1437
V81     V     0.727   0.523   0.125
Er82     Er     0.6063   0.6437   0.125
V83     V     0.523   0.625   0.273
Er84     Er     0.6437   0.625   0.3937
V85     V     0.227   0.523   0.375
Er86     Er     0.1063   0.6437   0.375
V87     V     0.375   0.727   0.477
Er88     Er     0.375   0.6063   0.3563
V89     V     0.125   0.227   0.477
Er90     Er     0.125   0.1063   0.3563
V91     V     0.023   0.375   0.273
Er92     Er     0.1437   0.375   0.3937
V93     V     0.875   0.273   0.477
Er94     Er     0.875   0.3937   0.3563
V95     V     0.977   0.125   0.273
Er96     Er     0.8563   0.125   0.3937
loop_
_geom_bond_atom_site_label_1
_geom_bond_atom_site_label_2
_geom_bond_distance
_geom_bond_site_symmetry_2
_ccdc_geom_bond_type
V1     Er2    9.99   .     S
V1     Er66    10.005   1_545     S
V1     Er74    10.005   .     S
Er2     V89    10.005   .     S
Er2     V13    10.005   .     S
V3     Er4    9.99   .     S
V3     Er14    10.005   1_565     S
V3     Er40    10.005   .     S
Er4     V5    10.005   1_556     S
Er4     V65    10.005   .     S
V5     Er4    10.005   1_554     S
V5     Er6    9.99   .     S
V5     Er16    10.005   .     S
Er6     V25    10.005   1_455     S
Er6     V9    10.005   .     S
V7     Er8    9.99   .     S
V7     Er10    10.005   .     S
V7     Er30    10.005   .     S
Er8     V69    10.005   1_565     S
Er8     V87    10.005   .     S
V9     Er10    9.99   .     S
V9     Er68    10.005   1_565     S
Er10     V39    10.005   1_554     S
V11     Er12    9.99   .     S
V11     Er24    10.005   1_556     S
V11     Er50    10.005   .     S
Er12     V13    10.005   1_655     S
Er12     V19    10.005   .     S
V13     Er12    10.005   1_455     S
V13     Er14    9.99   .     S
Er14     V3    10.005   1_545     S
Er14     V53    10.005   .     S
V15     Er16    9.99   .     S
V15     Er80    10.005   1_455     S
V15     Er86    10.005   .     S
Er16     V55    10.005   .     S
V17     Er18    9.99   .     S
V17     Er20    10.005   1_554     S
V17     Er62    10.005   .     S
Er18     V67    10.005   .     S
Er18     V23    10.005   .     S
V19     Er20    9.99   .     S
V19     Er36    10.005   1_545     S
Er20     V21    10.005   .     S
Er20     V17    10.005   1_556     S
V21     Er22    9.99   .     S
V21     Er74    10.005   .     S
Er22     V33    10.005   1_545     S
Er22     V59    10.005   .     S
V23     Er24    9.99   .     S
V23     Er26    10.005   1_545     S
Er24     V11    10.005   1_554     S
Er24     V95    10.005   .     S
V25     Er6    10.005   1_655     S
V25     Er26    9.99   .     S
V25     Er32    10.005   .     S
Er26     V79    10.005   .     S
Er26     V23    10.005   1_565     S
V27     Er28    9.99   .     S
V27     Er32    10.005   .     S
V27     Er46    10.005   .     S
Er28     V65    10.005   1_655     S
Er28     V33    10.005   .     S
V29     Er30    9.99   .     S
V29     Er34    10.005   .     S
V29     Er84    10.005   .     S
Er30     V31    10.005   .     S
V31     Er32    9.99   .     S
V31     Er96    10.005   1_565     S
V33     Er22    10.005   1_565     S
V33     Er34    9.99   .     S
Er34     V35    10.005   .     S
V35     Er36    9.99   .     S
V35     Er40    10.005   .     S
Er36     V41    10.005   .     S
Er36     V19    10.005   1_565     S
V37     Er38    9.99   .     S
V37     Er42    10.005   .     S
V37     Er72    10.005   .     S
Er38     V39    10.005   .     S
Er38     V51    10.005   .     S
V39     Er10    10.005   1_556     S
V39     Er40    9.99   .     S
V41     Er42    9.99   .     S
V41     Er82    10.005   1_556     S
Er42     V47    10.005   .     S
V43     Er44    9.99   .     S
V43     Er46    10.005   .     S
V43     Er60    10.005   .     S
Er44     V49    10.005   .     S
Er44     V93    10.005   .     S
V45     Er46    9.99   .     S
V45     Er48    10.005   .     S
V45     Er78    10.005   1_655     S
V47     Er48    9.99   .     S
V47     Er50    10.005   .     S
Er48     V79    10.005   1_556     S
V49     Er50    9.99   .     S
V49     Er54    10.005   1_655     S
V51     Er52    9.99   .     S
V51     Er54    10.005   .     S
Er52     V57    10.005   1_556     S
Er52     V75    10.005   .     S
V53     Er54    9.99   .     S
V53     Er56    10.005   1_556     S
Er54     V49    10.005   1_455     S
V55     Er56    9.99   .     S
V55     Er58    10.005   .     S
Er56     V91    10.005   .     S
Er56     V53    10.005   1_554     S
V57     Er52    10.005   1_554     S
V57     Er58    9.99   .     S
V57     Er68    10.005   .     S
Er58     V61    10.005   .     S
V59     Er60    9.99   .     S
V59     Er64    10.005   .     S
Er60     V75    10.005   .     S
V61     Er62    9.99   .     S
V61     Er64    10.005   .     S
Er62     V81    10.005   .     S
V63     Er64    9.99   .     S
V63     Er84    10.005   .     S
V63     Er94    10.005   .     S
V65     Er28    10.005   1_455     S
V65     Er66    9.99   .     S
Er66     V77    10.005   .     S
Er66     V1    10.005   1_565     S
V67     Er68    9.99   .     S
V67     Er70    10.005   .     S
Er68     V9    10.005   1_545     S
V69     Er8    10.005   1_545     S
V69     Er70    9.99   .     S
V69     Er90    10.005   .     S
Er70     V73    10.005   .     S
V71     Er72    9.99   .     S
V71     Er76    10.005   .     S
V71     Er78    10.005   .     S
Er72     V87    10.005   .     S
V73     Er74    9.99   .     S
V73     Er76    10.005   .     S
V75     Er76    9.99   .     S
V77     Er78    9.99   .     S
V77     Er86    10.005   .     S
Er78     V45    10.005   1_455     S
V79     Er48    10.005   1_554     S
V79     Er80    9.99   .     S
Er80     V81    10.005   .     S
Er80     V15    10.005   1_655     S
V81     Er82    9.99   .     S
Er82     V41    10.005   1_554     S
Er82     V83    10.005   .     S
V83     Er84    9.99   .     S
V83     Er88    10.005   .     S
V85     Er86    9.99   .     S
V85     Er88    10.005   .     S
V85     Er92    10.005   .     S
V87     Er88    9.99   .     S
V89     Er90    9.99   .     S
V89     Er92    10.005   .     S
Er90     V95    10.005   1_455     S
V91     Er92    9.99   .     S
V91     Er94    10.005   1_455     S
V93     Er94    9.99   .     S
V93     Er96    10.005   .     S
Er94     V91    10.005   1_655     S
V95     Er90    10.005   1_655     S
V95     Er96    9.99   .     S
Er96     V31    10.005   1_545     S
