data_bzd
_audit_creation_date              2020-02-04
_audit_creation_method            'Pymatgen'
_symmetry_space_group_name_H-M    'P1'
_symmetry_Int_Tables_number       1
loop_
_symmetry_equiv_pos_as_xyz
  x,y,z
_cell_length_a                    104.9099
_cell_length_b                    104.9099
_cell_length_c                    17.2004
_cell_angle_alpha                 90.0
_cell_angle_beta                 90.0
_cell_angle_gamma                 120.0
loop_
_atom_site_label
_atom_site_type_symbol
_atom_site_fract_x
_atom_site_fract_y
_atom_site_fract_z
Er1     Er     0.8888   0.4921   0.0
Er2     Er     0.8888   0.3968   0.0
Er3     Er     0.1112   0.6033   0.0
Ti4     Ti     0.055   0.4799   0.5
Ti5     Ti     0.055   0.5752   0.5
Ti6     Ti     0.945   0.5201   0.5
Ti7     Ti     0.945   0.4248   0.5
Er8     Er     0.1112   0.5079   0.0
V9     V     0.5152   0.3053   0.0
V10     V     0.6947   0.4848   0.0
Ce11     Ce     0.5714   0.3333   0.5
Ce12     Ce     0.6667   0.4286   0.5
V13     V     0.5152   0.2099   0.0
Ce14     Ce     0.5714   0.238   0.5
V15     V     0.6947   0.2099   0.0
Ce16     Ce     0.6667   0.238   0.5
V17     V     0.7901   0.3053   0.0
Ce18     Ce     0.762   0.3333   0.5
V19     V     0.7901   0.4848   0.0
Ce20     Ce     0.762   0.4286   0.5
Ti21     Ti     0.4248   0.4799   0.5
Ti22     Ti     0.5201   0.5752   0.5
Ti23     Ti     0.4799   0.4248   0.5
Ti24     Ti     0.5752   0.5201   0.5
Er25     Er     0.6033   0.4921   0.0
Er26     Er     0.5079   0.3968   0.0
Er27     Er     0.4921   0.6033   0.0
Er28     Er     0.3968   0.5079   0.0
Er29     Er     0.5079   0.1112   0.0
Ti30     Ti     0.4248   0.945   0.5
Ti31     Ti     0.5201   0.945   0.5
Ti32     Ti     0.4799   0.055   0.5
Ti33     Ti     0.5752   0.055   0.5
Er34     Er     0.6033   0.1112   0.0
Er35     Er     0.4921   0.8888   0.0
Er36     Er     0.3968   0.8888   0.0
V37     V     0.4848   0.7901   0.0
Ce38     Ce     0.4286   0.762   0.5
V39     V     0.3053   0.7901   0.0
Ce40     Ce     0.3333   0.762   0.5
V41     V     0.4848   0.6947   0.0
Ce42     Ce     0.4286   0.6667   0.5
Ce43     Ce     0.3333   0.5714   0.5
V44     V     0.3053   0.5152   0.0
V45     V     0.2099   0.5152   0.0
Ce46     Ce     0.238   0.5714   0.5
Ce47     Ce     0.238   0.6667   0.5
V48     V     0.2099   0.6947   0.0
loop_
_geom_bond_atom_site_label_1
_geom_bond_atom_site_label_2
_geom_bond_distance
_geom_bond_site_symmetry_2
_ccdc_geom_bond_type
Er1     Er2    9.999   .     S
Er1     Ti6    10.0   .     S
Er1     Ti6    10.0   1_554     S
Er1     V19    10.0   .     S
Er2     Ti7    10.0   1_554     S
Er2     Ti7    10.0   .     S
Er2     V17    10.0   .     S
Er3     Er8    9.999   .     S
Er3     Ti5    10.0   1_554     S
Er3     Ti5    10.0   .     S
Er3     V48    10.0   .     S
Ti4     Ti5    9.999   .     S
Ti4     Ti7    9.999   1_455     S
Ti4     Er8    10.0   .     S
Ti4     Er8    10.0   1_556     S
Ti5     Er3    10.0   1_556     S
Ti5     Ti6    9.999   1_455     S
Ti6     Ti7    9.999   .     S
Ti6     Ti5    9.999   1_655     S
Ti6     Er1    10.0   1_556     S
Ti7     Ti4    9.999   1_655     S
Ti7     Er2    10.0   1_556     S
Er8     Ti4    10.0   1_554     S
Er8     V45    10.0   .     S
V9     Er26    10.0   .     S
V9     Ce11    10.0   .     S
V9     Ce11    10.0   1_554     S
V9     V13    10.001   .     S
V10     V19    10.001   .     S
V10     Er25    10.0   .     S
V10     Ce12    10.0   1_554     S
V10     Ce12    10.0   .     S
Ce11     Ce14    10.001   .     S
Ce11     V9    10.0   1_556     S
Ce11     Ce12    9.999   .     S
Ce12     V10    10.0   1_556     S
Ce12     Ce20    10.001   .     S
V13     Er29    10.0   .     S
V13     Ce14    10.0   1_554     S
V13     Ce14    10.0   .     S
Ce14     Ce16    9.999   .     S
Ce14     V13    10.0   1_556     S
V15     V17    10.001   .     S
V15     Er34    10.0   .     S
V15     Ce16    10.0   .     S
V15     Ce16    10.0   1_554     S
Ce16     V15    10.0   1_556     S
Ce16     Ce18    10.001   .     S
V17     Ce18    10.0   1_554     S
V17     Ce18    10.0   .     S
Ce18     Ce20    9.999   .     S
Ce18     V17    10.0   1_556     S
V19     Ce20    10.0   .     S
V19     Ce20    10.0   1_554     S
Ce20     V19    10.0   1_556     S
Ti21     Ti22    9.999   .     S
Ti21     Ti23    9.999   .     S
Ti21     Er28    10.0   1_556     S
Ti21     Er28    10.0   .     S
Ti22     Ti24    9.999   .     S
Ti22     Er27    10.0   .     S
Ti22     Er27    10.0   1_556     S
Ti23     Ti24    9.999   .     S
Ti23     Er26    10.0   .     S
Ti23     Er26    10.0   1_556     S
Ti24     Er25    10.0   1_556     S
Ti24     Er25    10.0   .     S
Er25     Er26    9.999   .     S
Er25     Ti24    10.0   1_554     S
Er26     Ti23    10.0   1_554     S
Er27     Er28    9.999   .     S
Er27     Ti22    10.0   1_554     S
Er27     V41    10.0   .     S
Er28     Ti21    10.0   1_554     S
Er28     V44    10.0   .     S
Er29     Er34    9.999   .     S
Er29     Ti32    10.0   1_554     S
Er29     Ti32    10.0   .     S
Ti30     Ti31    9.999   .     S
Ti30     Ti32    9.999   1_565     S
Ti30     Er36    10.0   .     S
Ti30     Er36    10.0   1_556     S
Ti31     Ti33    9.999   1_565     S
Ti31     Er35    10.0   1_556     S
Ti31     Er35    10.0   .     S
Ti32     Ti33    9.999   .     S
Ti32     Ti30    9.999   1_545     S
Ti32     Er29    10.0   1_556     S
Ti33     Ti31    9.999   1_545     S
Ti33     Er34    10.0   .     S
Ti33     Er34    10.0   1_556     S
Er34     Ti33    10.0   1_554     S
Er35     Er36    9.999   .     S
Er35     Ti31    10.0   1_554     S
Er35     V37    10.0   .     S
Er36     Ti30    10.0   1_554     S
Er36     V39    10.0   .     S
V37     Ce38    10.0   1_554     S
V37     Ce38    10.0   .     S
V37     V41    10.001   .     S
Ce38     Ce40    9.999   .     S
Ce38     V37    10.0   1_556     S
Ce38     Ce42    10.001   .     S
V39     Ce40    10.0   .     S
V39     Ce40    10.0   1_554     S
V39     V48    10.001   .     S
Ce40     Ce47    10.001   .     S
Ce40     V39    10.0   1_556     S
V41     Ce42    10.0   .     S
V41     Ce42    10.0   1_554     S
Ce42     Ce43    9.999   .     S
Ce42     V41    10.0   1_556     S
Ce43     Ce46    10.001   .     S
Ce43     V44    10.0   1_556     S
Ce43     V44    10.0   .     S
V44     Ce43    10.0   1_554     S
V44     V45    10.001   .     S
V45     Ce46    10.0   .     S
V45     Ce46    10.0   1_554     S
Ce46     V45    10.0   1_556     S
Ce46     Ce47    9.999   .     S
Ce47     V48    10.0   1_556     S
Ce47     V48    10.0   .     S
V48     Ce47    10.0   1_554     S
