data_cat
_audit_creation_date              2020-02-04
_audit_creation_method            'Pymatgen'
_symmetry_space_group_name_H-M    'P1'
_symmetry_Int_Tables_number       1
loop_
_symmetry_equiv_pos_as_xyz
  x,y,z
_cell_length_a                    22.5737
_cell_length_b                    22.5737
_cell_length_c                    27.5103
_cell_angle_alpha                 90.0
_cell_angle_beta                 90.0
_cell_angle_gamma                 120.0
loop_
_atom_site_label
_atom_site_type_symbol
_atom_site_fract_x
_atom_site_fract_y
_atom_site_fract_z
V1     V     0.8143   0.1857   0.75
V2     V     0.8143   0.6287   0.75
V3     V     0.3713   0.1857   0.75
Er4     Er     0.0   0.0   0.5
V5     V     0.1857   0.8143   0.25
V6     V     0.1857   0.3713   0.25
V7     V     0.6287   0.8143   0.25
Er8     Er     0.0   0.0   0.0
loop_
_geom_bond_atom_site_label_1
_geom_bond_atom_site_label_2
_geom_bond_distance
_geom_bond_site_symmetry_2
_ccdc_geom_bond_type
V1     V3    10.0   .     S
V1     V2    10.0   .     S
V1     Er4    10.0   1_655     S
V1     Er8    10.0   1_656     S
V2     V3    10.0   .     S
V2     Er4    10.0   1_665     S
V2     Er8    10.0   1_666     S
V3     Er4    10.0   .     S
V3     Er8    10.0   1_556     S
Er4     V1    10.0   1_455     S
Er4     V5    10.0   1_545     S
Er4     V2    10.0   1_445     S
Er4     V7    10.0   1_445     S
Er4     V6    10.0   .     S
V5     Er4    10.0   1_565     S
V5     V7    10.0   .     S
V5     V6    10.0   .     S
V5     Er8    10.0   1_565     S
V6     V7    10.0   .     S
V6     Er8    10.0   .     S
V7     Er4    10.0   1_665     S
V7     Er8    10.0   1_665     S
Er8     V1    10.0   1_454     S
Er8     V5    10.0   1_545     S
Er8     V7    10.0   1_445     S
Er8     V3    10.0   1_554     S
Er8     V2    10.0   1_444     S
