data_cbd
_audit_creation_date              2020-02-04
_audit_creation_method            'Pymatgen'
_symmetry_space_group_name_H-M    'P1'
_symmetry_Int_Tables_number       1
loop_
_symmetry_equiv_pos_as_xyz
  x,y,z
_cell_length_a                    31.0678
_cell_length_b                    84.0696
_cell_length_c                    30.3504
_cell_angle_alpha                 90.0
_cell_angle_beta                 90.0
_cell_angle_gamma                 90.0
loop_
_atom_site_label
_atom_site_type_symbol
_atom_site_fract_x
_atom_site_fract_y
_atom_site_fract_z
Ce1     Ce     0.0   0.422   0.5853
Ce2     Ce     0.0   0.422   0.9147
Ce3     Ce     0.0   0.578   0.0853
Ce4     Ce     0.0   0.578   0.4147
Ce5     Ce     0.5   0.078   0.0853
Ce6     Ce     0.5   0.078   0.4147
Ce7     Ce     0.5   0.922   0.5853
Ce8     Ce     0.5   0.922   0.9147
S9     S     0.5   0.7435   0.75
Ti10     Ti     0.2716   0.0   0.5
Ti11     Ti     0.2716   0.0   0.0
Er12     Er     0.1609   0.9342   0.25
V13     V     0.2686   0.8221   0.25
H14     H     0.5   0.8098   0.4764
Er15     Er     0.8391   0.9342   0.25
V16     V     0.7314   0.8221   0.25
H17     H     0.5   0.8098   0.0236
Ti18     Ti     0.7284   0.0   0.0
Ti19     Ti     0.7284   0.0   0.5
Er20     Er     0.8391   0.0658   0.75
V21     V     0.7314   0.1779   0.75
H22     H     0.5   0.1902   0.5236
Er23     Er     0.1609   0.0658   0.75
V24     V     0.2686   0.1779   0.75
H25     H     0.5   0.1902   0.9764
S26     S     0.5   0.2565   0.25
H27     H     0.0   0.6902   0.9764
Er28     Er     0.3391   0.5658   0.75
V29     V     0.2314   0.6779   0.75
H30     H     0.0   0.6902   0.5236
Er31     Er     0.6609   0.5658   0.75
V32     V     0.7686   0.6779   0.75
Ti33     Ti     0.7716   0.5   0.5
Ti34     Ti     0.2284   0.5   0.5
Ti35     Ti     0.2284   0.5   0.0
Ti36     Ti     0.7716   0.5   0.0
Er37     Er     0.6609   0.4342   0.25
V38     V     0.7686   0.3221   0.25
H39     H     0.0   0.3098   0.4764
H40     H     0.0   0.3098   0.0236
Er41     Er     0.3391   0.4342   0.25
V42     V     0.2314   0.3221   0.25
S43     S     0.0   0.2435   0.75
S44     S     0.0   0.7565   0.25
loop_
_geom_bond_atom_site_label_1
_geom_bond_atom_site_label_2
_geom_bond_distance
_geom_bond_site_symmetry_2
_ccdc_geom_bond_type
Ce1     Ce2    10.0   .     S
Ce1     Ti33    10.0   1_455     S
Ce1     Ti34    10.0   .     S
Ce1     H39    10.0   .     S
Ce2     Ti35    10.0   1_556     S
Ce2     Ti36    10.0   1_456     S
Ce2     H40    10.0   1_556     S
Ce3     Ce4    10.0   .     S
Ce3     H27    10.0   1_554     S
Ce3     Ti35    10.0   .     S
Ce3     Ti36    10.0   1_455     S
Ce4     H30    10.0   .     S
Ce4     Ti33    10.0   1_455     S
Ce4     Ti34    10.0   .     S
Ce5     Ce6    10.0   .     S
Ce5     Ti11    10.0   .     S
Ce5     Ti18    10.0   .     S
Ce5     H25    10.0   1_554     S
Ce6     Ti10    10.0   .     S
Ce6     Ti19    10.0   .     S
Ce6     H22    10.0   .     S
Ce7     Ce8    10.0   .     S
Ce7     Ti10    10.0   1_565     S
Ce7     H14    10.0   .     S
Ce7     Ti19    10.0   1_565     S
Ce8     Ti11    10.0   1_566     S
Ce8     H17    10.0   1_556     S
Ce8     Ti18    10.0   1_566     S
S9     H14    10.0   .     S
S9     H17    10.0   1_556     S
S9     V29    10.0   .     S
S9     V32    10.0   .     S
Ti10     Ce7    10.0   1_545     S
Ti10     Er12    10.0   1_545     S
Ti10     Er23    10.0   .     S
Ti11     Ce8    10.0   1_544     S
Ti11     Er12    10.0   1_545     S
Ti11     Er23    10.0   1_554     S
Er12     Ti10    10.0   1_565     S
Er12     Ti11    10.0   1_565     S
Er12     V13    10.0   .     S
Er12     Er15    10.0   1_455     S
V13     H14    10.0   .     S
V13     H17    10.0   .     S
V13     S44    10.0   .     S
H14     V16    10.0   .     S
Er15     Ti19    10.0   1_565     S
Er15     Ti18    10.0   1_565     S
Er15     V16    10.0   .     S
Er15     Er12    10.0   1_655     S
V16     H17    10.0   .     S
V16     S44    10.0   1_655     S
H17     S9    10.0   1_554     S
H17     Ce8    10.0   1_554     S
Ti18     Er15    10.0   1_545     S
Ti18     Ce8    10.0   1_544     S
Ti18     Er20    10.0   1_554     S
Ti19     Er15    10.0   1_545     S
Ti19     Ce7    10.0   1_545     S
Ti19     Er20    10.0   .     S
Er20     Ti18    10.0   1_556     S
Er20     V21    10.0   .     S
Er20     Er23    10.0   1_655     S
V21     H22    10.0   .     S
V21     H25    10.0   .     S
V21     S43    10.0   1_655     S
H22     V24    10.0   .     S
H22     S26    10.0   .     S
Er23     Ti11    10.0   1_556     S
Er23     V24    10.0   .     S
Er23     Er20    10.0   1_455     S
V24     H25    10.0   .     S
V24     S43    10.0   .     S
H25     Ce5    10.0   1_556     S
H25     S26    10.0   1_556     S
S26     H25    10.0   1_554     S
S26     V42    10.0   .     S
S26     V38    10.0   .     S
H27     Ce3    10.0   1_556     S
H27     V29    10.0   .     S
H27     V32    10.0   1_455     S
H27     S44    10.0   1_556     S
Er28     Ti34    10.0   .     S
Er28     Ti35    10.0   1_556     S
Er28     V29    10.0   .     S
Er28     Er31    10.0   .     S
V29     H30    10.0   .     S
H30     V32    10.0   1_455     S
H30     S44    10.0   .     S
Er31     Ti33    10.0   .     S
Er31     Ti36    10.0   1_556     S
Er31     V32    10.0   .     S
V32     H30    10.0   1_655     S
V32     H27    10.0   1_655     S
Ti33     Ce4    10.0   1_655     S
Ti33     Ce1    10.0   1_655     S
Ti33     Er37    10.0   .     S
Ti34     Er41    10.0   .     S
Ti35     Er28    10.0   1_554     S
Ti35     Ce2    10.0   1_554     S
Ti35     Er41    10.0   .     S
Ti36     Er31    10.0   1_554     S
Ti36     Ce3    10.0   1_655     S
Ti36     Ce2    10.0   1_654     S
Ti36     Er37    10.0   .     S
Er37     V38    10.0   .     S
Er37     Er41    10.0   .     S
V38     H39    10.0   1_655     S
V38     H40    10.0   1_655     S
H39     V42    10.0   .     S
H39     V38    10.0   1_455     S
H39     S43    10.0   .     S
H40     Ce2    10.0   1_554     S
H40     V42    10.0   .     S
H40     V38    10.0   1_455     S
H40     S43    10.0   1_554     S
Er41     V42    10.0   .     S
S43     H40    10.0   1_556     S
S43     V21    10.0   1_455     S
S44     H27    10.0   1_554     S
S44     V16    10.0   1_455     S
