data_ccg
_audit_creation_date              2020-02-04
_audit_creation_method            'Pymatgen'
_symmetry_space_group_name_H-M    'P1'
_symmetry_Int_Tables_number       1
loop_
_symmetry_equiv_pos_as_xyz
  x,y,z
_cell_length_a                    29.9998
_cell_length_b                    29.9998
_cell_length_c                    71.0003
_cell_angle_alpha                 90.0
_cell_angle_beta                 90.0
_cell_angle_gamma                 90.0
loop_
_atom_site_label
_atom_site_type_symbol
_atom_site_fract_x
_atom_site_fract_y
_atom_site_fract_z
Er1     Er     0.7016   0.0341   0.6876
Er2     Er     0.4659   0.7984   0.6876
V3     V     0.575   0.925   0.8094
Er4     Er     0.7984   0.4659   0.6876
Er5     Er     0.0341   0.7016   0.6876
V6     V     0.925   0.575   0.8094
Er7     Er     0.5341   0.2016   0.3124
Er8     Er     0.2984   0.9659   0.3124
V9     V     0.425   0.075   0.1906
Er10     Er     0.2016   0.5341   0.3124
Er11     Er     0.9659   0.2984   0.3124
V12     V     0.075   0.425   0.1906
Ce13     Ce     0.0833   0.4167   0.0498
Ti14     Ti     0.75   0.0833   0.0498
Ti15     Ti     0.75   0.4167   0.0498
Ce16     Ce     0.4167   0.0833   0.0498
Ti17     Ti     0.0833   0.75   0.0498
Ti18     Ti     0.4167   0.75   0.0498
Ti19     Ti     0.9167   0.25   0.9502
Ti20     Ti     0.5833   0.25   0.9502
Ce21     Ce     0.5833   0.9167   0.9502
Ce22     Ce     0.9167   0.5833   0.9502
Ti23     Ti     0.25   0.5833   0.9502
Ti24     Ti     0.25   0.9167   0.9502
Er25     Er     0.0341   0.7984   0.1876
Er26     Er     0.7984   0.0341   0.1876
V27     V     0.925   0.925   0.3094
Er28     Er     0.7016   0.4659   0.1876
Er29     Er     0.4659   0.7016   0.1876
V30     V     0.575   0.575   0.3094
Er31     Er     0.5341   0.2984   0.8124
Er32     Er     0.2984   0.5341   0.8124
V33     V     0.425   0.425   0.6906
Er34     Er     0.2016   0.9659   0.8124
Er35     Er     0.9659   0.2016   0.8124
V36     V     0.075   0.075   0.6906
Ce37     Ce     0.9167   0.9167   0.4502
Ti38     Ti     0.9167   0.25   0.4502
Ti39     Ti     0.5833   0.25   0.4502
Ce40     Ce     0.5833   0.5833   0.4502
Ti41     Ti     0.25   0.9167   0.4502
Ti42     Ti     0.25   0.5833   0.4502
Ce43     Ce     0.4167   0.4167   0.5498
Ti44     Ti     0.75   0.4167   0.5498
Ti45     Ti     0.75   0.0833   0.5498
Ce46     Ce     0.0833   0.0833   0.5498
Ti47     Ti     0.4167   0.75   0.5498
Ti48     Ti     0.0833   0.75   0.5498
loop_
_geom_bond_atom_site_label_1
_geom_bond_atom_site_label_2
_geom_bond_distance
_geom_bond_site_symmetry_2
_ccdc_geom_bond_type
Er1     V3    10.0   1_545     S
Er1     Er2    10.0   1_545     S
Er1     Ti45    10.0   .     S
Er2     V3    10.0   .     S
Er2     Er1    10.0   1_565     S
Er2     Ti47    10.0   .     S
V3     Er1    10.0   1_565     S
V3     Ce21    10.0   .     S
Er4     V6    10.0   .     S
Er4     Er5    10.0   1_655     S
Er4     Ti44    10.0   .     S
Er5     V6    10.0   1_455     S
Er5     Er4    10.0   1_455     S
Er5     Ti48    10.0   .     S
V6     Er5    10.0   1_655     S
V6     Ce22    10.0   .     S
Er7     V9    10.0   .     S
Er7     Er8    10.0   1_545     S
Er7     Ti39    10.0   .     S
Er8     V9    10.0   1_565     S
Er8     Er7    10.0   1_565     S
Er8     Ti41    10.0   .     S
V9     Er8    10.0   1_545     S
V9     Ce16    10.0   .     S
Er10     V12    10.0   .     S
Er10     Er11    10.0   1_455     S
Er10     Ti42    10.0   .     S
Er11     V12    10.0   1_655     S
Er11     Er10    10.0   1_655     S
Er11     Ti38    10.0   .     S
V12     Er11    10.0   1_455     S
V12     Ce13    10.0   .     S
Ce13     Ti15    10.0   1_455     S
Ce13     Ti17    10.0   .     S
Ce13     Ti19    10.0   1_454     S
Ce13     Ce22    10.001   1_454     S
Ce13     Ti23    10.0   1_554     S
Ti14     Er26    10.0   .     S
Ti14     Ti15    10.0   .     S
Ti14     Ce16    10.0   .     S
Ti14     Ce21    10.0   1_544     S
Ti14     Ti20    10.0   1_554     S
Ti14     Ti19    10.0   1_554     S
Ti15     Er28    10.0   .     S
Ti15     Ce13    10.0   1_655     S
Ti15     Ti20    10.0   1_554     S
Ti15     Ti19    10.0   1_554     S
Ti15     Ce22    10.0   1_554     S
Ce16     Ti18    10.0   1_545     S
Ce16     Ce21    10.001   1_544     S
Ce16     Ti20    10.0   1_554     S
Ce16     Ti24    10.0   1_544     S
Ti17     Er25    10.0   .     S
Ti17     Ti18    10.0   .     S
Ti17     Ce22    10.0   1_454     S
Ti17     Ti23    10.0   1_554     S
Ti17     Ti24    10.0   1_554     S
Ti18     Er29    10.0   .     S
Ti18     Ce16    10.0   1_565     S
Ti18     Ce21    10.0   1_554     S
Ti18     Ti23    10.0   1_554     S
Ti18     Ti24    10.0   1_554     S
Ti19     Ti14    10.0   1_556     S
Ti19     Ti15    10.0   1_556     S
Ti19     Ce13    10.0   1_656     S
Ti19     Er35    10.0   .     S
Ti19     Ti20    10.0   .     S
Ti19     Ce22    10.0   .     S
Ti20     Ti15    10.0   1_556     S
Ti20     Ti14    10.0   1_556     S
Ti20     Ce16    10.0   1_556     S
Ti20     Er31    10.0   .     S
Ti20     Ce21    10.0   1_545     S
Ce21     Ce16    10.001   1_566     S
Ce21     Ti18    10.0   1_556     S
Ce21     Ti14    10.0   1_566     S
Ce21     Ti20    10.0   1_565     S
Ce21     Ti24    10.0   .     S
Ce22     Ce13    10.001   1_656     S
Ce22     Ti17    10.0   1_656     S
Ce22     Ti15    10.0   1_556     S
Ce22     Ti23    10.0   1_655     S
Ti23     Ti18    10.0   1_556     S
Ti23     Ti17    10.0   1_556     S
Ti23     Ce13    10.0   1_556     S
Ti23     Er32    10.0   .     S
Ti23     Ti24    10.0   .     S
Ti23     Ce22    10.0   1_455     S
Ti24     Ti17    10.0   1_556     S
Ti24     Ti18    10.0   1_556     S
Ti24     Ce16    10.0   1_566     S
Ti24     Er34    10.0   .     S
Er25     V27    10.0   1_455     S
Er25     Er26    10.0   1_465     S
Er26     V27    10.0   1_545     S
Er26     Er25    10.0   1_645     S
V27     Er25    10.0   1_655     S
V27     Er26    10.0   1_565     S
V27     Ce37    10.0   .     S
Er28     V30    10.0   .     S
Er28     Er29    10.0   .     S
Er29     V30    10.0   .     S
V30     Ce40    10.0   .     S
Er31     V33    10.0   .     S
Er31     Er32    10.0   .     S
Er32     V33    10.0   .     S
V33     Ce43    10.0   .     S
Er34     V36    10.0   1_565     S
Er34     Er35    10.0   1_465     S
Er35     V36    10.0   1_655     S
Er35     Er34    10.0   1_645     S
V36     Er34    10.0   1_545     S
V36     Er35    10.0   1_455     S
V36     Ce46    10.0   .     S
Ce37     Ti38    10.0   1_565     S
Ce37     Ti41    10.0   1_655     S
Ce37     Ce46    10.001   1_665     S
Ce37     Ti45    10.0   1_565     S
Ce37     Ti48    10.0   1_655     S
Ti38     Ti39    10.0   .     S
Ti38     Ce37    10.0   1_545     S
Ti38     Ti44    10.0   .     S
Ti38     Ti45    10.0   .     S
Ti38     Ce46    10.0   1_655     S
Ti39     Ce40    10.0   .     S
Ti39     Ti45    10.0   .     S
Ti39     Ti44    10.0   .     S
Ti39     Ce43    10.0   .     S
Ce40     Ti42    10.0   .     S
Ce40     Ce43    10.001   .     S
Ce40     Ti44    10.0   .     S
Ce40     Ti47    10.0   .     S
Ti41     Ti42    10.0   .     S
Ti41     Ce37    10.0   1_455     S
Ti41     Ti47    10.0   .     S
Ti41     Ti48    10.0   .     S
Ti41     Ce46    10.0   1_565     S
Ti42     Ti48    10.0   .     S
Ti42     Ti47    10.0   .     S
Ti42     Ce43    10.0   .     S
Ce43     Ti44    10.0   .     S
Ce43     Ti47    10.0   .     S
Ti44     Ti45    10.0   .     S
Ti45     Ce37    10.0   1_545     S
Ti45     Ce46    10.0   1_655     S
Ce46     Ti41    10.0   1_545     S
Ce46     Ti38    10.0   1_455     S
Ce46     Ce37    10.001   1_445     S
Ce46     Ti45    10.0   1_455     S
Ce46     Ti48    10.0   1_545     S
Ti47     Ti48    10.0   .     S
Ti48     Ce37    10.0   1_455     S
Ti48     Ce46    10.0   1_565     S
