data_ceia
_audit_creation_date              2020-02-04
_audit_creation_method            'Pymatgen'
_symmetry_space_group_name_H-M    'P1'
_symmetry_Int_Tables_number       1
loop_
_symmetry_equiv_pos_as_xyz
  x,y,z
_cell_length_a                    68.9932
_cell_length_b                    68.9932
_cell_length_c                    33.898
_cell_angle_alpha                 90.0
_cell_angle_beta                 90.0
_cell_angle_gamma                 120.0
loop_
_atom_site_label
_atom_site_type_symbol
_atom_site_fract_x
_atom_site_fract_y
_atom_site_fract_z
Ti1     Ti     0.9517   0.0483   0.0
Ti2     Ti     0.9517   0.9033   0.0
Ti3     Ti     0.0967   0.0483   0.0
V4     V     0.881   0.2638   0.1474
V5     V     0.7362   0.119   0.1474
V6     V     0.881   0.2638   0.8526
V7     V     0.7362   0.119   0.8526
Er8     Er     0.8678   0.1322   0.0
Ce9     Ce     0.8803   0.3677   0.6475
Ce10     Ce     0.8803   0.5126   0.6475
Ce11     Ce     0.8803   0.3677   0.3525
Ce12     Ce     0.8803   0.5126   0.3525
V13     V     0.881   0.6172   0.1474
V14     V     0.7362   0.6172   0.1474
V15     V     0.881   0.6172   0.8526
V16     V     0.7362   0.6172   0.8526
Er17     Er     0.8678   0.7356   0.0
Ce18     Ce     0.6323   0.5126   0.6475
Ce19     Ce     0.4874   0.3677   0.6475
Ce20     Ce     0.6323   0.5126   0.3525
Ce21     Ce     0.4874   0.3677   0.3525
Ce22     Ce     0.4874   0.1197   0.6475
Ce23     Ce     0.6323   0.1197   0.6475
Ce24     Ce     0.4874   0.1197   0.3525
Ce25     Ce     0.6323   0.1197   0.3525
V26     V     0.3828   0.119   0.1474
V27     V     0.3828   0.2638   0.1474
V28     V     0.3828   0.119   0.8526
V29     V     0.3828   0.2638   0.8526
Er30     Er     0.2644   0.1322   0.0
loop_
_geom_bond_atom_site_label_1
_geom_bond_atom_site_label_2
_geom_bond_distance
_geom_bond_site_symmetry_2
_ccdc_geom_bond_type
Ti1     Ti3    10.006   1_655     S
Ti1     Ti2    10.007   1_545     S
Ti1     Er8    10.018   .     S
Ti2     Ti3    10.006   1_665     S
Ti2     Ti1    10.007   1_565     S
Ti2     Er17    10.018   .     S
Ti3     Ti1    10.006   1_455     S
Ti3     Ti2    10.006   1_445     S
Ti3     Er30    10.018   .     S
V4     Er8    10.001   .     S
V4     Ce11    10.002   .     S
V4     V5    9.99   .     S
V4     V6    9.993   1_554     S
V5     Er8    10.001   .     S
V5     Ce25    10.002   .     S
V5     V7    9.993   1_554     S
V6     Er8    10.001   1_556     S
V6     Ce9    10.002   .     S
V6     V7    9.99   .     S
V6     V4    9.993   1_556     S
V7     Er8    10.001   1_556     S
V7     Ce23    10.002   .     S
V7     V5    9.993   1_556     S
Er8     V6    10.001   1_554     S
Er8     V7    10.001   1_554     S
Ce9     Ce11    10.001   .     S
Ce9     Ce10    9.998   .     S
Ce10     Ce12    10.001   .     S
Ce10     V15    10.002   .     S
Ce11     Ce12    9.998   .     S
Ce12     V13    10.002   .     S
V13     Er17    10.001   .     S
V13     V14    9.99   .     S
V13     V15    9.993   1_554     S
V14     Er17    10.001   .     S
V14     Ce20    10.002   .     S
V14     V16    9.993   1_554     S
V15     Er17    10.001   1_556     S
V15     V16    9.99   .     S
V15     V13    9.993   1_556     S
V16     Er17    10.001   1_556     S
V16     Ce18    10.002   .     S
V16     V14    9.993   1_556     S
Er17     V16    10.001   1_554     S
Er17     V15    10.001   1_554     S
Ce18     Ce20    10.001   .     S
Ce18     Ce19    9.998   .     S
Ce19     Ce21    10.001   .     S
Ce19     V29    10.002   .     S
Ce20     Ce21    9.998   .     S
Ce21     V27    10.002   .     S
Ce22     Ce24    10.001   .     S
Ce22     V28    10.002   .     S
Ce22     Ce23    9.998   .     S
Ce23     Ce25    10.001   .     S
Ce24     V26    10.002   .     S
Ce24     Ce25    9.998   .     S
V26     Er30    10.001   .     S
V26     V27    9.99   .     S
V26     V28    9.993   1_554     S
V27     Er30    10.001   .     S
V27     V29    9.993   1_554     S
V28     Er30    10.001   1_556     S
V28     V29    9.99   .     S
V28     V26    9.993   1_556     S
V29     Er30    10.001   1_556     S
V29     V27    9.993   1_556     S
Er30     V28    10.001   1_554     S
Er30     V29    10.001   1_554     S
