data_ceka
_audit_creation_date              2020-02-04
_audit_creation_method            'Pymatgen'
_symmetry_space_group_name_H-M    'P1'
_symmetry_Int_Tables_number       1
loop_
_symmetry_equiv_pos_as_xyz
  x,y,z
_cell_length_a                    66.9521
_cell_length_b                    66.9521
_cell_length_c                    62.9011
_cell_angle_alpha                 90.0
_cell_angle_beta                 90.0
_cell_angle_gamma                 120.0
loop_
_atom_site_label
_atom_site_type_symbol
_atom_site_fract_x
_atom_site_fract_y
_atom_site_fract_z
Ti1     Ti     0.9502   0.0498   0.75
Ti2     Ti     0.9502   0.9004   0.75
Ti3     Ti     0.0996   0.0498   0.75
Ti4     Ti     0.0498   0.9502   0.25
Ti5     Ti     0.9004   0.9502   0.25
Ti6     Ti     0.0498   0.0996   0.25
Er7     Er     0.7283   0.6059   0.8295
Er8     Er     0.7283   0.6059   0.6705
Er9     Er     0.8776   0.6059   0.8295
Er10     Er     0.8776   0.6059   0.6705
V11     V     0.8639   0.7278   0.75
Ce12     Ce     0.9529   0.4018   0.9334
Ce13     Ce     0.9529   0.5511   0.9334
Ce14     Ce     0.0471   0.4489   0.0666
Ce15     Ce     0.0471   0.5982   0.0666
Er16     Er     0.8776   0.2717   0.8295
Er17     Er     0.8776   0.2717   0.6705
Er18     Er     0.7283   0.1224   0.8295
Er19     Er     0.7283   0.1224   0.6705
V20     V     0.8639   0.1361   0.75
Ce21     Ce     0.9529   0.4018   0.5666
Ce22     Ce     0.9529   0.5511   0.5666
Ce23     Ce     0.0471   0.4489   0.4334
Ce24     Ce     0.0471   0.5982   0.4334
Ce25     Ce     0.4489   0.4018   0.5666
Ce26     Ce     0.5982   0.5511   0.5666
Ce27     Ce     0.4018   0.4489   0.4334
Ce28     Ce     0.5511   0.5982   0.4334
Er29     Er     0.1224   0.7283   0.3295
Er30     Er     0.1224   0.7283   0.1705
Er31     Er     0.2717   0.8776   0.3295
Er32     Er     0.2717   0.8776   0.1705
V33     V     0.1361   0.8639   0.25
Ce34     Ce     0.5982   0.5511   0.9334
Ce35     Ce     0.4489   0.4018   0.9334
Ce36     Ce     0.4018   0.4489   0.0666
Ce37     Ce     0.5511   0.5982   0.0666
Er38     Er     0.2717   0.3941   0.3295
Er39     Er     0.2717   0.3941   0.1705
Er40     Er     0.1224   0.3941   0.3295
Er41     Er     0.1224   0.3941   0.1705
V42     V     0.1361   0.2722   0.25
Er43     Er     0.3941   0.2717   0.8295
Er44     Er     0.3941   0.2717   0.6705
Er45     Er     0.3941   0.1224   0.8295
Er46     Er     0.3941   0.1224   0.6705
V47     V     0.2722   0.1361   0.75
Ce48     Ce     0.4489   0.0471   0.9334
Ce49     Ce     0.5982   0.0471   0.9334
Ce50     Ce     0.4018   0.9529   0.0666
Ce51     Ce     0.5511   0.9529   0.0666
Er52     Er     0.6059   0.7283   0.3295
Er53     Er     0.6059   0.7283   0.1705
Er54     Er     0.6059   0.8776   0.3295
Er55     Er     0.6059   0.8776   0.1705
V56     V     0.7278   0.8639   0.25
Ce57     Ce     0.4489   0.0471   0.5666
Ce58     Ce     0.5982   0.0471   0.5666
Ce59     Ce     0.4018   0.9529   0.4334
Ce60     Ce     0.5511   0.9529   0.4334
loop_
_geom_bond_atom_site_label_1
_geom_bond_atom_site_label_2
_geom_bond_distance
_geom_bond_site_symmetry_2
_ccdc_geom_bond_type
Ti1     V20    10.008   .     S
Ti1     Ti2    10.002   1_545     S
Ti1     Ti3    10.001   1_655     S
Ti2     Ti3    10.002   1_665     S
Ti2     Ti1    10.002   1_565     S
Ti2     V11    10.008   .     S
Ti3     Ti2    10.002   1_445     S
Ti3     Ti1    10.001   1_455     S
Ti3     V47    10.008   .     S
Ti4     V33    10.008   .     S
Ti4     Ti5    10.001   1_455     S
Ti4     Ti6    10.002   1_565     S
Ti5     Ti4    10.001   1_655     S
Ti5     Ti6    10.002   1_665     S
Ti5     V56    10.008   .     S
Ti6     Ti5    10.002   1_445     S
Ti6     Ti4    10.002   1_545     S
Ti6     V42    10.008   .     S
Er7     Er8    9.996   .     S
Er7     Er9    9.997   .     S
Er7     V11    9.996   .     S
Er7     Ce34    10.004   .     S
Er8     Er10    9.997   .     S
Er8     V11    9.996   .     S
Er8     Ce26    10.004   .     S
Er9     Er10    9.996   .     S
Er9     V11    9.997   .     S
Er9     Ce13    10.004   .     S
Er10     V11    9.997   .     S
Er10     Ce22    10.004   .     S
Ce12     Ce13    9.999   .     S
Ce12     Ce14    10.002   1_656     S
Ce12     Er16    10.004   .     S
Ce13     Ce15    10.002   1_656     S
Ce14     Ce15    9.999   .     S
Ce14     Ce12    10.002   1_454     S
Ce14     Er41    10.004   .     S
Ce15     Ce13    10.002   1_454     S
Ce15     Er30    10.004   .     S
Er16     Er17    9.996   .     S
Er16     Er18    9.997   .     S
Er16     V20    9.997   .     S
Er17     Er19    9.997   .     S
Er17     V20    9.997   .     S
Er17     Ce21    10.004   .     S
Er18     Er19    9.996   .     S
Er18     V20    9.997   .     S
Er18     Ce49    10.004   .     S
Er19     V20    9.997   .     S
Er19     Ce58    10.004   .     S
Ce21     Ce22    9.999   .     S
Ce21     Ce23    10.002   1_655     S
Ce22     Ce24    10.002   1_655     S
Ce23     Ce24    9.999   .     S
Ce23     Ce21    10.002   1_455     S
Ce23     Er40    10.004   .     S
Ce24     Ce22    10.002   1_455     S
Ce24     Er29    10.004   .     S
Ce25     Ce26    9.999   .     S
Ce25     Ce27    10.002   .     S
Ce25     Er44    10.004   .     S
Ce26     Ce28    10.002   .     S
Ce27     Ce28    9.999   .     S
Ce27     Er38    10.004   .     S
Ce28     Er52    10.004   .     S
Er29     Er30    9.996   .     S
Er29     Er31    9.997   .     S
Er29     V33    9.997   .     S
Er30     Er32    9.997   .     S
Er30     V33    9.997   .     S
Er31     Er32    9.996   .     S
Er31     V33    9.997   .     S
Er31     Ce59    10.004   .     S
Er32     V33    9.997   .     S
Er32     Ce50    10.004   .     S
Ce34     Ce35    9.999   .     S
Ce34     Ce37    10.002   1_556     S
Ce35     Ce36    10.002   1_556     S
Ce35     Er43    10.004   .     S
Ce36     Ce37    9.999   .     S
Ce36     Ce35    10.002   1_554     S
Ce36     Er39    10.004   .     S
Ce37     Ce34    10.002   1_554     S
Ce37     Er53    10.004   .     S
Er38     Er39    9.996   .     S
Er38     Er40    9.997   .     S
Er38     V42    9.997   .     S
Er39     Er41    9.997   .     S
Er39     V42    9.997   .     S
Er40     Er41    9.996   .     S
Er40     V42    9.997   .     S
Er41     V42    9.997   .     S
Er43     Er44    9.996   .     S
Er43     Er45    9.997   .     S
Er43     V47    9.997   .     S
Er44     Er46    9.997   .     S
Er44     V47    9.997   .     S
Er45     Er46    9.996   .     S
Er45     V47    9.997   .     S
Er45     Ce48    10.004   .     S
Er46     V47    9.997   .     S
Er46     Ce57    10.004   .     S
Ce48     Ce49    9.999   .     S
Ce48     Ce50    10.002   1_546     S
Ce49     Ce51    10.002   1_546     S
Ce50     Ce51    9.999   .     S
Ce50     Ce48    10.002   1_564     S
Ce51     Ce49    10.002   1_564     S
Ce51     Er55    10.004   .     S
Er52     Er53    9.996   .     S
Er52     Er54    9.997   .     S
Er52     V56    9.997   .     S
Er53     Er55    9.997   .     S
Er53     V56    9.997   .     S
Er54     Er55    9.996   .     S
Er54     V56    9.996   .     S
Er54     Ce60    10.004   .     S
Er55     V56    9.996   .     S
Ce57     Ce58    9.999   .     S
Ce57     Ce59    10.002   1_545     S
Ce58     Ce60    10.002   1_545     S
Ce59     Ce60    9.999   .     S
Ce59     Ce57    10.002   1_565     S
Ce60     Ce58    10.002   1_565     S
