data_cela
_audit_creation_date              2020-02-04
_audit_creation_method            'Pymatgen'
_symmetry_space_group_name_H-M    'P1'
_symmetry_Int_Tables_number       1
loop_
_symmetry_equiv_pos_as_xyz
  x,y,z
_cell_length_a                    74.2064
_cell_length_b                    74.2064
_cell_length_c                    33.3599
_cell_angle_alpha                 90.0
_cell_angle_beta                 90.0
_cell_angle_gamma                 120.0
loop_
_atom_site_label
_atom_site_type_symbol
_atom_site_fract_x
_atom_site_fract_y
_atom_site_fract_z
Ce1     Ce     0.9221   0.8441   0.0
Ce2     Ce     0.8441   0.9221   0.0
Ce3     Ce     0.9221   0.0779   0.0
Ce4     Ce     0.0779   0.1559   0.0
Ce5     Ce     0.1559   0.0779   0.0
Er6     Er     0.7218   0.5783   0.8502
Er7     Er     0.8565   0.5783   0.8502
Er8     Er     0.8565   0.5783   0.1498
Er9     Er     0.7218   0.5783   0.1498
V10     V     0.8441   0.6883   0.0
Er11     Er     0.8565   0.2782   0.8502
Er12     Er     0.7218   0.1435   0.8502
Er13     Er     0.8565   0.2782   0.1498
Er14     Er     0.7218   0.1435   0.1498
V15     V     0.8441   0.1559   0.0
Er16     Er     0.4217   0.2782   0.8502
Er17     Er     0.4217   0.1435   0.8502
Er18     Er     0.4217   0.2782   0.1498
Er19     Er     0.4217   0.1435   0.1498
V20     V     0.3117   0.1559   0.0
Er21     Er     0.2782   0.8565   0.8502
Er22     Er     0.1435   0.7218   0.8502
Er23     Er     0.2782   0.8565   0.1498
Er24     Er     0.1435   0.7218   0.1498
V25     V     0.1559   0.8441   0.0
Er26     Er     0.5783   0.8565   0.8502
Er27     Er     0.5783   0.7218   0.8502
Er28     Er     0.5783   0.8565   0.1498
Er29     Er     0.5783   0.7218   0.1498
V30     V     0.6883   0.8441   0.0
Ti31     Ti     0.4715   0.3938   0.3501
Ti32     Ti     0.3938   0.4715   0.3501
Ti33     Ti     0.5285   0.6062   0.3501
Ti34     Ti     0.6062   0.5285   0.3501
Ti35     Ti     0.4715   0.3938   0.6499
Ti36     Ti     0.3938   0.4715   0.6499
Ti37     Ti     0.5285   0.6062   0.6499
Ti38     Ti     0.6062   0.5285   0.6499
Ti39     Ti     0.9222   0.5285   0.3501
Ti40     Ti     0.0778   0.6062   0.3501
Ti41     Ti     0.9222   0.3938   0.3501
Ti42     Ti     0.0778   0.4715   0.3501
Ti43     Ti     0.9222   0.5285   0.6499
Ti44     Ti     0.0778   0.6062   0.6499
Ti45     Ti     0.9222   0.3938   0.6499
Ti46     Ti     0.0778   0.4715   0.6499
Er47     Er     0.1435   0.4217   0.1498
Er48     Er     0.2782   0.4217   0.1498
Er49     Er     0.2782   0.4217   0.8502
Er50     Er     0.1435   0.4217   0.8502
V51     V     0.1559   0.3117   0.0
Ti52     Ti     0.5285   0.9222   0.3501
Ti53     Ti     0.6062   0.0778   0.3501
Ti54     Ti     0.3938   0.9222   0.3501
Ti55     Ti     0.4715   0.0778   0.3501
Ti56     Ti     0.3938   0.9222   0.6499
Ti57     Ti     0.4715   0.0778   0.6499
Ti58     Ti     0.5285   0.9222   0.6499
Ti59     Ti     0.6062   0.0778   0.6499
Ce60     Ce     0.0779   0.9221   0.0
loop_
_geom_bond_atom_site_label_1
_geom_bond_atom_site_label_2
_geom_bond_distance
_geom_bond_site_symmetry_2
_ccdc_geom_bond_type
Ce1     V10    10.016   .     S
Ce1     Ce2    10.016   .     S
Ce1     Ce60    10.016   1_655     S
Ce2     V30    10.016   .     S
Ce2     Ce3    10.016   1_565     S
Ce3     V15    10.016   .     S
Ce3     Ce2    10.016   1_545     S
Ce3     Ce4    10.016   1_655     S
Ce4     Ce5    10.016   .     S
Ce4     V51    10.016   .     S
Ce4     Ce3    10.016   1_455     S
Ce5     V20    10.016   .     S
Ce5     Ce60    10.016   1_545     S
Er6     V10    9.993   1_556     S
Er6     Er7    9.993   .     S
Er6     Er9    9.994   1_556     S
Er6     Ti38    10.009   .     S
Er7     V10    9.993   1_556     S
Er7     Er8    9.994   1_556     S
Er7     Ti43    10.009   .     S
Er8     V10    9.993   .     S
Er8     Er9    9.993   .     S
Er8     Er7    9.994   1_554     S
Er8     Ti39    10.009   .     S
Er9     V10    9.993   .     S
Er9     Er6    9.994   1_554     S
Er9     Ti34    10.009   .     S
V10     Er6    9.993   1_554     S
V10     Er7    9.993   1_554     S
Er11     V15    9.993   1_556     S
Er11     Er12    9.993   .     S
Er11     Er13    9.994   1_556     S
Er11     Ti45    10.009   .     S
Er12     V15    9.993   1_556     S
Er12     Er14    9.994   1_556     S
Er12     Ti59    10.009   .     S
Er13     V15    9.993   .     S
Er13     Er14    9.993   .     S
Er13     Er11    9.994   1_554     S
Er13     Ti41    10.009   .     S
Er14     V15    9.993   .     S
Er14     Er12    9.994   1_554     S
Er14     Ti53    10.009   .     S
V15     Er11    9.993   1_554     S
V15     Er12    9.993   1_554     S
Er16     V20    9.993   1_556     S
Er16     Er17    9.993   .     S
Er16     Er18    9.994   1_556     S
Er16     Ti35    10.009   .     S
Er17     V20    9.993   1_556     S
Er17     Er19    9.994   1_556     S
Er17     Ti57    10.009   .     S
Er18     V20    9.993   .     S
Er18     Er19    9.993   .     S
Er18     Er16    9.994   1_554     S
Er18     Ti31    10.009   .     S
Er19     V20    9.993   .     S
Er19     Er17    9.994   1_554     S
Er19     Ti55    10.009   .     S
V20     Er17    9.993   1_554     S
V20     Er16    9.993   1_554     S
Er21     V25    9.993   1_556     S
Er21     Er22    9.993   .     S
Er21     Er23    9.994   1_556     S
Er21     Ti56    10.009   .     S
Er22     V25    9.993   1_556     S
Er22     Er24    9.994   1_556     S
Er22     Ti44    10.009   .     S
Er23     V25    9.993   .     S
Er23     Er24    9.993   .     S
Er23     Er21    9.994   1_554     S
Er23     Ti54    10.009   .     S
Er24     V25    9.993   .     S
Er24     Er22    9.994   1_554     S
Er24     Ti40    10.009   .     S
V25     Er22    9.993   1_554     S
V25     Er21    9.993   1_554     S
V25     Ce60    10.016   .     S
Er26     V30    9.993   1_556     S
Er26     Er27    9.993   .     S
Er26     Er28    9.994   1_556     S
Er26     Ti58    10.009   .     S
Er27     V30    9.993   1_556     S
Er27     Er29    9.994   1_556     S
Er27     Ti37    10.009   .     S
Er28     V30    9.993   .     S
Er28     Er29    9.993   .     S
Er28     Er26    9.994   1_554     S
Er28     Ti52    10.009   .     S
Er29     V30    9.993   .     S
Er29     Er27    9.994   1_554     S
Er29     Ti33    10.009   .     S
V30     Er26    9.993   1_554     S
V30     Er27    9.993   1_554     S
Ti31     Ti32    9.993   .     S
Ti31     Ti34    9.999   .     S
Ti31     Ti35    9.999   .     S
Ti32     Ti33    9.999   .     S
Ti32     Ti36    9.999   .     S
Ti32     Er48    10.009   .     S
Ti33     Ti34    9.993   .     S
Ti33     Ti37    9.999   .     S
Ti34     Ti38    9.999   .     S
Ti35     Ti36    9.993   .     S
Ti35     Ti38    9.999   .     S
Ti36     Ti37    9.999   .     S
Ti36     Er49    10.009   .     S
Ti37     Ti38    9.993   .     S
Ti39     Ti40    9.993   1_655     S
Ti39     Ti41    9.999   .     S
Ti39     Ti43    9.999   .     S
Ti40     Ti42    9.999   .     S
Ti40     Ti39    9.993   1_455     S
Ti40     Ti44    9.999   .     S
Ti41     Ti42    9.993   1_655     S
Ti41     Ti45    9.999   .     S
Ti42     Ti41    9.993   1_455     S
Ti42     Ti46    9.999   .     S
Ti42     Er47    10.009   .     S
Ti43     Ti44    9.993   1_655     S
Ti43     Ti45    9.999   .     S
Ti44     Ti46    9.999   .     S
Ti44     Ti43    9.993   1_455     S
Ti45     Ti46    9.993   1_655     S
Ti46     Ti45    9.993   1_455     S
Ti46     Er50    10.009   .     S
Er47     V51    9.993   .     S
Er47     Er48    9.993   .     S
Er47     Er50    9.994   1_554     S
Er48     V51    9.993   .     S
Er48     Er49    9.994   1_554     S
Er49     V51    9.993   1_556     S
Er49     Er50    9.993   .     S
Er49     Er48    9.994   1_556     S
Er50     V51    9.993   1_556     S
Er50     Er47    9.994   1_556     S
V51     Er49    9.993   1_554     S
V51     Er50    9.993   1_554     S
Ti52     Ti54    9.999   .     S
Ti52     Ti53    9.993   1_565     S
Ti52     Ti58    9.999   .     S
Ti53     Ti52    9.993   1_545     S
Ti53     Ti55    9.999   .     S
Ti53     Ti59    9.999   .     S
Ti54     Ti55    9.993   1_565     S
Ti54     Ti56    9.999   .     S
Ti55     Ti54    9.993   1_545     S
Ti55     Ti57    9.999   .     S
Ti56     Ti57    9.993   1_565     S
Ti56     Ti58    9.999   .     S
Ti57     Ti56    9.993   1_545     S
Ti57     Ti59    9.999   .     S
Ti58     Ti59    9.993   1_565     S
Ti59     Ti58    9.993   1_545     S
Ce60     Ce1    10.016   1_455     S
Ce60     Ce5    10.016   1_565     S
