data_cepa
_audit_creation_date              2020-02-04
_audit_creation_method            'Pymatgen'
_symmetry_space_group_name_H-M    'P1'
_symmetry_Int_Tables_number       1
loop_
_symmetry_equiv_pos_as_xyz
  x,y,z
_cell_length_a                    56.6659
_cell_length_b                    56.6659
_cell_length_c                    51.535
_cell_angle_alpha                 90.0
_cell_angle_beta                 90.0
_cell_angle_gamma                 120.0
loop_
_atom_site_label
_atom_site_type_symbol
_atom_site_fract_x
_atom_site_fract_y
_atom_site_fract_z
Er1     Er     0.8982   0.2962   0.8214
Er2     Er     0.1018   0.3981   0.8214
V3     V     0.0   0.2326   0.7099
Er4     Er     0.2962   0.8982   0.8214
Er5     Er     0.3981   0.1018   0.8214
V6     V     0.2326   0.0   0.7099
Er7     Er     0.8982   0.6019   0.1786
Er8     Er     0.1018   0.7038   0.1786
V9     V     0.0   0.7674   0.2901
Er10     Er     0.6019   0.7038   0.8214
Er11     Er     0.7038   0.6019   0.8214
V12     V     0.7674   0.7674   0.7099
Ce13     Ce     0.6667   0.4352   0.9208
Ce14     Ce     0.7685   0.4352   0.0792
Ce15     Ce     0.5648   0.2315   0.9208
Ce16     Ce     0.5648   0.3333   0.0792
Ce17     Ce     0.6667   0.2315   0.0792
Ce18     Ce     0.7685   0.3333   0.9208
Er19     Er     0.2962   0.3981   0.1786
Er20     Er     0.3981   0.2962   0.1786
V21     V     0.2326   0.2326   0.2901
Ce22     Ce     0.4352   0.7685   0.0792
Ce23     Ce     0.4352   0.6667   0.9208
Ce24     Ce     0.2315   0.5648   0.9208
Ce25     Ce     0.3333   0.5648   0.0792
Ce26     Ce     0.3333   0.7685   0.9208
Ce27     Ce     0.2315   0.6667   0.0792
Er28     Er     0.6019   0.8982   0.1786
Er29     Er     0.7038   0.1018   0.1786
V30     V     0.7674   0.0   0.2901
Ti31     Ti     0.8982   0.8982   0.5792
Ti32     Ti     0.1018   0.0   0.5792
Ti33     Ti     0.0   0.1018   0.5792
Ti34     Ti     0.0   0.8982   0.4208
Ti35     Ti     0.8982   0.0   0.4208
Ti36     Ti     0.1018   0.1018   0.4208
loop_
_geom_bond_atom_site_label_1
_geom_bond_atom_site_label_2
_geom_bond_distance
_geom_bond_site_symmetry_2
_ccdc_geom_bond_type
Er1     V3    10.004   1_655     S
Er1     Ce18    10.006   .     S
Er1     Er2    9.992   1_655     S
Er2     V3    10.004   .     S
Er2     Ce24    10.006   .     S
Er2     Er1    9.992   1_455     S
V3     Er1    10.004   1_455     S
V3     Ti33    10.014   .     S
Er4     V6    10.004   1_565     S
Er4     Ce26    10.006   .     S
Er4     Er5    9.992   1_565     S
Er5     V6    10.004   .     S
Er5     Ce15    10.006   .     S
Er5     Er4    9.992   1_545     S
V6     Er4    10.004   1_545     S
V6     Ti32    10.014   .     S
Er7     V9    10.004   1_655     S
Er7     Ce14    10.006   .     S
Er7     Er8    9.992   1_655     S
Er8     V9    10.004   .     S
Er8     Ce27    10.006   .     S
Er8     Er7    9.992   1_455     S
V9     Er7    10.004   1_455     S
V9     Ti34    10.014   .     S
Er10     V12    10.004   .     S
Er10     Ce23    10.006   .     S
Er10     Er11    9.992   .     S
Er11     V12    10.004   .     S
Er11     Ce13    10.006   .     S
V12     Ti31    10.014   .     S
Ce13     Ce16    9.997   1_556     S
Ce13     Ce14    9.99   1_556     S
Ce13     Ce18    9.994   .     S
Ce13     Ce15    9.994   .     S
Ce14     Ce18    9.997   1_554     S
Ce14     Ce13    9.99   1_554     S
Ce14     Ce17    9.994   .     S
Ce14     Ce16    9.994   .     S
Ce15     Ce17    9.997   1_556     S
Ce15     Ce16    9.99   1_556     S
Ce15     Ce18    9.994   .     S
Ce16     Ce13    9.997   1_554     S
Ce16     Er20    10.006   .     S
Ce16     Ce15    9.99   1_554     S
Ce16     Ce17    9.994   .     S
Ce17     Ce15    9.997   1_554     S
Ce17     Er29    10.006   .     S
Ce17     Ce18    9.99   1_554     S
Ce18     Ce14    9.997   1_556     S
Ce18     Ce17    9.99   1_556     S
Er19     V21    10.004   .     S
Er19     Ce25    10.006   .     S
Er19     Er20    9.992   .     S
Er20     V21    10.004   .     S
V21     Ti36    10.014   .     S
Ce22     Ce26    9.997   1_554     S
Ce22     Er28    10.006   .     S
Ce22     Ce23    9.99   1_554     S
Ce22     Ce25    9.994   .     S
Ce22     Ce27    9.994   .     S
Ce23     Ce25    9.997   1_556     S
Ce23     Ce22    9.99   1_556     S
Ce23     Ce24    9.994   .     S
Ce23     Ce26    9.994   .     S
Ce24     Ce27    9.997   1_556     S
Ce24     Ce25    9.99   1_556     S
Ce24     Ce26    9.994   .     S
Ce25     Ce23    9.997   1_554     S
Ce25     Ce24    9.99   1_554     S
Ce25     Ce27    9.994   .     S
Ce26     Ce22    9.997   1_556     S
Ce26     Ce27    9.99   1_556     S
Ce27     Ce24    9.997   1_554     S
Ce27     Ce26    9.99   1_554     S
Er28     V30    10.004   1_565     S
Er28     Er29    9.992   1_565     S
Er29     V30    10.004   .     S
Er29     Er28    9.992   1_545     S
V30     Er28    10.004   1_545     S
V30     Ti35    10.014   .     S
Ti31     Ti32    9.996   1_665     S
Ti31     Ti33    9.996   1_665     S
Ti31     Ti35    10.001   1_565     S
Ti31     Ti34    10.001   1_655     S
Ti32     Ti31    9.996   1_445     S
Ti32     Ti33    9.996   .     S
Ti32     Ti34    10.001   1_545     S
Ti32     Ti36    10.001   .     S
Ti33     Ti31    9.996   1_445     S
Ti33     Ti36    10.001   .     S
Ti33     Ti35    10.001   1_455     S
Ti34     Ti32    10.001   1_565     S
Ti34     Ti31    10.001   1_455     S
Ti34     Ti36    9.996   1_565     S
Ti34     Ti35    9.996   1_465     S
Ti35     Ti33    10.001   1_655     S
Ti35     Ti31    10.001   1_545     S
Ti35     Ti36    9.996   1_655     S
Ti35     Ti34    9.996   1_645     S
Ti36     Ti34    9.996   1_545     S
Ti36     Ti35    9.996   1_455     S
