data_ceqa
_audit_creation_date              2020-02-04
_audit_creation_method            'Pymatgen'
_symmetry_space_group_name_H-M    'P1'
_symmetry_Int_Tables_number       1
loop_
_symmetry_equiv_pos_as_xyz
  x,y,z
_cell_length_a                    56.8597
_cell_length_b                    56.8597
_cell_length_c                    55.1058
_cell_angle_alpha                 90.0
_cell_angle_beta                 90.0
_cell_angle_gamma                 120.0
loop_
_atom_site_label
_atom_site_type_symbol
_atom_site_fract_x
_atom_site_fract_y
_atom_site_fract_z
Er1     Er     0.6061   0.8985   0.3202
Er2     Er     0.7076   0.1015   0.3202
V3     V     0.769   0.0   0.2138
Er4     Er     0.3939   0.2924   0.3202
Er5     Er     0.2924   0.3939   0.3202
V6     V     0.231   0.231   0.2138
Er7     Er     0.6061   0.8985   0.6798
Er8     Er     0.7076   0.1015   0.6798
V9     V     0.769   0.0   0.7862
Er10     Er     0.8985   0.6061   0.3202
Er11     Er     0.1015   0.7076   0.3202
V12     V     0.0   0.769   0.2138
Ti13     Ti     0.241   0.683   0.4093
Ti14     Ti     0.317   0.558   0.4093
Ti15     Ti     0.442   0.759   0.4093
Ti16     Ti     0.241   0.683   0.5907
Ti17     Ti     0.317   0.558   0.5907
Ti18     Ti     0.442   0.759   0.5907
Er19     Er     0.3939   0.2924   0.6798
Er20     Er     0.2924   0.3939   0.6798
V21     V     0.231   0.231   0.7862
Ti22     Ti     0.683   0.241   0.5907
Ti23     Ti     0.759   0.442   0.5907
Ti24     Ti     0.558   0.317   0.5907
Ti25     Ti     0.683   0.241   0.4093
Ti26     Ti     0.759   0.442   0.4093
Ti27     Ti     0.558   0.317   0.4093
Er28     Er     0.8985   0.6061   0.6798
Er29     Er     0.1015   0.7076   0.6798
V30     V     0.0   0.769   0.7862
Ce31     Ce     0.0   0.8985   0.0908
Ce32     Ce     0.1015   0.1015   0.0908
Ce33     Ce     0.8985   0.0   0.0908
Ce34     Ce     0.0   0.8985   0.9092
Ce35     Ce     0.1015   0.1015   0.9092
Ce36     Ce     0.8985   0.0   0.9092
loop_
_geom_bond_atom_site_label_1
_geom_bond_atom_site_label_2
_geom_bond_distance
_geom_bond_site_symmetry_2
_ccdc_geom_bond_type
Er1     Er2    9.993   1_565     S
Er1     V3    10.001   1_565     S
Er1     Ti15    10.003   .     S
Er2     Er1    9.993   1_545     S
Er2     V3    10.001   .     S
Er2     Ti25    10.003   .     S
V3     Er1    10.001   1_545     S
V3     Ce33    10.009   .     S
Er4     Er5    9.993   .     S
Er4     V6    10.001   .     S
Er4     Ti27    10.003   .     S
Er5     V6    10.001   .     S
Er5     Ti14    10.003   .     S
V6     Ce32    10.009   .     S
Er7     Er8    9.993   1_565     S
Er7     V9    10.001   1_565     S
Er7     Ti18    10.003   .     S
Er8     Er7    9.993   1_545     S
Er8     V9    10.001   .     S
Er8     Ti22    10.003   .     S
V9     Er7    10.001   1_545     S
V9     Ce36    10.009   .     S
Er10     Er11    9.993   1_655     S
Er10     V12    10.001   1_655     S
Er10     Ti26    10.003   .     S
Er11     Er10    9.993   1_455     S
Er11     V12    10.001   .     S
Er11     Ti13    10.003   .     S
V12     Er10    10.001   1_455     S
V12     Ce31    10.009   .     S
Ti13     Ti14    9.996   .     S
Ti13     Ti15    9.996   .     S
Ti13     Ti16    9.997   .     S
Ti14     Ti15    9.996   .     S
Ti14     Ti17    9.997   .     S
Ti15     Ti18    9.997   .     S
Ti16     Ti17    9.996   .     S
Ti16     Ti18    9.996   .     S
Ti16     Er29    10.003   .     S
Ti17     Ti18    9.996   .     S
Ti17     Er20    10.003   .     S
Er19     Er20    9.993   .     S
Er19     V21    10.001   .     S
Er19     Ti24    10.003   .     S
Er20     V21    10.001   .     S
V21     Ce35    10.009   .     S
Ti22     Ti24    9.996   .     S
Ti22     Ti23    9.996   .     S
Ti22     Ti25    9.997   .     S
Ti23     Ti24    9.996   .     S
Ti23     Ti26    9.997   .     S
Ti23     Er28    10.003   .     S
Ti24     Ti27    9.997   .     S
Ti25     Ti27    9.996   .     S
Ti25     Ti26    9.996   .     S
Ti26     Ti27    9.996   .     S
Er28     Er29    9.993   1_655     S
Er28     V30    10.001   1_655     S
Er29     Er28    9.993   1_455     S
Er29     V30    10.001   .     S
V30     Er28    10.001   1_455     S
V30     Ce34    10.009   .     S
Ce31     Ce33    9.998   1_465     S
Ce31     Ce32    9.998   1_565     S
Ce31     Ce34    10.003   1_554     S
Ce32     Ce31    9.998   1_545     S
Ce32     Ce33    9.998   1_455     S
Ce32     Ce35    10.003   1_554     S
Ce33     Ce31    9.998   1_645     S
Ce33     Ce32    9.998   1_655     S
Ce33     Ce36    10.003   1_554     S
Ce34     Ce36    9.998   1_465     S
Ce34     Ce35    9.998   1_565     S
Ce34     Ce31    10.003   1_556     S
Ce35     Ce34    9.998   1_545     S
Ce35     Ce36    9.998   1_455     S
Ce35     Ce32    10.003   1_556     S
Ce36     Ce34    9.998   1_645     S
Ce36     Ce35    9.998   1_655     S
Ce36     Ce33    10.003   1_556     S
