data_ceta
_audit_creation_date              2020-02-04
_audit_creation_method            'Pymatgen'
_symmetry_space_group_name_H-M    'P1'
_symmetry_Int_Tables_number       1
loop_
_symmetry_equiv_pos_as_xyz
  x,y,z
_cell_length_a                    56.6808
_cell_length_b                    56.6808
_cell_length_c                    107.2239
_cell_angle_alpha                 90.0
_cell_angle_beta                 90.0
_cell_angle_gamma                 120.0
loop_
_atom_site_label
_atom_site_type_symbol
_atom_site_fract_x
_atom_site_fract_y
_atom_site_fract_z
Ti1     Ti     0.1018   0.1018   0.5381
Ti2     Ti     0.8982   0.0   0.5381
Ti3     Ti     0.0   0.8982   0.5381
Ti4     Ti     0.1018   0.0   0.4619
Ti5     Ti     0.0   0.1018   0.4619
Ti6     Ti     0.8982   0.8982   0.4619
V7     V     0.3934   0.2916   0.843
V8     V     0.2916   0.3934   0.843
Er9     Er     0.2304   0.2304   0.8979
V10     V     0.3934   0.2916   0.657
V11     V     0.2916   0.3934   0.657
Er12     Er     0.2304   0.2304   0.6021
V13     V     0.8982   0.6066   0.843
V14     V     0.1018   0.7084   0.843
Er15     Er     0.0   0.7696   0.8979
V16     V     0.8982   0.6066   0.657
V17     V     0.1018   0.7084   0.657
Er18     Er     0.0   0.7696   0.6021
Ce19     Ce     0.3157   0.5572   0.7966
Ce20     Ce     0.3157   0.5572   0.7034
Ce21     Ce     0.4428   0.7585   0.7966
Ce22     Ce     0.4428   0.7585   0.7034
Ce23     Ce     0.2415   0.6843   0.7034
Ce24     Ce     0.2415   0.6843   0.7966
V25     V     0.7084   0.1018   0.657
V26     V     0.6066   0.8982   0.657
Er27     Er     0.7696   0.0   0.6021
V28     V     0.7084   0.1018   0.843
V29     V     0.6066   0.8982   0.843
Er30     Er     0.7696   0.0   0.8979
Ce31     Ce     0.7585   0.4428   0.7034
Ce32     Ce     0.7585   0.4428   0.7966
Ce33     Ce     0.5572   0.3157   0.7034
Ce34     Ce     0.5572   0.3157   0.7966
Ce35     Ce     0.6843   0.2415   0.7966
Ce36     Ce     0.6843   0.2415   0.7034
Ti37     Ti     0.1018   0.1018   0.9619
Ti38     Ti     0.8982   0.0   0.9619
Ti39     Ti     0.0   0.8982   0.9619
Ti40     Ti     0.0   0.1018   0.0381
Ti41     Ti     0.1018   0.0   0.0381
Ti42     Ti     0.8982   0.8982   0.0381
V43     V     0.6066   0.7084   0.157
V44     V     0.7084   0.6066   0.157
Er45     Er     0.7696   0.7696   0.1021
V46     V     0.6066   0.7084   0.343
V47     V     0.7084   0.6066   0.343
Er48     Er     0.7696   0.7696   0.3979
V49     V     0.8982   0.2916   0.343
V50     V     0.1018   0.3934   0.343
Er51     Er     0.0   0.2304   0.3979
V52     V     0.8982   0.2916   0.157
V53     V     0.1018   0.3934   0.157
Er54     Er     0.0   0.2304   0.1021
Ce55     Ce     0.6843   0.4428   0.2966
Ce56     Ce     0.6843   0.4428   0.2034
Ce57     Ce     0.7585   0.3157   0.2966
Ce58     Ce     0.7585   0.3157   0.2034
Ce59     Ce     0.5572   0.2415   0.2966
Ce60     Ce     0.5572   0.2415   0.2034
V61     V     0.3934   0.1018   0.157
V62     V     0.2916   0.8982   0.157
Er63     Er     0.2304   0.0   0.1021
V64     V     0.3934   0.1018   0.343
V65     V     0.2916   0.8982   0.343
Er66     Er     0.2304   0.0   0.3979
Ce67     Ce     0.2415   0.5572   0.2034
Ce68     Ce     0.2415   0.5572   0.2966
Ce69     Ce     0.4428   0.6843   0.2034
Ce70     Ce     0.4428   0.6843   0.2966
Ce71     Ce     0.3157   0.7585   0.2034
Ce72     Ce     0.3157   0.7585   0.2966
loop_
_geom_bond_atom_site_label_1
_geom_bond_atom_site_label_2
_geom_bond_distance
_geom_bond_site_symmetry_2
_ccdc_geom_bond_type
Ti1     Ti2    9.995   1_455     S
Ti1     Ti3    9.995   1_545     S
Ti1     Ti4    9.998   .     S
Ti1     Ti5    9.998   .     S
Ti1     Er12    10.011   .     S
Ti2     Ti1    9.995   1_655     S
Ti2     Ti3    9.995   1_645     S
Ti2     Ti5    9.998   1_655     S
Ti2     Ti6    9.998   1_545     S
Ti2     Er27    10.011   .     S
Ti3     Ti2    9.995   1_465     S
Ti3     Ti1    9.995   1_565     S
Ti3     Ti6    9.998   1_455     S
Ti3     Ti4    9.998   1_565     S
Ti3     Er18    10.011   .     S
Ti4     Ti3    9.998   1_545     S
Ti4     Ti6    9.995   1_445     S
Ti4     Ti5    9.995   .     S
Ti4     Er66    10.011   .     S
Ti5     Ti2    9.998   1_455     S
Ti5     Ti6    9.995   1_445     S
Ti5     Er51    10.011   .     S
Ti6     Ti3    9.998   1_655     S
Ti6     Ti2    9.998   1_565     S
Ti6     Ti4    9.995   1_665     S
Ti6     Ti5    9.995   1_665     S
Ti6     Er48    10.011   .     S
V7     Er9    10.002   .     S
V7     V8    9.994   .     S
V7     Ce34    10.004   .     S
V8     Er9    10.002   .     S
V8     Ce19    10.004   .     S
Er9     Ti37    10.011   .     S
V10     Er12    10.002   .     S
V10     V11    9.994   .     S
V10     Ce33    10.004   .     S
V11     Er12    10.002   .     S
V11     Ce20    10.004   .     S
V13     Er15    10.002   1_655     S
V13     V14    9.994   1_655     S
V13     Ce32    10.004   .     S
V14     Er15    10.002   .     S
V14     V13    9.994   1_455     S
V14     Ce24    10.004   .     S
Er15     V13    10.002   1_455     S
Er15     Ti39    10.011   .     S
V16     Er18    10.002   1_655     S
V16     V17    9.994   1_655     S
V16     Ce31    10.004   .     S
V17     Er18    10.002   .     S
V17     V16    9.994   1_455     S
V17     Ce23    10.004   .     S
Er18     V16    10.002   1_455     S
Ce19     Ce20    9.995   .     S
Ce19     Ce24    9.997   .     S
Ce19     Ce21    9.997   .     S
Ce20     Ce23    9.997   .     S
Ce20     Ce22    9.997   .     S
Ce21     Ce22    9.995   .     S
Ce21     Ce24    9.997   .     S
Ce21     V29    10.004   .     S
Ce22     Ce23    9.997   .     S
Ce22     V26    10.004   .     S
Ce23     Ce24    9.995   .     S
V25     Er27    10.002   .     S
V25     V26    9.994   1_545     S
V25     Ce36    10.004   .     S
V26     Er27    10.002   1_565     S
V26     V25    9.994   1_565     S
Er27     V26    10.002   1_545     S
V28     Er30    10.002   .     S
V28     V29    9.994   1_545     S
V28     Ce35    10.004   .     S
V29     Er30    10.002   1_565     S
V29     V28    9.994   1_565     S
Er30     V29    10.002   1_545     S
Er30     Ti38    10.011   .     S
Ce31     Ce32    9.995   .     S
Ce31     Ce36    9.997   .     S
Ce31     Ce33    9.997   .     S
Ce32     Ce35    9.997   .     S
Ce32     Ce34    9.997   .     S
Ce33     Ce34    9.995   .     S
Ce33     Ce36    9.997   .     S
Ce34     Ce35    9.997   .     S
Ce35     Ce36    9.995   .     S
Ti37     Ti38    9.995   1_455     S
Ti37     Ti39    9.995   1_545     S
Ti37     Ti41    9.998   1_556     S
Ti37     Ti40    9.998   1_556     S
Ti38     Ti37    9.995   1_655     S
Ti38     Ti39    9.995   1_645     S
Ti38     Ti40    9.998   1_656     S
Ti38     Ti42    9.998   1_546     S
Ti39     Ti38    9.995   1_465     S
Ti39     Ti37    9.995   1_565     S
Ti39     Ti42    9.998   1_456     S
Ti39     Ti41    9.998   1_566     S
Ti40     Ti38    9.998   1_454     S
Ti40     Ti37    9.998   1_554     S
Ti40     Ti41    9.995   .     S
Ti40     Ti42    9.995   1_445     S
Ti40     Er54    10.011   .     S
Ti41     Ti39    9.998   1_544     S
Ti41     Ti37    9.998   1_554     S
Ti41     Ti42    9.995   1_445     S
Ti41     Er63    10.011   .     S
Ti42     Ti39    9.998   1_654     S
Ti42     Ti38    9.998   1_564     S
Ti42     Ti41    9.995   1_665     S
Ti42     Ti40    9.995   1_665     S
Ti42     Er45    10.011   .     S
V43     Er45    10.002   .     S
V43     V44    9.994   .     S
V43     Ce69    10.004   .     S
V44     Er45    10.002   .     S
V44     Ce56    10.004   .     S
V46     Er48    10.002   .     S
V46     V47    9.994   .     S
V46     Ce70    10.004   .     S
V47     Er48    10.002   .     S
V47     Ce55    10.004   .     S
V49     Er51    10.002   1_655     S
V49     V50    9.994   1_655     S
V49     Ce57    10.004   .     S
V50     Er51    10.002   .     S
V50     V49    9.994   1_455     S
V50     Ce68    10.004   .     S
Er51     V49    10.002   1_455     S
V52     Er54    10.002   1_655     S
V52     V53    9.994   1_655     S
V52     Ce58    10.004   .     S
V53     Er54    10.002   .     S
V53     V52    9.994   1_455     S
V53     Ce67    10.004   .     S
Er54     V52    10.002   1_455     S
Ce55     Ce56    9.995   .     S
Ce55     Ce59    9.997   .     S
Ce55     Ce57    9.997   .     S
Ce56     Ce60    9.997   .     S
Ce56     Ce58    9.997   .     S
Ce57     Ce58    9.995   .     S
Ce57     Ce59    9.997   .     S
Ce58     Ce60    9.997   .     S
Ce59     Ce60    9.995   .     S
Ce59     V64    10.004   .     S
Ce60     V61    10.004   .     S
V61     V62    9.994   1_545     S
V61     Er63    10.002   .     S
V62     V61    9.994   1_565     S
V62     Er63    10.002   1_565     S
V62     Ce71    10.004   .     S
Er63     V62    10.002   1_545     S
V64     Er66    10.002   .     S
V64     V65    9.994   1_545     S
V65     Er66    10.002   1_565     S
V65     V64    9.994   1_565     S
V65     Ce72    10.004   .     S
Er66     V65    10.002   1_545     S
Ce67     Ce68    9.995   .     S
Ce67     Ce69    9.997   .     S
Ce67     Ce71    9.997   .     S
Ce68     Ce70    9.997   .     S
Ce68     Ce72    9.997   .     S
Ce69     Ce70    9.995   .     S
Ce69     Ce71    9.997   .     S
Ce70     Ce72    9.997   .     S
Ce71     Ce72    9.995   .     S
