data_ceua
_audit_creation_date              2020-02-04
_audit_creation_method            'Pymatgen'
_symmetry_space_group_name_H-M    'P1'
_symmetry_Int_Tables_number       1
loop_
_symmetry_equiv_pos_as_xyz
  x,y,z
_cell_length_a                    61.4547
_cell_length_b                    61.4547
_cell_length_c                    112.8531
_cell_angle_alpha                 90.0
_cell_angle_beta                 90.0
_cell_angle_gamma                 120.0
loop_
_atom_site_label
_atom_site_type_symbol
_atom_site_fract_x
_atom_site_fract_y
_atom_site_fract_z
Ti1     Ti     0.7448   0.8388   0.7057
Ti2     Ti     0.7448   0.8388   0.7943
Ti3     Ti     0.8388   0.7448   0.7057
Ti4     Ti     0.8388   0.7448   0.7943
Ti5     Ti     0.1612   0.2552   0.2943
Ti6     Ti     0.1612   0.2552   0.2057
Ti7     Ti     0.2552   0.1612   0.2943
Ti8     Ti     0.2552   0.1612   0.2057
Ti9     Ti     0.2552   0.094   0.7057
Ti10     Ti     0.2552   0.094   0.7943
Ti11     Ti     0.1612   0.906   0.7057
Ti12     Ti     0.1612   0.906   0.7943
V13     V     0.3224   0.094   0.3562
Er14     Er     0.4306   0.094   0.4224
V15     V     0.2285   0.906   0.3562
Er16     Er     0.3367   0.906   0.4224
Ce17     Ce     0.5727   0.2394   0.4638
Ce18     Ce     0.6667   0.4273   0.4638
Ce19     Ce     0.7606   0.3333   0.4638
V20     V     0.6776   0.7715   0.3562
Er21     Er     0.5694   0.6633   0.4224
V22     V     0.7715   0.6776   0.3562
Er23     Er     0.6633   0.5694   0.4224
Ce24     Ce     0.4273   0.6667   0.4638
Ce25     Ce     0.3333   0.7606   0.4638
Ce26     Ce     0.2394   0.5727   0.4638
V27     V     0.906   0.2285   0.3562
Er28     Er     0.906   0.3367   0.4224
V29     V     0.094   0.3224   0.3562
Er30     Er     0.094   0.4306   0.4224
V31     V     0.906   0.6776   0.6438
Er32     Er     0.906   0.5694   0.5776
V33     V     0.094   0.7715   0.6438
Er34     Er     0.094   0.6633   0.5776
V35     V     0.7715   0.094   0.6438
Er36     Er     0.6633   0.094   0.5776
V37     V     0.6776   0.906   0.6438
Er38     Er     0.5694   0.906   0.5776
Ce39     Ce     0.2394   0.6667   0.5362
Ce40     Ce     0.4273   0.7606   0.5362
Ce41     Ce     0.3333   0.5727   0.5362
V42     V     0.3224   0.2285   0.6438
Er43     Er     0.4306   0.3367   0.5776
V44     V     0.2285   0.3224   0.6438
Er45     Er     0.3367   0.4306   0.5776
Ce46     Ce     0.5727   0.3333   0.5362
Ce47     Ce     0.6667   0.2394   0.5362
Ce48     Ce     0.7606   0.4273   0.5362
Ti49     Ti     0.906   0.1612   0.7057
Ti50     Ti     0.906   0.1612   0.7943
Ti51     Ti     0.094   0.2552   0.7057
Ti52     Ti     0.094   0.2552   0.7943
Ti53     Ti     0.094   0.8388   0.2943
Ti54     Ti     0.094   0.8388   0.2057
Ti55     Ti     0.906   0.7448   0.2943
Ti56     Ti     0.906   0.7448   0.2057
Ti57     Ti     0.8388   0.094   0.2943
Ti58     Ti     0.8388   0.094   0.2057
Ti59     Ti     0.7448   0.906   0.2943
Ti60     Ti     0.7448   0.906   0.2057
V61     V     0.3224   0.094   0.1438
Er62     Er     0.4306   0.094   0.0776
V63     V     0.2285   0.906   0.1438
Er64     Er     0.3367   0.906   0.0776
Ce65     Ce     0.5727   0.2394   0.0362
Ce66     Ce     0.6667   0.4273   0.0362
Ce67     Ce     0.7606   0.3333   0.0362
V68     V     0.6776   0.7715   0.1438
Er69     Er     0.5694   0.6633   0.0776
V70     V     0.7715   0.6776   0.1438
Er71     Er     0.6633   0.5694   0.0776
Ce72     Ce     0.4273   0.6667   0.0362
Ce73     Ce     0.3333   0.7606   0.0362
Ce74     Ce     0.2394   0.5727   0.0362
V75     V     0.906   0.2285   0.1438
Er76     Er     0.906   0.3367   0.0776
V77     V     0.094   0.3224   0.1438
Er78     Er     0.094   0.4306   0.0776
V79     V     0.906   0.6776   0.8562
Er80     Er     0.906   0.5694   0.9224
V81     V     0.094   0.7715   0.8562
Er82     Er     0.094   0.6633   0.9224
V83     V     0.7715   0.094   0.8562
Er84     Er     0.6633   0.094   0.9224
V85     V     0.6776   0.906   0.8562
Er86     Er     0.5694   0.906   0.9224
Ce87     Ce     0.2394   0.6667   0.9638
Ce88     Ce     0.4273   0.7606   0.9638
Ce89     Ce     0.3333   0.5727   0.9638
V90     V     0.3224   0.2285   0.8562
Er91     Er     0.4306   0.3367   0.9224
V92     V     0.2285   0.3224   0.8562
Er93     Er     0.3367   0.4306   0.9224
Ce94     Ce     0.5727   0.3333   0.9638
Ce95     Ce     0.6667   0.2394   0.9638
Ce96     Ce     0.7606   0.4273   0.9638
loop_
_geom_bond_atom_site_label_1
_geom_bond_atom_site_label_2
_geom_bond_distance
_geom_bond_site_symmetry_2
_ccdc_geom_bond_type
Ti1     Ti2    9.999   .     S
Ti1     Ti3    10.0   .     S
Ti1     V37    10.0   .     S
Ti2     Ti4    10.0   .     S
Ti2     V85    10.0   .     S
Ti3     Ti4    9.999   .     S
Ti3     V31    10.0   .     S
Ti4     V79    10.0   .     S
Ti5     Ti6    9.999   .     S
Ti5     Ti7    10.0   .     S
Ti5     V29    10.0   .     S
Ti6     Ti8    10.0   .     S
Ti6     V77    10.0   .     S
Ti7     Ti8    9.999   .     S
Ti7     V13    10.0   .     S
Ti8     V61    10.0   .     S
Ti9     Ti10    9.999   .     S
Ti9     Ti11    10.0   1_545     S
Ti9     V42    10.0   .     S
Ti10     Ti12    10.0   1_545     S
Ti10     V90    10.0   .     S
Ti11     Ti12    9.999   .     S
Ti11     Ti9    10.0   1_565     S
Ti11     V33    10.0   .     S
Ti12     Ti10    10.0   1_565     S
Ti12     V81    10.0   .     S
V13     Er14    10.0   .     S
V13     V15    10.0   1_545     S
Er14     Er16    10.0   1_545     S
Er14     Ce17    10.0   .     S
V15     Ti53    10.0   .     S
V15     Er16    10.0   .     S
V15     V13    10.0   1_565     S
Er16     Er14    10.0   1_565     S
Er16     Ce25    10.0   .     S
Ce17     Ce46    10.001   .     S
Ce17     Ce47    10.001   .     S
Ce17     Ce18    10.0   .     S
Ce17     Ce19    10.0   .     S
Ce18     Ce48    10.001   .     S
Ce18     Ce46    10.001   .     S
Ce18     Ce19    10.0   .     S
Ce18     Er23    10.0   .     S
Ce19     Ce48    10.001   .     S
Ce19     Ce47    10.001   .     S
Ce19     Er28    10.0   .     S
V20     Ti59    10.0   .     S
V20     Er21    10.0   .     S
V20     V22    10.0   .     S
Er21     Er23    10.0   .     S
Er21     Ce24    10.0   .     S
V22     Ti55    10.0   .     S
V22     Er23    10.0   .     S
Ce24     Ce25    10.0   .     S
Ce24     Ce26    10.0   .     S
Ce24     Ce41    10.001   .     S
Ce24     Ce40    10.001   .     S
Ce25     Ce26    10.0   .     S
Ce25     Ce40    10.001   .     S
Ce25     Ce39    10.001   .     S
Ce26     Er30    10.0   .     S
Ce26     Ce39    10.001   .     S
Ce26     Ce41    10.001   .     S
V27     Ti57    10.0   .     S
V27     Er28    10.0   .     S
V27     V29    10.0   1_655     S
Er28     Er30    10.0   1_655     S
V29     Er30    10.0   .     S
V29     V27    10.0   1_455     S
Er30     Er28    10.0   1_455     S
V31     Er32    10.0   .     S
V31     V33    10.0   1_655     S
Er32     Er34    10.0   1_655     S
Er32     Ce48    10.0   .     S
V33     Er34    10.0   .     S
V33     V31    10.0   1_455     S
Er34     Er32    10.0   1_455     S
Er34     Ce39    10.0   .     S
V35     Ti49    10.0   .     S
V35     Er36    10.0   .     S
V35     V37    10.0   1_545     S
Er36     Er38    10.0   1_545     S
Er36     Ce47    10.0   .     S
V37     Er38    10.0   .     S
V37     V35    10.0   1_565     S
Er38     Er36    10.0   1_565     S
Er38     Ce40    10.0   .     S
Ce39     Ce40    10.0   .     S
Ce39     Ce41    10.0   .     S
Ce40     Ce41    10.0   .     S
Ce41     Er45    10.0   .     S
V42     Er43    10.0   .     S
V42     V44    10.0   .     S
Er43     Er45    10.0   .     S
Er43     Ce46    10.0   .     S
V44     Ti51    10.0   .     S
V44     Er45    10.0   .     S
Ce46     Ce47    10.0   .     S
Ce46     Ce48    10.0   .     S
Ce47     Ce48    10.0   .     S
Ti49     Ti50    9.999   .     S
Ti49     Ti51    10.0   1_655     S
Ti50     Ti52    10.0   1_655     S
Ti50     V83    10.0   .     S
Ti51     Ti52    9.999   .     S
Ti51     Ti49    10.0   1_455     S
Ti52     Ti50    10.0   1_455     S
Ti52     V92    10.0   .     S
Ti53     Ti54    9.999   .     S
Ti53     Ti55    10.0   1_455     S
Ti54     Ti56    10.0   1_455     S
Ti54     V63    10.0   .     S
Ti55     Ti56    9.999   .     S
Ti55     Ti53    10.0   1_655     S
Ti56     Ti54    10.0   1_655     S
Ti56     V70    10.0   .     S
Ti57     Ti58    9.999   .     S
Ti57     Ti59    10.0   1_545     S
Ti58     Ti60    10.0   1_545     S
Ti58     V75    10.0   .     S
Ti59     Ti60    9.999   .     S
Ti59     Ti57    10.0   1_565     S
Ti60     Ti58    10.0   1_565     S
Ti60     V68    10.0   .     S
V61     Er62    10.0   .     S
V61     V63    10.0   1_545     S
Er62     Er64    10.0   1_545     S
Er62     Ce65    10.0   .     S
V63     Er64    10.0   .     S
V63     V61    10.0   1_565     S
Er64     Er62    10.0   1_565     S
Er64     Ce73    10.0   .     S
Ce65     Ce94    10.001   1_554     S
Ce65     Ce95    10.001   1_554     S
Ce65     Ce66    10.0   .     S
Ce65     Ce67    10.0   .     S
Ce66     Ce96    10.001   1_554     S
Ce66     Ce94    10.001   1_554     S
Ce66     Ce67    10.0   .     S
Ce66     Er71    10.0   .     S
Ce67     Ce96    10.001   1_554     S
Ce67     Ce95    10.001   1_554     S
Ce67     Er76    10.0   .     S
V68     Er69    10.0   .     S
V68     V70    10.0   .     S
Er69     Er71    10.0   .     S
Er69     Ce72    10.0   .     S
V70     Er71    10.0   .     S
Ce72     Ce73    10.0   .     S
Ce72     Ce74    10.0   .     S
Ce72     Ce89    10.001   1_554     S
Ce72     Ce88    10.001   1_554     S
Ce73     Ce74    10.0   .     S
Ce73     Ce88    10.001   1_554     S
Ce73     Ce87    10.001   1_554     S
Ce74     Er78    10.0   .     S
Ce74     Ce87    10.001   1_554     S
Ce74     Ce89    10.001   1_554     S
V75     Er76    10.0   .     S
V75     V77    10.0   1_655     S
Er76     Er78    10.0   1_655     S
V77     Er78    10.0   .     S
V77     V75    10.0   1_455     S
Er78     Er76    10.0   1_455     S
V79     Er80    10.0   .     S
V79     V81    10.0   1_655     S
Er80     Er82    10.0   1_655     S
Er80     Ce96    10.0   .     S
V81     Er82    10.0   .     S
V81     V79    10.0   1_455     S
Er82     Er80    10.0   1_455     S
Er82     Ce87    10.0   .     S
V83     Er84    10.0   .     S
V83     V85    10.0   1_545     S
Er84     Er86    10.0   1_545     S
Er84     Ce95    10.0   .     S
V85     Er86    10.0   .     S
V85     V83    10.0   1_565     S
Er86     Er84    10.0   1_565     S
Er86     Ce88    10.0   .     S
Ce87     Ce74    10.001   1_556     S
Ce87     Ce73    10.001   1_556     S
Ce87     Ce88    10.0   .     S
Ce87     Ce89    10.0   .     S
Ce88     Ce73    10.001   1_556     S
Ce88     Ce72    10.001   1_556     S
Ce88     Ce89    10.0   .     S
Ce89     Ce72    10.001   1_556     S
Ce89     Ce74    10.001   1_556     S
Ce89     Er93    10.0   .     S
V90     Er91    10.0   .     S
V90     V92    10.0   .     S
Er91     Er93    10.0   .     S
Er91     Ce94    10.0   .     S
V92     Er93    10.0   .     S
Ce94     Ce66    10.001   1_556     S
Ce94     Ce65    10.001   1_556     S
Ce94     Ce95    10.0   .     S
Ce94     Ce96    10.0   .     S
Ce95     Ce67    10.001   1_556     S
Ce95     Ce65    10.001   1_556     S
Ce95     Ce96    10.0   .     S
Ce96     Ce67    10.001   1_556     S
Ce96     Ce66    10.001   1_556     S
