data_cewa
_audit_creation_date              2020-02-04
_audit_creation_method            'Pymatgen'
_symmetry_space_group_name_H-M    'P1'
_symmetry_Int_Tables_number       1
loop_
_symmetry_equiv_pos_as_xyz
  x,y,z
_cell_length_a                    83.9056
_cell_length_b                    83.9056
_cell_length_c                    63.0661
_cell_angle_alpha                 90.0
_cell_angle_beta                 90.0
_cell_angle_gamma                 120.0
loop_
_atom_site_label
_atom_site_type_symbol
_atom_site_fract_x
_atom_site_fract_y
_atom_site_fract_z
Ti1     Ti     0.9312   0.3045   0.5793
Ti2     Ti     0.9312   0.3045   0.4207
Ti3     Ti     0.0688   0.3733   0.4207
Ti4     Ti     0.0688   0.3733   0.5793
Ti5     Ti     0.0688   0.6955   0.5793
Ti6     Ti     0.0688   0.6955   0.4207
Ti7     Ti     0.9312   0.6267   0.4207
Ti8     Ti     0.9312   0.6267   0.5793
Ti9     Ti     0.6955   0.0688   0.4207
Ti10     Ti     0.6955   0.0688   0.5793
Ti11     Ti     0.6267   0.9312   0.5793
Ti12     Ti     0.6267   0.9312   0.4207
Ti13     Ti     0.3733   0.0688   0.5793
Ti14     Ti     0.3733   0.0688   0.4207
Ti15     Ti     0.3045   0.9312   0.4207
Ti16     Ti     0.3045   0.9312   0.5793
Ti17     Ti     0.3733   0.3045   0.4207
Ti18     Ti     0.3733   0.3045   0.5793
Ti19     Ti     0.3045   0.3733   0.4207
Ti20     Ti     0.3045   0.3733   0.5793
Ti21     Ti     0.6267   0.6955   0.4207
Ti22     Ti     0.6267   0.6955   0.5793
Ti23     Ti     0.6955   0.6267   0.4207
Ti24     Ti     0.6955   0.6267   0.5793
V25     V     0.8518   0.5845   0.7088
V26     V     0.7327   0.5845   0.7088
V27     V     0.7327   0.5845   0.2912
V28     V     0.5845   0.8518   0.7088
V29     V     0.8518   0.5845   0.2912
V30     V     0.5845   0.7327   0.7088
V31     V     0.1482   0.4155   0.7088
V32     V     0.4155   0.2673   0.7088
V33     V     0.2673   0.4155   0.7088
V34     V     0.5845   0.8518   0.2912
V35     V     0.4155   0.1482   0.7088
V36     V     0.5845   0.7327   0.2912
V37     V     0.2673   0.4155   0.2912
V38     V     0.4155   0.2673   0.2912
V39     V     0.1482   0.4155   0.2912
V40     V     0.4155   0.1482   0.2912
V41     V     0.7327   0.1482   0.7088
V42     V     0.8518   0.2673   0.7088
V43     V     0.2673   0.8518   0.7088
V44     V     0.1482   0.7327   0.7088
V45     V     0.7327   0.1482   0.2912
V46     V     0.8518   0.2673   0.2912
V47     V     0.2673   0.8518   0.2912
V48     V     0.1482   0.7327   0.2912
Er49     Er     0.2884   0.8307   0.1403
Er50     Er     0.1693   0.7116   0.1403
Er51     Er     0.4577   0.1693   0.1403
Er52     Er     0.4577   0.2884   0.1403
Er53     Er     0.4577   0.1693   0.8597
Er54     Er     0.4577   0.2884   0.8597
Er55     Er     0.5423   0.8307   0.1403
Er56     Er     0.5423   0.7116   0.1403
Er57     Er     0.5423   0.8307   0.8597
Er58     Er     0.5423   0.7116   0.8597
Ce59     Ce     0.4748   0.0688   0.0793
Ce60     Ce     0.4748   0.0688   0.9207
Ce61     Ce     0.594   0.0688   0.0793
Ce62     Ce     0.594   0.0688   0.9207
Ce63     Ce     0.5252   0.9312   0.0793
Ce64     Ce     0.5252   0.9312   0.9207
Ce65     Ce     0.406   0.9312   0.0793
Ce66     Ce     0.406   0.9312   0.9207
Er67     Er     0.2884   0.8307   0.8597
Er68     Er     0.1693   0.7116   0.8597
Ce69     Ce     0.406   0.4748   0.0793
Ce70     Ce     0.406   0.4748   0.9207
Ce71     Ce     0.5252   0.594   0.0793
Ce72     Ce     0.5252   0.594   0.9207
Ce73     Ce     0.594   0.5252   0.0793
Ce74     Ce     0.594   0.5252   0.9207
Ce75     Ce     0.4748   0.406   0.0793
Ce76     Ce     0.4748   0.406   0.9207
Er77     Er     0.8307   0.2884   0.1403
Er78     Er     0.7116   0.1693   0.1403
Er79     Er     0.8307   0.5423   0.1403
Er80     Er     0.7116   0.5423   0.1403
Er81     Er     0.8307   0.5423   0.8597
Er82     Er     0.7116   0.5423   0.8597
Er83     Er     0.1693   0.4577   0.1403
Er84     Er     0.2884   0.4577   0.1403
Er85     Er     0.8307   0.2884   0.8597
Er86     Er     0.7116   0.1693   0.8597
Er87     Er     0.1693   0.4577   0.8597
Er88     Er     0.2884   0.4577   0.8597
Ce89     Ce     0.9312   0.5252   0.0793
Ce90     Ce     0.9312   0.5252   0.9207
Ce91     Ce     0.9312   0.406   0.0793
Ce92     Ce     0.9312   0.406   0.9207
Ce93     Ce     0.0688   0.4748   0.0793
Ce94     Ce     0.0688   0.4748   0.9207
Ce95     Ce     0.0688   0.594   0.0793
Ce96     Ce     0.0688   0.594   0.9207
loop_
_geom_bond_atom_site_label_1
_geom_bond_atom_site_label_2
_geom_bond_distance
_geom_bond_site_symmetry_2
_ccdc_geom_bond_type
Ti1     Ti2    10.0   .     S
Ti1     Ti4    10.0   1_655     S
Ti1     V42    10.0   .     S
Ti2     Ti3    10.0   1_655     S
Ti2     V46    10.0   .     S
Ti3     Ti4    10.0   .     S
Ti3     Ti2    10.0   1_455     S
Ti3     V39    10.0   .     S
Ti4     Ti1    10.0   1_455     S
Ti4     V31    10.0   .     S
Ti5     Ti6    10.0   .     S
Ti5     Ti8    10.0   1_455     S
Ti5     V44    10.0   .     S
Ti6     Ti7    10.0   1_455     S
Ti6     V48    10.0   .     S
Ti7     Ti8    10.0   .     S
Ti7     Ti6    10.0   1_655     S
Ti7     V29    10.0   .     S
Ti8     Ti5    10.0   1_655     S
Ti8     V25    10.0   .     S
Ti9     Ti10    10.0   .     S
Ti9     Ti12    10.0   1_545     S
Ti9     V45    10.0   .     S
Ti10     Ti11    10.0   1_545     S
Ti10     V41    10.0   .     S
Ti11     Ti12    10.0   .     S
Ti11     Ti10    10.0   1_565     S
Ti11     V28    10.0   .     S
Ti12     Ti9    10.0   1_565     S
Ti12     V34    10.0   .     S
Ti13     Ti14    10.0   .     S
Ti13     Ti16    10.0   1_545     S
Ti13     V35    10.0   .     S
Ti14     Ti15    10.0   1_545     S
Ti14     V40    10.0   .     S
Ti15     Ti16    10.0   .     S
Ti15     Ti14    10.0   1_565     S
Ti15     V47    10.0   .     S
Ti16     Ti13    10.0   1_565     S
Ti16     V43    10.0   .     S
Ti17     Ti18    10.0   .     S
Ti17     Ti19    10.0   .     S
Ti17     V38    10.0   .     S
Ti18     Ti20    10.0   .     S
Ti18     V32    10.0   .     S
Ti19     Ti20    10.0   .     S
Ti19     V37    10.0   .     S
Ti20     V33    10.0   .     S
Ti21     Ti22    10.0   .     S
Ti21     Ti23    10.0   .     S
Ti21     V36    10.0   .     S
Ti22     Ti24    10.0   .     S
Ti22     V30    10.0   .     S
Ti23     Ti24    10.0   .     S
Ti23     V27    10.0   .     S
Ti24     V26    10.0   .     S
V25     Er81    10.0   .     S
V25     V26    10.001   .     S
V26     Er82    10.0   .     S
V27     Er80    10.0   .     S
V27     V29    10.001   .     S
V28     Er57    10.0   .     S
V28     V30    10.001   .     S
V29     Er79    10.0   .     S
V30     Er58    10.0   .     S
V31     Er87    10.0   .     S
V31     V33    10.001   .     S
V32     Er54    10.0   .     S
V32     V35    10.001   .     S
V33     Er88    10.0   .     S
V34     Er55    10.0   .     S
V34     V36    10.001   .     S
V35     Er53    10.0   .     S
V36     Er56    10.0   .     S
V37     Er84    10.0   .     S
V37     V39    10.001   .     S
V38     Er52    10.0   .     S
V38     V40    10.001   .     S
V39     Er83    10.0   .     S
V40     Er51    10.0   .     S
V41     Er86    10.0   .     S
V41     V42    10.001   .     S
V42     Er85    10.0   .     S
V43     Er67    10.0   .     S
V43     V44    10.001   .     S
V44     Er68    10.0   .     S
V45     Er78    10.0   .     S
V45     V46    10.001   .     S
V46     Er77    10.0   .     S
V47     Er49    10.0   .     S
V47     V48    10.001   .     S
V48     Er50    10.0   .     S
Er49     Ce65    10.0   .     S
Er49     Er50    10.001   .     S
Er50     Ce95    10.0   .     S
Er51     Ce59    10.0   .     S
Er51     Er52    10.001   .     S
Er52     Ce75    10.0   .     S
Er53     Ce60    10.0   .     S
Er53     Er54    10.001   .     S
Er54     Ce76    10.0   .     S
Er55     Ce63    10.0   .     S
Er55     Er56    10.001   .     S
Er56     Ce71    10.0   .     S
Er57     Ce64    10.0   .     S
Er57     Er58    10.001   .     S
Er58     Ce72    10.0   .     S
Ce59     Ce60    10.0   1_554     S
Ce59     Ce61    10.001   .     S
Ce59     Ce65    10.0   1_545     S
Ce60     Ce62    10.001   .     S
Ce60     Ce59    10.0   1_556     S
Ce60     Ce66    10.0   1_545     S
Ce61     Ce62    10.0   1_554     S
Ce61     Ce63    10.0   1_545     S
Ce61     Er78    10.0   .     S
Ce62     Ce61    10.0   1_556     S
Ce62     Ce64    10.0   1_545     S
Ce62     Er86    10.0   .     S
Ce63     Ce64    10.0   1_554     S
Ce63     Ce65    10.001   .     S
Ce63     Ce61    10.0   1_565     S
Ce64     Ce63    10.0   1_556     S
Ce64     Ce66    10.001   .     S
Ce64     Ce62    10.0   1_565     S
Ce65     Ce66    10.0   1_554     S
Ce65     Ce59    10.0   1_565     S
Ce66     Ce65    10.0   1_556     S
Ce66     Ce60    10.0   1_565     S
Ce66     Er67    10.0   .     S
Er67     Er68    10.001   .     S
Er68     Ce96    10.0   .     S
Ce69     Ce70    10.0   1_554     S
Ce69     Ce71    10.001   .     S
Ce69     Ce75    10.0   .     S
Ce69     Er84    10.0   .     S
Ce70     Ce69    10.0   1_556     S
Ce70     Ce72    10.001   .     S
Ce70     Ce76    10.0   .     S
Ce70     Er88    10.0   .     S
Ce71     Ce72    10.0   1_554     S
Ce71     Ce73    10.0   .     S
Ce72     Ce71    10.0   1_556     S
Ce72     Ce74    10.0   .     S
Ce73     Ce74    10.0   1_554     S
Ce73     Ce75    10.001   .     S
Ce73     Er80    10.0   .     S
Ce74     Ce73    10.0   1_556     S
Ce74     Ce76    10.001   .     S
Ce74     Er82    10.0   .     S
Ce75     Ce76    10.0   1_554     S
Ce76     Ce75    10.0   1_556     S
Er77     Ce91    10.0   .     S
Er77     Er78    10.001   .     S
Er79     Ce89    10.0   .     S
Er79     Er80    10.001   .     S
Er81     Ce90    10.0   .     S
Er81     Er82    10.001   .     S
Er83     Ce93    10.0   .     S
Er83     Er84    10.001   .     S
Er85     Ce92    10.0   .     S
Er85     Er86    10.001   .     S
Er87     Ce94    10.0   .     S
Er87     Er88    10.001   .     S
Ce89     Ce90    10.0   1_554     S
Ce89     Ce91    10.001   .     S
Ce89     Ce95    10.0   1_655     S
Ce90     Ce89    10.0   1_556     S
Ce90     Ce92    10.001   .     S
Ce90     Ce96    10.0   1_655     S
Ce91     Ce92    10.0   1_554     S
Ce91     Ce93    10.0   1_655     S
Ce92     Ce91    10.0   1_556     S
Ce92     Ce94    10.0   1_655     S
Ce93     Ce94    10.0   1_554     S
Ce93     Ce95    10.001   .     S
Ce93     Ce91    10.0   1_455     S
Ce94     Ce93    10.0   1_556     S
Ce94     Ce96    10.001   .     S
Ce94     Ce92    10.0   1_455     S
Ce95     Ce96    10.0   1_554     S
Ce95     Ce89    10.0   1_455     S
Ce96     Ce95    10.0   1_556     S
Ce96     Ce90    10.0   1_455     S
