data_cexa
_audit_creation_date              2020-02-04
_audit_creation_method            'Pymatgen'
_symmetry_space_group_name_H-M    'P1'
_symmetry_Int_Tables_number       1
loop_
_symmetry_equiv_pos_as_xyz
  x,y,z
_cell_length_a                    78.7347
_cell_length_b                    78.7347
_cell_length_c                    63.5326
_cell_angle_alpha                 90.0
_cell_angle_beta                 90.0
_cell_angle_gamma                 120.0
loop_
_atom_site_label
_atom_site_type_symbol
_atom_site_fract_x
_atom_site_fract_y
_atom_site_fract_z
Ti1     Ti     0.5397   0.3333   0.0787
Ti2     Ti     0.6667   0.4603   0.0787
Ti3     Ti     0.5397   0.3333   0.9213
Ti4     Ti     0.6667   0.4603   0.9213
Ti5     Ti     0.4603   0.7937   0.0787
Ti6     Ti     0.3333   0.7937   0.0787
Ti7     Ti     0.3333   0.7937   0.9213
Ti8     Ti     0.4603   0.7937   0.9213
Ti9     Ti     0.5397   0.2063   0.0787
Ti10     Ti     0.6667   0.2063   0.0787
Ti11     Ti     0.5397   0.2063   0.9213
Ti12     Ti     0.6667   0.2063   0.9213
Ti13     Ti     0.2063   0.6667   0.0787
Ti14     Ti     0.2063   0.5397   0.0787
Ti15     Ti     0.2063   0.5397   0.9213
Ti16     Ti     0.2063   0.6667   0.9213
Ti17     Ti     0.3333   0.5397   0.0787
Ti18     Ti     0.4603   0.6667   0.0787
Ti19     Ti     0.4603   0.6667   0.9213
Ti20     Ti     0.3333   0.5397   0.9213
Ti21     Ti     0.7937   0.3333   0.0787
Ti22     Ti     0.7937   0.4603   0.0787
Ti23     Ti     0.7937   0.4603   0.9213
Ti24     Ti     0.7937   0.3333   0.9213
Er25     Er     0.0733   0.4559   0.8585
Er26     Er     0.9267   0.3826   0.8585
Er27     Er     0.6174   0.5441   0.8585
Er28     Er     0.5441   0.6174   0.8585
Er29     Er     0.6174   0.0733   0.8585
Er30     Er     0.5441   0.9267   0.8585
Er31     Er     0.3826   0.4559   0.8585
Er32     Er     0.4559   0.3826   0.8585
Er33     Er     0.0733   0.6174   0.8585
Er34     Er     0.9267   0.5441   0.8585
Er35     Er     0.4559   0.0733   0.8585
Er36     Er     0.3826   0.9267   0.8585
Er37     Er     0.0733   0.4559   0.1415
Er38     Er     0.9267   0.3826   0.1415
Er39     Er     0.6174   0.5441   0.1415
Er40     Er     0.5441   0.6174   0.1415
Er41     Er     0.0733   0.6174   0.1415
Er42     Er     0.9267   0.5441   0.1415
Er43     Er     0.3826   0.4559   0.1415
Er44     Er     0.4559   0.3826   0.1415
Er45     Er     0.6174   0.0733   0.1415
Er46     Er     0.5441   0.9267   0.1415
Er47     Er     0.4559   0.0733   0.1415
Er48     Er     0.3826   0.9267   0.1415
V49     V     0.5848   0.9267   0.2906
Ce50     Ce     0.5842   0.8556   0.4213
Ce51     Ce     0.5842   0.7286   0.4213
V52     V     0.5848   0.6581   0.2906
V53     V     0.5848   0.6581   0.7094
V54     V     0.5848   0.9267   0.7094
Ce55     Ce     0.5842   0.7286   0.5787
Ce56     Ce     0.5842   0.8556   0.5787
V57     V     0.9267   0.3419   0.2906
V58     V     0.6581   0.0733   0.2906
Ce59     Ce     0.8556   0.2714   0.4213
Ce60     Ce     0.7286   0.1444   0.4213
V61     V     0.6581   0.0733   0.7094
Ce62     Ce     0.8556   0.2714   0.5787
Ce63     Ce     0.7286   0.1444   0.5787
V64     V     0.9267   0.3419   0.7094
V65     V     0.9267   0.5848   0.2906
Ce66     Ce     0.8556   0.5842   0.4213
Ce67     Ce     0.7286   0.5842   0.4213
V68     V     0.6581   0.5848   0.2906
V69     V     0.9267   0.5848   0.7094
Ce70     Ce     0.8556   0.5842   0.5787
Ce71     Ce     0.7286   0.5842   0.5787
V72     V     0.6581   0.5848   0.7094
V73     V     0.3419   0.4152   0.2906
V74     V     0.0733   0.4152   0.2906
Ce75     Ce     0.2714   0.4158   0.4213
Ce76     Ce     0.1444   0.4158   0.4213
V77     V     0.3419   0.4152   0.7094
Ce78     Ce     0.2714   0.4158   0.5787
Ce79     Ce     0.1444   0.4158   0.5787
V80     V     0.0733   0.4152   0.7094
V81     V     0.0733   0.6581   0.2906
Ce82     Ce     0.2714   0.8556   0.4213
Ce83     Ce     0.1444   0.7286   0.4213
V84     V     0.3419   0.9267   0.2906
V85     V     0.3419   0.9267   0.7094
Ce86     Ce     0.2714   0.8556   0.5787
Ce87     Ce     0.1444   0.7286   0.5787
V88     V     0.0733   0.6581   0.7094
V89     V     0.4152   0.3419   0.2906
V90     V     0.4152   0.0733   0.2906
Ce91     Ce     0.4158   0.2714   0.4213
Ce92     Ce     0.4158   0.1444   0.4213
V93     V     0.4152   0.3419   0.7094
Ce94     Ce     0.4158   0.2714   0.5787
Ce95     Ce     0.4158   0.1444   0.5787
V96     V     0.4152   0.0733   0.7094
loop_
_geom_bond_atom_site_label_1
_geom_bond_atom_site_label_2
_geom_bond_distance
_geom_bond_site_symmetry_2
_ccdc_geom_bond_type
Ti1     Ti2    9.999   .     S
Ti1     Er44    10.0   .     S
Ti1     Ti3    10.0   1_554     S
Ti1     Ti9    10.001   .     S
Ti2     Er39    10.0   .     S
Ti2     Ti4    10.0   1_554     S
Ti2     Ti22    10.001   .     S
Ti3     Ti4    9.999   .     S
Ti3     Er32    10.0   .     S
Ti3     Ti1    10.0   1_556     S
Ti3     Ti11    10.001   .     S
Ti4     Er27    10.0   .     S
Ti4     Ti2    10.0   1_556     S
Ti4     Ti23    10.001   .     S
Ti5     Ti6    9.999   .     S
Ti5     Er46    10.0   .     S
Ti5     Ti8    10.0   1_554     S
Ti5     Ti18    10.001   .     S
Ti6     Er48    10.0   .     S
Ti6     Ti7    10.0   1_554     S
Ti6     Ti13    10.001   .     S
Ti7     Ti8    9.999   .     S
Ti7     Er36    10.0   .     S
Ti7     Ti6    10.0   1_556     S
Ti7     Ti16    10.001   .     S
Ti8     Er30    10.0   .     S
Ti8     Ti5    10.0   1_556     S
Ti8     Ti19    10.001   .     S
Ti9     Ti10    9.999   .     S
Ti9     Er47    10.0   .     S
Ti9     Ti11    10.0   1_554     S
Ti10     Er45    10.0   .     S
Ti10     Ti12    10.0   1_554     S
Ti10     Ti21    10.001   .     S
Ti11     Ti12    9.999   .     S
Ti11     Er35    10.0   .     S
Ti11     Ti9    10.0   1_556     S
Ti12     Er29    10.0   .     S
Ti12     Ti10    10.0   1_556     S
Ti12     Ti24    10.001   .     S
Ti13     Ti14    9.999   .     S
Ti13     Er41    10.0   .     S
Ti13     Ti16    10.0   1_554     S
Ti14     Er37    10.0   .     S
Ti14     Ti15    10.0   1_554     S
Ti14     Ti17    10.001   .     S
Ti15     Ti16    9.999   .     S
Ti15     Er25    10.0   .     S
Ti15     Ti14    10.0   1_556     S
Ti15     Ti20    10.001   .     S
Ti16     Er33    10.0   .     S
Ti16     Ti13    10.0   1_556     S
Ti17     Ti18    9.999   .     S
Ti17     Er43    10.0   .     S
Ti17     Ti20    10.0   1_554     S
Ti18     Er40    10.0   .     S
Ti18     Ti19    10.0   1_554     S
Ti19     Ti20    9.999   .     S
Ti19     Er28    10.0   .     S
Ti19     Ti18    10.0   1_556     S
Ti20     Er31    10.0   .     S
Ti20     Ti17    10.0   1_556     S
Ti21     Ti22    9.999   .     S
Ti21     Er38    10.0   .     S
Ti21     Ti24    10.0   1_554     S
Ti22     Er42    10.0   .     S
Ti22     Ti23    10.0   1_554     S
Ti23     Ti24    9.999   .     S
Ti23     Er34    10.0   .     S
Ti23     Ti22    10.0   1_556     S
Ti24     Er26    10.0   .     S
Ti24     Ti21    10.0   1_556     S
Er25     Er26    10.0   1_455     S
Er25     V80    10.0   .     S
Er26     Er25    10.0   1_655     S
Er26     V64    10.0   .     S
Er27     Er28    10.0   .     S
Er27     V72    10.0   .     S
Er28     V53    10.0   .     S
Er29     Er30    10.0   1_545     S
Er29     V61    10.0   .     S
Er30     Er29    10.0   1_565     S
Er30     V54    10.0   .     S
Er31     Er32    10.0   .     S
Er31     V77    10.0   .     S
Er32     V93    10.0   .     S
Er33     Er34    10.0   1_455     S
Er33     V88    10.0   .     S
Er34     Er33    10.0   1_655     S
Er34     V69    10.0   .     S
Er35     Er36    10.0   1_545     S
Er35     V96    10.0   .     S
Er36     Er35    10.0   1_565     S
Er36     V85    10.0   .     S
Er37     Er38    10.0   1_455     S
Er37     V74    10.0   .     S
Er38     Er37    10.0   1_655     S
Er38     V57    10.0   .     S
Er39     Er40    10.0   .     S
Er39     V68    10.0   .     S
Er40     V52    10.0   .     S
Er41     Er42    10.0   1_455     S
Er41     V81    10.0   .     S
Er42     Er41    10.0   1_655     S
Er42     V65    10.0   .     S
Er43     Er44    10.0   .     S
Er43     V73    10.0   .     S
Er44     V89    10.0   .     S
Er45     Er46    10.0   1_545     S
Er45     V58    10.0   .     S
Er46     Er45    10.0   1_565     S
Er46     V49    10.0   .     S
Er47     Er48    10.0   1_545     S
Er47     V90    10.0   .     S
Er48     Er47    10.0   1_565     S
Er48     V84    10.0   .     S
V49     Ce50    10.0   .     S
V49     V58    10.0   1_565     S
Ce50     Ce51    9.999   .     S
Ce50     Ce56    10.0   .     S
Ce51     V52    10.0   .     S
Ce51     Ce55    10.0   .     S
V52     V68    10.0   .     S
V53     Ce55    10.0   .     S
V53     V72    10.0   .     S
V54     Ce56    10.0   .     S
V54     V61    10.0   1_565     S
Ce55     Ce56    9.999   .     S
V57     Ce59    10.0   .     S
V57     V74    10.0   1_655     S
V58     Ce60    10.0   .     S
V58     V49    10.0   1_545     S
Ce59     Ce60    9.999   .     S
Ce59     Ce62    10.0   .     S
Ce60     Ce63    10.0   .     S
V61     Ce63    10.0   .     S
V61     V54    10.0   1_545     S
Ce62     Ce63    9.999   .     S
Ce62     V64    10.0   .     S
V64     V80    10.0   1_655     S
V65     Ce66    10.0   .     S
V65     V81    10.0   1_655     S
Ce66     Ce67    9.999   .     S
Ce66     Ce70    10.0   .     S
Ce67     V68    10.0   .     S
Ce67     Ce71    10.0   .     S
V69     Ce70    10.0   .     S
V69     V88    10.0   1_655     S
Ce70     Ce71    9.999   .     S
Ce71     V72    10.0   .     S
V73     Ce75    10.0   .     S
V73     V89    10.0   .     S
V74     Ce76    10.0   .     S
V74     V57    10.0   1_455     S
Ce75     Ce76    9.999   .     S
Ce75     Ce78    10.0   .     S
Ce76     Ce79    10.0   .     S
V77     Ce78    10.0   .     S
V77     V93    10.0   .     S
Ce78     Ce79    9.999   .     S
Ce79     V80    10.0   .     S
V80     V64    10.0   1_455     S
V81     Ce83    10.0   .     S
V81     V65    10.0   1_455     S
Ce82     Ce83    9.999   .     S
Ce82     V84    10.0   .     S
Ce82     Ce86    10.0   .     S
Ce83     Ce87    10.0   .     S
V84     V90    10.0   1_565     S
V85     Ce86    10.0   .     S
V85     V96    10.0   1_565     S
Ce86     Ce87    9.999   .     S
Ce87     V88    10.0   .     S
V88     V69    10.0   1_455     S
V89     Ce91    10.0   .     S
V90     Ce92    10.0   .     S
V90     V84    10.0   1_545     S
Ce91     Ce92    9.999   .     S
Ce91     Ce94    10.0   .     S
Ce92     Ce95    10.0   .     S
V93     Ce94    10.0   .     S
Ce94     Ce95    9.999   .     S
Ce95     V96    10.0   .     S
V96     V85    10.0   1_545     S
