data_ceza
_audit_creation_date              2020-02-04
_audit_creation_method            'Pymatgen'
_symmetry_space_group_name_H-M    'P1'
_symmetry_Int_Tables_number       1
loop_
_symmetry_equiv_pos_as_xyz
  x,y,z
_cell_length_a                    68.9927
_cell_length_b                    68.9927
_cell_length_c                    54.4604
_cell_angle_alpha                 90.0
_cell_angle_beta                 90.0
_cell_angle_gamma                 120.0
loop_
_atom_site_label
_atom_site_type_symbol
_atom_site_fract_x
_atom_site_fract_y
_atom_site_fract_z
Ti1     Ti     0.5758   0.5071   0.0918
Ti2     Ti     0.5758   0.5071   0.9082
Ti3     Ti     0.4242   0.4929   0.0918
Ti4     Ti     0.4242   0.4929   0.9082
Ti5     Ti     0.5758   0.0687   0.4082
Ti6     Ti     0.5758   0.0687   0.5918
Ti7     Ti     0.4242   0.9313   0.4082
Ti8     Ti     0.4242   0.9313   0.5918
Ti9     Ti     0.5071   0.9313   0.0918
Ti10     Ti     0.5071   0.9313   0.9082
Ti11     Ti     0.4929   0.0687   0.0918
Ti12     Ti     0.4929   0.0687   0.9082
Er13     Er     0.8328   0.6657   0.25
V14     V     0.701   0.521   0.1974
V15     V     0.82   0.521   0.3026
Er16     Er     0.8328   0.1672   0.25
V17     V     0.82   0.299   0.1974
V18     V     0.701   0.18   0.3026
Er19     Er     0.1672   0.3343   0.25
V20     V     0.299   0.479   0.1974
V21     V     0.18   0.479   0.3026
Er22     Er     0.3343   0.1672   0.25
V23     V     0.479   0.18   0.1974
V24     V     0.479   0.299   0.3026
Er25     Er     0.6657   0.8328   0.25
V26     V     0.521   0.82   0.1974
V27     V     0.521   0.701   0.3026
Er28     Er     0.1672   0.8328   0.25
V29     V     0.299   0.82   0.3026
V30     V     0.18   0.701   0.1974
Ce31     Ce     0.0836   0.9164   0.25
Ce32     Ce     0.8328   0.9164   0.25
Ce33     Ce     0.9164   0.8328   0.25
Ce34     Ce     0.0836   0.1672   0.25
Ce35     Ce     0.1672   0.0836   0.25
Ce36     Ce     0.9164   0.0836   0.25
Ti37     Ti     0.5071   0.5758   0.4082
Ti38     Ti     0.5071   0.5758   0.5918
Ti39     Ti     0.4929   0.4242   0.4082
Ti40     Ti     0.4929   0.4242   0.5918
Ti41     Ti     0.9313   0.5071   0.4082
Ti42     Ti     0.9313   0.5071   0.5918
Ti43     Ti     0.0687   0.4929   0.4082
Ti44     Ti     0.0687   0.4929   0.5918
Er45     Er     0.8328   0.6657   0.75
V46     V     0.701   0.521   0.8026
V47     V     0.82   0.521   0.6974
Er48     Er     0.8328   0.1672   0.75
V49     V     0.82   0.299   0.8026
V50     V     0.701   0.18   0.6974
Er51     Er     0.1672   0.3343   0.75
V52     V     0.299   0.479   0.8026
V53     V     0.18   0.479   0.6974
Er54     Er     0.3343   0.1672   0.75
V55     V     0.479   0.18   0.8026
V56     V     0.479   0.299   0.6974
Er57     Er     0.6657   0.8328   0.75
V58     V     0.521   0.82   0.8026
V59     V     0.521   0.701   0.6974
Er60     Er     0.1672   0.8328   0.75
V61     V     0.299   0.82   0.6974
V62     V     0.18   0.701   0.8026
Ce63     Ce     0.0836   0.9164   0.75
Ce64     Ce     0.0836   0.1672   0.75
Ce65     Ce     0.1672   0.0836   0.75
Ce66     Ce     0.9164   0.8328   0.75
Ce67     Ce     0.8328   0.9164   0.75
Ce68     Ce     0.9164   0.0836   0.75
Ti69     Ti     0.0687   0.5758   0.0918
Ti70     Ti     0.0687   0.5758   0.9082
Ti71     Ti     0.9313   0.4242   0.0918
Ti72     Ti     0.9313   0.4242   0.9082
loop_
_geom_bond_atom_site_label_1
_geom_bond_atom_site_label_2
_geom_bond_distance
_geom_bond_site_symmetry_2
_ccdc_geom_bond_type
Ti1     Ti2    10.002   1_554     S
Ti1     Ti3    10.008   .     S
Ti1     V14    10.014   .     S
Ti2     Ti1    10.002   1_556     S
Ti2     Ti4    10.008   .     S
Ti2     V46    10.014   .     S
Ti3     Ti4    10.002   1_554     S
Ti3     V20    10.014   .     S
Ti4     Ti3    10.002   1_556     S
Ti4     V52    10.014   .     S
Ti5     Ti6    10.002   .     S
Ti5     Ti7    10.008   1_545     S
Ti5     V18    10.014   .     S
Ti6     Ti8    10.008   1_545     S
Ti6     V50    10.014   .     S
Ti7     Ti8    10.002   .     S
Ti7     Ti5    10.008   1_565     S
Ti7     V29    10.014   .     S
Ti8     Ti6    10.008   1_565     S
Ti8     V61    10.014   .     S
Ti9     Ti10    10.002   1_554     S
Ti9     Ti11    10.008   1_565     S
Ti9     V26    10.014   .     S
Ti10     Ti9    10.002   1_556     S
Ti10     Ti12    10.008   1_565     S
Ti10     V58    10.014   .     S
Ti11     Ti12    10.002   1_554     S
Ti11     Ti9    10.008   1_545     S
Ti11     V23    10.014   .     S
Ti12     Ti11    10.002   1_556     S
Ti12     Ti10    10.008   1_545     S
Ti12     V55    10.014   .     S
Er13     Ce33    9.988   .     S
Er13     V14    9.987   .     S
Er13     V15    9.987   .     S
V14     V15    10.012   .     S
V15     Ti41    10.014   .     S
Er16     Ce36    9.988   .     S
Er16     V17    9.987   .     S
Er16     V18    9.987   .     S
V17     V18    10.012   .     S
V17     Ti71    10.014   .     S
Er19     V20    9.987   .     S
Er19     V21    9.987   .     S
Er19     Ce34    9.988   .     S
V20     V21    10.012   .     S
V21     Ti43    10.014   .     S
Er22     V23    9.987   .     S
Er22     V24    9.987   .     S
Er22     Ce35    9.988   .     S
V23     V24    10.012   .     S
V24     Ti39    10.014   .     S
Er25     Ce32    9.988   .     S
Er25     V26    9.987   .     S
Er25     V27    9.987   .     S
V26     V27    10.012   .     S
V27     Ti37    10.014   .     S
Er28     Ce31    9.988   .     S
Er28     V29    9.987   .     S
Er28     V30    9.987   .     S
V29     V30    10.012   .     S
V30     Ti69    10.014   .     S
Ce31     Ce33    9.988   1_455     S
Ce31     Ce35    9.988   1_565     S
Ce32     Ce33    9.988   .     S
Ce32     Ce36    9.988   1_565     S
Ce33     Ce31    9.988   1_655     S
Ce34     Ce35    9.988   .     S
Ce34     Ce36    9.988   1_455     S
Ce35     Ce31    9.988   1_545     S
Ce36     Ce34    9.988   1_655     S
Ce36     Ce32    9.988   1_545     S
Ti37     Ti38    10.002   .     S
Ti37     Ti39    10.008   .     S
Ti38     Ti40    10.008   .     S
Ti38     V59    10.014   .     S
Ti39     Ti40    10.002   .     S
Ti40     V56    10.014   .     S
Ti41     Ti42    10.002   .     S
Ti41     Ti43    10.008   1_655     S
Ti42     Ti44    10.008   1_655     S
Ti42     V47    10.014   .     S
Ti43     Ti44    10.002   .     S
Ti43     Ti41    10.008   1_455     S
Ti44     Ti42    10.008   1_455     S
Ti44     V53    10.014   .     S
Er45     Ce66    9.988   .     S
Er45     V46    9.987   .     S
Er45     V47    9.987   .     S
V46     V47    10.012   .     S
Er48     Ce68    9.988   .     S
Er48     V49    9.987   .     S
Er48     V50    9.987   .     S
V49     V50    10.012   .     S
V49     Ti72    10.014   .     S
Er51     V52    9.987   .     S
Er51     V53    9.987   .     S
Er51     Ce64    9.988   .     S
V52     V53    10.012   .     S
Er54     V55    9.987   .     S
Er54     V56    9.987   .     S
Er54     Ce65    9.988   .     S
V55     V56    10.012   .     S
Er57     Ce67    9.988   .     S
Er57     V58    9.987   .     S
Er57     V59    9.987   .     S
V58     V59    10.012   .     S
Er60     Ce63    9.988   .     S
Er60     V61    9.987   .     S
Er60     V62    9.987   .     S
V61     V62    10.012   .     S
V62     Ti70    10.014   .     S
Ce63     Ce66    9.988   1_455     S
Ce63     Ce65    9.988   1_565     S
Ce64     Ce65    9.988   .     S
Ce64     Ce68    9.988   1_455     S
Ce65     Ce63    9.988   1_545     S
Ce66     Ce63    9.988   1_655     S
Ce66     Ce67    9.988   .     S
Ce67     Ce68    9.988   1_565     S
Ce68     Ce64    9.988   1_655     S
Ce68     Ce67    9.988   1_545     S
Ti69     Ti70    10.002   1_554     S
Ti69     Ti71    10.008   1_455     S
Ti70     Ti69    10.002   1_556     S
Ti70     Ti72    10.008   1_455     S
Ti71     Ti72    10.002   1_554     S
Ti71     Ti69    10.008   1_655     S
Ti72     Ti71    10.002   1_556     S
Ti72     Ti70    10.008   1_655     S
