data_cfcea
_audit_creation_date              2020-02-04
_audit_creation_method            'Pymatgen'
_symmetry_space_group_name_H-M    'P1'
_symmetry_Int_Tables_number       1
loop_
_symmetry_equiv_pos_as_xyz
  x,y,z
_cell_length_a                    46.6255
_cell_length_b                    46.6255
_cell_length_c                    156.343
_cell_angle_alpha                 90.0
_cell_angle_beta                 90.0
_cell_angle_gamma                 120.0
loop_
_atom_site_label
_atom_site_type_symbol
_atom_site_fract_x
_atom_site_fract_y
_atom_site_fract_z
Ti1     Ti     0.8579   0.1421   0.0786
V2     V     0.8811   0.3333   0.1131
V3     V     0.6667   0.1189   0.1131
Er4     Er     0.7855   0.0   0.131
Er5     Er     0.0   0.2145   0.131
H6     H     0.8088   0.1912   0.1655
Er7     Er     0.7855   0.0   0.369
Er8     Er     0.0   0.2145   0.369
H9     H     0.8088   0.1912   0.3345
Ti10     Ti     0.8579   0.1421   0.4214
V11     V     0.8811   0.3333   0.3869
V12     V     0.6667   0.1189   0.3869
S13     S     0.7382   0.2618   0.218
S14     S     0.7382   0.2618   0.282
Ti15     Ti     0.2842   0.1421   0.0786
V16     V     0.4522   0.3333   0.1131
V17     V     0.4522   0.1189   0.1131
Er18     Er     0.2145   0.2145   0.131
Er19     Er     0.2145   0.0   0.131
H20     H     0.3824   0.1912   0.1655
Er21     Er     0.2145   0.2145   0.369
Er22     Er     0.2145   0.0   0.369
H23     H     0.3824   0.1912   0.3345
Ti24     Ti     0.2842   0.1421   0.4214
V25     V     0.4522   0.1189   0.3869
V26     V     0.4522   0.3333   0.3869
S27     S     0.5237   0.2618   0.218
S28     S     0.5237   0.2618   0.282
Er29     Er     0.0   0.7855   0.369
Er30     Er     0.7855   0.7855   0.369
H31     H     0.8088   0.6176   0.3345
Ti32     Ti     0.8579   0.7158   0.4214
V33     V     0.6667   0.5478   0.3869
V34     V     0.8811   0.5478   0.3869
S35     S     0.7382   0.4763   0.282
S36     S     0.7382   0.4763   0.218
Ti37     Ti     0.8579   0.7158   0.0786
V38     V     0.8811   0.5478   0.1131
V39     V     0.6667   0.5478   0.1131
Er40     Er     0.0   0.7855   0.131
Er41     Er     0.7855   0.7855   0.131
H42     H     0.8088   0.6176   0.1655
Ce43     Ce     0.0715   0.9285   0.5261
Ce44     Ce     0.0715   0.143   0.5261
Ce45     Ce     0.857   0.9285   0.5261
Ce46     Ce     0.9285   0.0715   0.4739
Ce47     Ce     0.143   0.0715   0.4739
Ce48     Ce     0.9285   0.857   0.4739
Ce49     Ce     0.9285   0.0715   0.0261
Ce50     Ce     0.0715   0.143   0.9739
Ce51     Ce     0.857   0.9285   0.9739
Ce52     Ce     0.143   0.0715   0.0261
Ce53     Ce     0.9285   0.857   0.0261
Ce54     Ce     0.0715   0.9285   0.9739
Er55     Er     0.7855   0.0   0.869
Er56     Er     0.7855   0.7855   0.869
H57     H     0.6176   0.8088   0.8345
Ti58     Ti     0.7158   0.8579   0.9214
V59     V     0.5478   0.8811   0.8869
V60     V     0.5478   0.6667   0.8869
S61     S     0.4763   0.7382   0.782
S62     S     0.4763   0.7382   0.718
Er63     Er     0.7855   0.7855   0.631
Er64     Er     0.7855   0.0   0.631
H65     H     0.6176   0.8088   0.6655
Ti66     Ti     0.7158   0.8579   0.5786
V67     V     0.5478   0.6667   0.6131
V68     V     0.5478   0.8811   0.6131
S69     S     0.2618   0.7382   0.782
S70     S     0.2618   0.7382   0.718
Ti71     Ti     0.1421   0.8579   0.5786
V72     V     0.1189   0.6667   0.6131
V73     V     0.3333   0.8811   0.6131
Er74     Er     0.2145   0.0   0.631
Er75     Er     0.0   0.7855   0.631
H76     H     0.1912   0.8088   0.6655
Er77     Er     0.0   0.7855   0.869
Er78     Er     0.2145   0.0   0.869
H79     H     0.1912   0.8088   0.8345
Ti80     Ti     0.1421   0.8579   0.9214
V81     V     0.3333   0.8811   0.8869
V82     V     0.1189   0.6667   0.8869
Er83     Er     0.2145   0.2145   0.869
Er84     Er     0.0   0.2145   0.869
H85     H     0.1912   0.3824   0.8345
Ti86     Ti     0.1421   0.2842   0.9214
V87     V     0.3333   0.4522   0.8869
V88     V     0.1189   0.4522   0.8869
S89     S     0.2618   0.5237   0.782
S90     S     0.2618   0.5237   0.718
Er91     Er     0.0   0.2145   0.631
Er92     Er     0.2145   0.2145   0.631
H93     H     0.1912   0.3824   0.6655
Ti94     Ti     0.1421   0.2842   0.5786
V95     V     0.1189   0.4522   0.6131
V96     V     0.3333   0.4522   0.6131
loop_
_geom_bond_atom_site_label_1
_geom_bond_atom_site_label_2
_geom_bond_distance
_geom_bond_site_symmetry_2
_ccdc_geom_bond_type
Ti1     Ce49    10.0   .     S
Ti1     Er5    10.0   1_655     S
Ti1     Er4    10.0   .     S
Ti1     V2    10.0   .     S
Ti1     V3    10.0   .     S
V2     V3    10.0   .     S
V2     H6    10.0   .     S
V2     Er5    9.999   1_655     S
V2     V38    10.0   .     S
V3     H6    10.0   .     S
V3     Er4    9.999   .     S
V3     V17    10.0   .     S
Er4     Er5    10.0   1_655     S
Er4     H6    10.0   .     S
Er4     Er41    10.0   1_545     S
Er5     Ti1    10.0   1_455     S
Er5     Er4    10.0   1_455     S
Er5     V2    9.999   1_455     S
Er5     H6    10.0   1_455     S
Er5     Er18    10.0   .     S
H6     Er5    10.0   1_655     S
H6     S13    10.0   .     S
Er7     V12    9.999   .     S
Er7     H9    10.0   .     S
Er7     Ti10    10.0   .     S
Er7     Er8    10.0   1_655     S
Er7     Er30    10.0   1_545     S
Er8     V11    9.999   1_455     S
Er8     H9    10.0   1_455     S
Er8     Ti10    10.0   1_455     S
Er8     Er7    10.0   1_455     S
Er8     Er21    10.0   .     S
H9     Er8    10.0   1_655     S
H9     V11    10.0   .     S
H9     V12    10.0   .     S
H9     S14    10.0   .     S
Ti10     Ce46    10.0   .     S
Ti10     Er8    10.0   1_655     S
Ti10     V11    10.0   .     S
Ti10     V12    10.0   .     S
V11     Er8    9.999   1_655     S
V11     V12    10.0   .     S
V11     V34    10.0   .     S
V12     V25    10.0   .     S
S13     S14    10.0   .     S
S13     S27    10.0   .     S
S13     S36    10.0   .     S
S14     S28    10.0   .     S
S14     S35    10.0   .     S
Ti15     Er19    10.0   .     S
Ti15     Er18    10.0   .     S
Ti15     V16    10.0   .     S
Ti15     V17    10.0   .     S
Ti15     Ce52    10.0   .     S
V16     V17    10.0   .     S
V16     H20    10.0   .     S
V16     Er18    9.999   .     S
V16     V39    10.0   .     S
V17     H20    10.0   .     S
V17     Er19    9.999   .     S
Er18     Er19    10.0   .     S
Er18     H20    10.0   .     S
Er19     H20    10.0   .     S
Er19     Er40    10.0   1_545     S
H20     S27    10.0   .     S
Er21     V26    9.999   .     S
Er21     H23    10.0   .     S
Er21     Ti24    10.0   .     S
Er21     Er22    10.0   .     S
Er22     V25    9.999   .     S
Er22     H23    10.0   .     S
Er22     Ti24    10.0   .     S
Er22     Er29    10.0   1_545     S
H23     V26    10.0   .     S
H23     V25    10.0   .     S
H23     S28    10.0   .     S
Ti24     V25    10.0   .     S
Ti24     V26    10.0   .     S
Ti24     Ce47    10.0   .     S
V25     V26    10.0   .     S
V26     V33    10.0   .     S
S27     S28    10.0   .     S
S27     S36    10.0   .     S
S28     S35    10.0   .     S
Er29     V34    9.999   1_455     S
Er29     H31    10.0   1_455     S
Er29     Ti32    10.0   1_455     S
Er29     Er30    10.0   1_455     S
Er29     Er22    10.0   1_565     S
Er30     V33    9.999   .     S
Er30     H31    10.0   .     S
Er30     Ti32    10.0   .     S
Er30     Er29    10.0   1_655     S
Er30     Er7    10.0   1_565     S
H31     Er29    10.0   1_655     S
H31     V33    10.0   .     S
H31     V34    10.0   .     S
H31     S35    10.0   .     S
Ti32     V33    10.0   .     S
Ti32     V34    10.0   .     S
Ti32     Er29    10.0   1_655     S
Ti32     Ce48    10.0   .     S
V33     V34    10.0   .     S
V34     Er29    9.999   1_655     S
S35     S36    10.0   .     S
S36     H42    10.0   .     S
Ti37     V38    10.0   .     S
Ti37     V39    10.0   .     S
Ti37     Er41    10.0   .     S
Ti37     Er40    10.0   1_655     S
Ti37     Ce53    10.0   .     S
V38     V39    10.0   .     S
V38     H42    10.0   .     S
V38     Er40    9.999   1_655     S
V39     H42    10.0   .     S
V39     Er41    9.999   .     S
Er40     Ti37    10.0   1_455     S
Er40     Er41    10.0   1_455     S
Er40     V38    9.999   1_455     S
Er40     H42    10.0   1_455     S
Er40     Er19    10.0   1_565     S
Er41     Er40    10.0   1_655     S
Er41     H42    10.0   .     S
Er41     Er4    10.0   1_565     S
H42     Er40    10.0   1_655     S
Ce43     Ce45    10.0   1_455     S
Ce43     Ce44    10.0   1_565     S
Ce43     Ce48    9.999   1_455     S
Ce43     Ce47    9.999   1_565     S
Ce43     Ti71    10.0   .     S
Ce44     Ce43    10.0   1_545     S
Ce44     Ce45    10.0   1_445     S
Ce44     Ce47    9.999   .     S
Ce44     Ce46    9.999   1_455     S
Ce44     Ti94    10.0   .     S
Ce45     Ce43    10.0   1_655     S
Ce45     Ce44    10.0   1_665     S
Ce45     Ce48    9.999   .     S
Ce45     Ce46    9.999   1_565     S
Ce45     Ti66    10.0   .     S
Ce46     Ce48    10.0   1_545     S
Ce46     Ce47    10.0   1_655     S
Ce46     Ce45    9.999   1_545     S
Ce46     Ce44    9.999   1_655     S
Ce47     Ce48    10.0   1_445     S
Ce47     Ce46    10.0   1_455     S
Ce47     Ce43    9.999   1_545     S
Ce48     Ce46    10.0   1_565     S
Ce48     Ce47    10.0   1_665     S
Ce48     Ce43    9.999   1_655     S
Ce49     Ce53    10.0   1_545     S
Ce49     Ce52    10.0   1_655     S
Ce49     Ce50    9.999   1_654     S
Ce49     Ce51    9.999   1_544     S
Ce50     Ce51    10.0   1_445     S
Ce50     Ce54    10.0   1_545     S
Ce50     Ce52    9.999   1_556     S
Ce50     Ce49    9.999   1_456     S
Ce50     Ti86    10.0   .     S
Ce51     Ce50    10.0   1_665     S
Ce51     Ce53    9.999   1_556     S
Ce51     Ce54    10.0   1_655     S
Ce51     Ce49    9.999   1_566     S
Ce51     Ti58    10.0   .     S
Ce52     Ce50    9.999   1_554     S
Ce52     Ce53    10.0   1_445     S
Ce52     Ce49    10.0   1_455     S
Ce52     Ce54    9.999   1_544     S
Ce53     Ce49    10.0   1_565     S
Ce53     Ce51    9.999   1_554     S
Ce53     Ce52    10.0   1_665     S
Ce53     Ce54    9.999   1_654     S
Ce54     Ce50    10.0   1_565     S
Ce54     Ce51    10.0   1_455     S
Ce54     Ce53    9.999   1_456     S
Ce54     Ce52    9.999   1_566     S
Ce54     Ti80    10.0   .     S
Er55     V59    9.999   1_545     S
Er55     H57    10.0   1_545     S
Er55     Ti58    10.0   1_545     S
Er55     Er56    10.0   1_545     S
Er55     Er84    10.0   1_655     S
Er56     V60    9.999   .     S
Er56     H57    10.0   .     S
Er56     Ti58    10.0   .     S
Er56     Er55    10.0   1_565     S
Er56     Er77    10.0   1_655     S
H57     Er55    10.0   1_565     S
H57     V59    10.0   .     S
H57     V60    10.0   .     S
H57     S61    10.0   .     S
Ti58     Er55    10.0   1_565     S
Ti58     V59    10.0   .     S
Ti58     V60    10.0   .     S
V59     Er55    9.999   1_565     S
V59     V60    10.0   .     S
V59     V81    10.0   .     S
V60     V87    10.0   .     S
S61     S62    10.0   .     S
S61     S69    10.0   .     S
S61     S89    10.0   .     S
S62     H65    10.0   .     S
S62     S90    10.0   .     S
S62     S70    10.0   .     S
Er63     V67    9.999   .     S
Er63     H65    10.0   .     S
Er63     Ti66    10.0   .     S
Er63     Er64    10.0   1_565     S
Er63     Er75    10.0   1_655     S
Er64     V68    9.999   1_545     S
Er64     H65    10.0   1_545     S
Er64     Ti66    10.0   1_545     S
Er64     Er63    10.0   1_545     S
Er64     Er91    10.0   1_655     S
H65     Er64    10.0   1_565     S
H65     V67    10.0   .     S
H65     V68    10.0   .     S
Ti66     Er64    10.0   1_565     S
Ti66     V67    10.0   .     S
Ti66     V68    10.0   .     S
V67     V68    10.0   .     S
V67     V96    10.0   .     S
V68     Er64    9.999   1_565     S
V68     V73    10.0   .     S
S69     S70    10.0   .     S
S69     H79    10.0   .     S
S69     S89    10.0   .     S
S70     H76    10.0   .     S
S70     S90    10.0   .     S
Ti71     Er75    10.0   .     S
Ti71     Er74    10.0   1_565     S
Ti71     V73    10.0   .     S
Ti71     V72    10.0   .     S
V72     V73    10.0   .     S
V72     H76    10.0   .     S
V72     Er75    9.999   .     S
V72     V95    10.0   .     S
V73     H76    10.0   .     S
V73     Er74    9.999   1_565     S
Er74     Ti71    10.0   1_545     S
Er74     Er75    10.0   1_545     S
Er74     V73    9.999   1_545     S
Er74     H76    10.0   1_545     S
Er74     Er92    10.0   .     S
Er75     Er74    10.0   1_565     S
Er75     H76    10.0   .     S
Er75     Er63    10.0   1_455     S
H76     Er74    10.0   1_565     S
Er77     V82    9.999   .     S
Er77     H79    10.0   .     S
Er77     Ti80    10.0   .     S
Er77     Er78    10.0   1_565     S
Er77     Er56    10.0   1_455     S
Er78     V81    9.999   1_545     S
Er78     H79    10.0   1_545     S
Er78     Ti80    10.0   1_545     S
Er78     Er77    10.0   1_545     S
Er78     Er83    10.0   .     S
H79     Er78    10.0   1_565     S
H79     V81    10.0   .     S
H79     V82    10.0   .     S
Ti80     Er78    10.0   1_565     S
Ti80     V81    10.0   .     S
Ti80     V82    10.0   .     S
V81     Er78    9.999   1_565     S
V81     V82    10.0   .     S
V82     V88    10.0   .     S
Er83     V87    9.999   .     S
Er83     H85    10.0   .     S
Er83     Ti86    10.0   .     S
Er83     Er84    10.0   .     S
Er84     V88    9.999   .     S
Er84     H85    10.0   .     S
Er84     Ti86    10.0   .     S
Er84     Er55    10.0   1_455     S
H85     V88    10.0   .     S
H85     V87    10.0   .     S
H85     S89    10.0   .     S
Ti86     V87    10.0   .     S
Ti86     V88    10.0   .     S
V87     V88    10.0   .     S
S89     S90    10.0   .     S
S90     H93    10.0   .     S
Er91     V95    9.999   .     S
Er91     H93    10.0   .     S
Er91     Ti94    10.0   .     S
Er91     Er92    10.0   .     S
Er91     Er64    10.0   1_455     S
Er92     V96    9.999   .     S
Er92     H93    10.0   .     S
Er92     Ti94    10.0   .     S
H93     V95    10.0   .     S
H93     V96    10.0   .     S
Ti94     V95    10.0   .     S
Ti94     V96    10.0   .     S
V95     V96    10.0   .     S
