data_chb
_audit_creation_date              2020-02-04
_audit_creation_method            'Pymatgen'
_symmetry_space_group_name_H-M    'P1'
_symmetry_Int_Tables_number       1
loop_
_symmetry_equiv_pos_as_xyz
  x,y,z
_cell_length_a                    19.9998
_cell_length_b                    31.4629
_cell_length_c                    20.0
_cell_angle_alpha                 90.0
_cell_angle_beta                 90.0
_cell_angle_gamma                 90.0
loop_
_atom_site_label
_atom_site_type_symbol
_atom_site_fract_x
_atom_site_fract_y
_atom_site_fract_z
V1     V     0.0   0.8624   0.125
V2     V     0.0   0.8624   0.625
V3     V     0.5   0.8624   0.125
V4     V     0.5   0.8624   0.625
V5     V     0.25   0.6376   0.375
V6     V     0.25   0.6376   0.875
V7     V     0.75   0.6376   0.375
V8     V     0.75   0.6376   0.875
V9     V     0.25   0.3624   0.125
V10     V     0.25   0.3624   0.625
V11     V     0.75   0.3624   0.125
V12     V     0.75   0.3624   0.625
V13     V     0.0   0.1376   0.375
V14     V     0.0   0.1376   0.875
V15     V     0.5   0.1376   0.375
V16     V     0.5   0.1376   0.875
loop_
_geom_bond_atom_site_label_1
_geom_bond_atom_site_label_2
_geom_bond_distance
_geom_bond_site_symmetry_2
_ccdc_geom_bond_type
V1     V3    10.0   .     S
V1     V3    10.0   1_455     S
V1     V5    10.0   .     S
V1     V7    10.0   1_455     S
V1     V8    10.0   1_454     S
V1     V6    10.0   1_554     S
V1     V2    10.0   .     S
V1     V2    10.0   1_554     S
V1     V13    10.0   1_565     S
V1     V14    10.0   1_564     S
V2     V4    10.0   .     S
V2     V4    10.0   1_455     S
V2     V6    10.0   .     S
V2     V8    10.0   1_455     S
V2     V7    10.0   1_455     S
V2     V5    10.0   .     S
V2     V1    10.0   1_556     S
V2     V14    10.0   1_565     S
V2     V13    10.0   1_565     S
V3     V1    10.0   1_655     S
V3     V7    10.0   .     S
V3     V5    10.0   .     S
V3     V6    10.0   1_554     S
V3     V8    10.0   1_554     S
V3     V4    10.0   .     S
V3     V4    10.0   1_554     S
V3     V15    10.0   1_565     S
V3     V16    10.0   1_564     S
V4     V2    10.0   1_655     S
V4     V8    10.0   .     S
V4     V6    10.0   .     S
V4     V5    10.0   .     S
V4     V7    10.0   .     S
V4     V3    10.0   1_556     S
V4     V16    10.0   1_565     S
V4     V15    10.0   1_565     S
V5     V9    10.0   .     S
V5     V10    10.0   .     S
V5     V7    10.0   1_455     S
V5     V7    10.0   .     S
V5     V6    10.0   1_554     S
V5     V6    10.0   .     S
V6     V10    10.0   .     S
V6     V9    10.0   1_556     S
V6     V3    10.0   1_556     S
V6     V1    10.0   1_556     S
V6     V8    10.0   1_455     S
V6     V8    10.0   .     S
V6     V5    10.0   1_556     S
V7     V11    10.0   .     S
V7     V12    10.0   .     S
V7     V1    10.0   1_655     S
V7     V2    10.0   1_655     S
V7     V5    10.0   1_655     S
V7     V8    10.0   1_554     S
V7     V8    10.0   .     S
V8     V12    10.0   .     S
V8     V11    10.0   1_556     S
V8     V2    10.0   1_655     S
V8     V1    10.0   1_656     S
V8     V3    10.0   1_556     S
V8     V6    10.0   1_655     S
V8     V7    10.0   1_556     S
V9     V6    10.0   1_554     S
V9     V16    10.0   1_554     S
V9     V14    10.0   1_554     S
V9     V11    10.0   1_455     S
V9     V11    10.0   .     S
V9     V13    10.0   .     S
V9     V15    10.0   .     S
V9     V10    10.0   .     S
V9     V10    10.0   1_554     S
V10     V15    10.0   .     S
V10     V13    10.0   .     S
V10     V12    10.0   1_455     S
V10     V12    10.0   .     S
V10     V14    10.0   .     S
V10     V16    10.0   .     S
V10     V9    10.0   1_556     S
V11     V8    10.0   1_554     S
V11     V14    10.0   1_654     S
V11     V16    10.0   1_554     S
V11     V9    10.0   1_655     S
V11     V15    10.0   .     S
V11     V13    10.0   1_655     S
V11     V12    10.0   .     S
V11     V12    10.0   1_554     S
V12     V13    10.0   1_655     S
V12     V15    10.0   .     S
V12     V10    10.0   1_655     S
V12     V16    10.0   .     S
V12     V14    10.0   1_655     S
V12     V11    10.0   1_556     S
V13     V12    10.0   1_455     S
V13     V15    10.0   .     S
V13     V15    10.0   1_455     S
V13     V11    10.0   1_455     S
V13     V14    10.0   1_554     S
V13     V14    10.0   .     S
V13     V1    10.0   1_545     S
V13     V2    10.0   1_545     S
V14     V11    10.0   1_456     S
V14     V9    10.0   1_556     S
V14     V16    10.0   .     S
V14     V16    10.0   1_455     S
V14     V12    10.0   1_455     S
V14     V13    10.0   1_556     S
V14     V2    10.0   1_545     S
V14     V1    10.0   1_546     S
V15     V13    10.0   1_655     S
V15     V16    10.0   1_554     S
V15     V16    10.0   .     S
V15     V3    10.0   1_545     S
V15     V4    10.0   1_545     S
V16     V9    10.0   1_556     S
V16     V11    10.0   1_556     S
V16     V14    10.0   1_655     S
V16     V15    10.0   1_556     S
V16     V4    10.0   1_545     S
V16     V3    10.0   1_546     S
