data_cli
_audit_creation_date              2020-02-04
_audit_creation_method            'Pymatgen'
_symmetry_space_group_name_H-M    'P1'
_symmetry_Int_Tables_number       1
loop_
_symmetry_equiv_pos_as_xyz
  x,y,z
_cell_length_a                    33.3957
_cell_length_b                    33.3957
_cell_length_c                    89.3244
_cell_angle_alpha                 90.0
_cell_angle_beta                 90.0
_cell_angle_gamma                 90.0
loop_
_atom_site_label
_atom_site_type_symbol
_atom_site_fract_x
_atom_site_fract_y
_atom_site_fract_z
Ce1     Ce     0.8507   0.65   0.0
Ce2     Ce     0.1493   0.65   0.0
Ce3     Ce     0.8507   0.35   0.0
Ce4     Ce     0.1493   0.35   0.0
Ti5     Ti     0.8507   0.15   0.9166
Ti6     Ti     0.1493   0.15   0.9166
Ti7     Ti     0.1493   0.85   0.9166
Ti8     Ti     0.8507   0.85   0.9166
Ti9     Ti     0.15   0.8507   0.5834
Ti10     Ti     0.15   0.1493   0.5834
Ti11     Ti     0.85   0.1493   0.5834
Ti12     Ti     0.85   0.8507   0.5834
Er13     Er     0.35   0.1493   0.6667
Er14     Er     0.35   0.8507   0.6667
Er15     Er     0.8507   0.35   0.8333
Er16     Er     0.1493   0.35   0.8333
Er17     Er     0.1493   0.65   0.8333
Er18     Er     0.8507   0.65   0.8333
Er19     Er     0.65   0.1493   0.6667
Er20     Er     0.65   0.8507   0.6667
V21     V     0.8504   0.1496   0.75
V22     V     0.1496   0.1496   0.75
V23     V     0.1496   0.8504   0.75
V24     V     0.8504   0.8504   0.75
Ce25     Ce     0.35   0.8507   0.5
Ce26     Ce     0.35   0.1493   0.5
Ce27     Ce     0.65   0.8507   0.5
Ce28     Ce     0.65   0.1493   0.5
Ti29     Ti     0.8507   0.85   0.0834
Ti30     Ti     0.1493   0.85   0.0834
Ti31     Ti     0.1493   0.15   0.0834
Ti32     Ti     0.8507   0.15   0.0834
Ti33     Ti     0.85   0.8507   0.4166
Ti34     Ti     0.85   0.1493   0.4166
Ti35     Ti     0.15   0.1493   0.4166
Ti36     Ti     0.15   0.8507   0.4166
Er37     Er     0.35   0.1493   0.3333
Er38     Er     0.35   0.8507   0.3333
Er39     Er     0.1493   0.35   0.1667
Er40     Er     0.8507   0.35   0.1667
Er41     Er     0.65   0.8507   0.3333
Er42     Er     0.65   0.1493   0.3333
Er43     Er     0.8507   0.65   0.1667
Er44     Er     0.1493   0.65   0.1667
V45     V     0.8504   0.1496   0.25
V46     V     0.1496   0.1496   0.25
V47     V     0.1496   0.8504   0.25
V48     V     0.8504   0.8504   0.25
loop_
_geom_bond_atom_site_label_1
_geom_bond_atom_site_label_2
_geom_bond_distance
_geom_bond_site_symmetry_2
_ccdc_geom_bond_type
Ce1     Ce2    9.974   1_655     S
Ce1     Ti8    10.005   1_554     S
Ce1     Ti29    10.005   .     S
Ce1     Ce3    10.015   .     S
Ce2     Ce1    9.974   1_455     S
Ce2     Ti7    10.005   1_554     S
Ce2     Ti30    10.005   .     S
Ce2     Ce4    10.015   .     S
Ce3     Ce4    9.974   1_655     S
Ce3     Ti5    10.005   1_554     S
Ce3     Ti32    10.005   .     S
Ce4     Ce3    9.974   1_455     S
Ce4     Ti6    10.005   1_554     S
Ce4     Ti31    10.005   .     S
Ti5     Ti6    9.973   1_655     S
Ti5     Er15    10.005   .     S
Ti5     Ce3    10.005   1_556     S
Ti5     Ti8    10.016   1_545     S
Ti6     Ti5    9.973   1_455     S
Ti6     Er16    10.005   .     S
Ti6     Ce4    10.005   1_556     S
Ti6     Ti7    10.016   1_545     S
Ti7     Ti8    9.973   1_455     S
Ti7     Er17    10.005   .     S
Ti7     Ce2    10.005   1_556     S
Ti7     Ti6    10.016   1_565     S
Ti8     Ti7    9.973   1_655     S
Ti8     Er18    10.005   .     S
Ti8     Ce1    10.005   1_556     S
Ti8     Ti5    10.016   1_565     S
Ti9     Ti10    9.973   1_565     S
Ti9     Er14    10.005   .     S
Ti9     Ce25    10.005   .     S
Ti9     Ti12    10.016   1_455     S
Ti10     Ti9    9.973   1_545     S
Ti10     Er13    10.005   .     S
Ti10     Ce26    10.005   .     S
Ti10     Ti11    10.016   1_455     S
Ti11     Ti12    9.973   1_545     S
Ti11     Er19    10.005   .     S
Ti11     Ce28    10.005   .     S
Ti11     Ti10    10.016   1_655     S
Ti12     Ti11    9.973   1_565     S
Ti12     Er20    10.005   .     S
Ti12     Ce27    10.005   .     S
Ti12     Ti9    10.016   1_655     S
Er13     Er14    9.973   1_545     S
Er13     V22    10.005   .     S
Er13     Er19    10.016   .     S
Er14     Er13    9.973   1_565     S
Er14     V23    10.005   .     S
Er14     Er20    10.016   .     S
Er15     Er16    9.973   1_655     S
Er15     V21    10.005   .     S
Er15     Er18    10.016   .     S
Er16     Er15    9.973   1_455     S
Er16     V22    10.005   .     S
Er16     Er17    10.016   .     S
Er17     Er18    9.973   1_455     S
Er17     V23    10.005   .     S
Er18     Er17    9.973   1_655     S
Er18     V24    10.005   .     S
Er19     Er20    9.973   1_545     S
Er19     V21    10.005   .     S
Er20     Er19    9.973   1_565     S
Er20     V24    10.005   .     S
V21     V24    9.995   1_545     S
V21     V22    9.995   1_655     S
V22     V23    9.995   1_545     S
V22     V21    9.995   1_455     S
V23     V22    9.995   1_565     S
V23     V24    9.995   1_455     S
V24     V21    9.995   1_565     S
V24     V23    9.995   1_655     S
Ce25     Ce26    9.974   1_565     S
Ce25     Ti36    10.005   .     S
Ce25     Ce27    10.015   .     S
Ce26     Ce25    9.974   1_545     S
Ce26     Ti35    10.005   .     S
Ce26     Ce28    10.015   .     S
Ce27     Ce28    9.974   1_565     S
Ce27     Ti33    10.005   .     S
Ce28     Ce27    9.974   1_545     S
Ce28     Ti34    10.005   .     S
Ti29     Ti30    9.973   1_655     S
Ti29     Er43    10.005   .     S
Ti29     Ti32    10.016   1_565     S
Ti30     Ti29    9.973   1_455     S
Ti30     Er44    10.005   .     S
Ti30     Ti31    10.016   1_565     S
Ti31     Ti32    9.973   1_455     S
Ti31     Er39    10.005   .     S
Ti31     Ti30    10.016   1_545     S
Ti32     Ti31    9.973   1_655     S
Ti32     Er40    10.005   .     S
Ti32     Ti29    10.016   1_545     S
Ti33     Ti34    9.973   1_565     S
Ti33     Er41    10.005   .     S
Ti33     Ti36    10.016   1_655     S
Ti34     Ti33    9.973   1_545     S
Ti34     Er42    10.005   .     S
Ti34     Ti35    10.016   1_655     S
Ti35     Ti36    9.973   1_545     S
Ti35     Er37    10.005   .     S
Ti35     Ti34    10.016   1_455     S
Ti36     Ti35    9.973   1_565     S
Ti36     Er38    10.005   .     S
Ti36     Ti33    10.016   1_455     S
Er37     Er38    9.973   1_545     S
Er37     V46    10.005   .     S
Er37     Er42    10.016   .     S
Er38     Er37    9.973   1_565     S
Er38     V47    10.005   .     S
Er38     Er41    10.016   .     S
Er39     Er40    9.973   1_455     S
Er39     V46    10.005   .     S
Er39     Er44    10.016   .     S
Er40     Er39    9.973   1_655     S
Er40     V45    10.005   .     S
Er40     Er43    10.016   .     S
Er41     Er42    9.973   1_565     S
Er41     V48    10.005   .     S
Er42     Er41    9.973   1_545     S
Er42     V45    10.005   .     S
Er43     Er44    9.973   1_655     S
Er43     V48    10.005   .     S
Er44     Er43    9.973   1_455     S
Er44     V47    10.005   .     S
V45     V48    9.995   1_545     S
V45     V46    9.995   1_655     S
V46     V47    9.995   1_545     S
V46     V45    9.995   1_455     S
V47     V46    9.995   1_565     S
V47     V48    9.995   1_455     S
V48     V45    9.995   1_565     S
V48     V47    9.995   1_655     S
