data_cmc
_audit_creation_date              2020-02-04
_audit_creation_method            'Pymatgen'
_symmetry_space_group_name_H-M    'P1'
_symmetry_Int_Tables_number       1
loop_
_symmetry_equiv_pos_as_xyz
  x,y,z
_cell_length_a                    59.6325
_cell_length_b                    59.6325
_cell_length_c                    29.2254
_cell_angle_alpha                 90.0
_cell_angle_beta                 90.0
_cell_angle_gamma                 90.0
loop_
_atom_site_label
_atom_site_type_symbol
_atom_site_fract_x
_atom_site_fract_y
_atom_site_fract_z
Ti1     Ti     0.5   0.9162   0.3289
Ti2     Ti     0.5   0.9162   0.6711
Ti3     Ti     0.5   0.0838   0.3289
Ti4     Ti     0.5   0.0838   0.6711
Ti5     Ti     0.9162   0.5   0.3289
Ti6     Ti     0.9162   0.5   0.6711
Ti7     Ti     0.0838   0.5   0.3289
Ti8     Ti     0.0838   0.5   0.6711
Er9     Er     0.9162   0.3512   0.1711
Er10     Er     0.9162   0.3512   0.8289
Er11     Er     0.0838   0.3512   0.1711
Er12     Er     0.0838   0.3512   0.8289
Er13     Er     0.3512   0.9162   0.1711
Er14     Er     0.3512   0.9162   0.8289
Er15     Er     0.3512   0.0838   0.1711
Er16     Er     0.3512   0.0838   0.8289
Er17     Er     0.6488   0.9162   0.1711
Er18     Er     0.6488   0.9162   0.8289
Er19     Er     0.6488   0.0838   0.1711
Er20     Er     0.6488   0.0838   0.8289
V21     V     0.9162   0.2024   0.3289
V22     V     0.7976   0.0838   0.3289
V23     V     0.9162   0.2024   0.6711
V24     V     0.7976   0.0838   0.6711
V25     V     0.9162   0.7976   0.6711
V26     V     0.7976   0.9162   0.6711
V27     V     0.9162   0.7976   0.3289
V28     V     0.7976   0.9162   0.3289
V29     V     0.0838   0.2024   0.6711
V30     V     0.2024   0.0838   0.6711
V31     V     0.0838   0.2024   0.3289
V32     V     0.2024   0.0838   0.3289
V33     V     0.2024   0.9162   0.6711
V34     V     0.0838   0.7976   0.6711
V35     V     0.2024   0.9162   0.3289
V36     V     0.0838   0.7976   0.3289
Er37     Er     0.9162   0.6488   0.1711
Er38     Er     0.9162   0.6488   0.8289
Er39     Er     0.0838   0.6488   0.1711
Er40     Er     0.0838   0.6488   0.8289
loop_
_geom_bond_atom_site_label_1
_geom_bond_atom_site_label_2
_geom_bond_distance
_geom_bond_site_symmetry_2
_ccdc_geom_bond_type
Ti1     Er17    10.0   .     S
Ti1     Er13    10.0   .     S
Ti1     Ti2    10.0   .     S
Ti1     Ti3    10.0   1_565     S
Ti2     Er18    10.0   .     S
Ti2     Er14    10.0   .     S
Ti2     Ti4    10.0   1_565     S
Ti3     Er19    10.0   .     S
Ti3     Er15    10.0   .     S
Ti3     Ti4    10.0   .     S
Ti3     Ti1    10.0   1_545     S
Ti4     Er20    10.0   .     S
Ti4     Er16    10.0   .     S
Ti4     Ti2    10.0   1_545     S
Ti5     Er37    10.0   .     S
Ti5     Er9    10.0   .     S
Ti5     Ti6    10.0   .     S
Ti5     Ti7    10.0   1_655     S
Ti6     Er38    10.0   .     S
Ti6     Er10    10.0   .     S
Ti6     Ti8    10.0   1_655     S
Ti7     Er39    10.0   .     S
Ti7     Er11    10.0   .     S
Ti7     Ti8    10.0   .     S
Ti7     Ti5    10.0   1_455     S
Ti8     Er40    10.0   .     S
Ti8     Er12    10.0   .     S
Ti8     Ti6    10.0   1_455     S
Er9     V21    10.0   .     S
Er9     Er10    10.0   1_554     S
Er9     Er11    10.0   1_655     S
Er10     V23    10.0   .     S
Er10     Er9    10.0   1_556     S
Er10     Er12    10.0   1_655     S
Er11     V31    10.0   .     S
Er11     Er12    10.0   1_554     S
Er11     Er9    10.0   1_455     S
Er12     V29    10.0   .     S
Er12     Er11    10.0   1_556     S
Er12     Er10    10.0   1_455     S
Er13     V35    10.0   .     S
Er13     Er14    10.0   1_554     S
Er13     Er15    10.0   1_565     S
Er14     V33    10.0   .     S
Er14     Er13    10.0   1_556     S
Er14     Er16    10.0   1_565     S
Er15     V32    10.0   .     S
Er15     Er16    10.0   1_554     S
Er15     Er13    10.0   1_545     S
Er16     V30    10.0   .     S
Er16     Er15    10.0   1_556     S
Er16     Er14    10.0   1_545     S
Er17     V28    10.0   .     S
Er17     Er18    10.0   1_554     S
Er17     Er19    10.0   1_565     S
Er18     V26    10.0   .     S
Er18     Er17    10.0   1_556     S
Er18     Er20    10.0   1_565     S
Er19     V22    10.0   .     S
Er19     Er20    10.0   1_554     S
Er19     Er17    10.0   1_545     S
Er20     V24    10.0   .     S
Er20     Er19    10.0   1_556     S
Er20     Er18    10.0   1_545     S
V21     V22    9.999   .     S
V21     V23    10.0   .     S
V21     V31    10.0   1_655     S
V22     V24    10.0   .     S
V22     V28    10.0   1_545     S
V23     V24    9.999   .     S
V23     V29    10.0   1_655     S
V24     V26    10.0   1_545     S
V25     V26    9.999   .     S
V25     V27    10.0   .     S
V25     V34    10.0   1_655     S
V25     Er38    10.0   .     S
V26     V24    10.0   1_565     S
V26     V28    10.0   .     S
V27     V28    9.999   .     S
V27     V36    10.0   1_655     S
V27     Er37    10.0   .     S
V28     V22    10.0   1_565     S
V29     V30    9.999   .     S
V29     V31    10.0   .     S
V29     V23    10.0   1_455     S
V30     V32    10.0   .     S
V30     V33    10.0   1_545     S
V31     V32    9.999   .     S
V31     V21    10.0   1_455     S
V32     V35    10.0   1_545     S
V33     V30    10.0   1_565     S
V33     V34    9.999   .     S
V33     V35    10.0   .     S
V34     V36    10.0   .     S
V34     V25    10.0   1_455     S
V34     Er40    10.0   .     S
V35     V32    10.0   1_565     S
V35     V36    9.999   .     S
V36     V27    10.0   1_455     S
V36     Er39    10.0   .     S
Er37     Er38    10.0   1_554     S
Er37     Er39    10.0   1_655     S
Er38     Er37    10.0   1_556     S
Er38     Er40    10.0   1_655     S
Er39     Er40    10.0   1_554     S
Er39     Er37    10.0   1_455     S
Er40     Er39    10.0   1_556     S
Er40     Er38    10.0   1_455     S
