data_cmd
_audit_creation_date              2020-02-04
_audit_creation_method            'Pymatgen'
_symmetry_space_group_name_H-M    'P1'
_symmetry_Int_Tables_number       1
loop_
_symmetry_equiv_pos_as_xyz
  x,y,z
_cell_length_a                    78.5234
_cell_length_b                    78.5234
_cell_length_c                    28.4504
_cell_angle_alpha                 90.0
_cell_angle_beta                 90.0
_cell_angle_gamma                 90.0
loop_
_atom_site_label
_atom_site_type_symbol
_atom_site_fract_x
_atom_site_fract_y
_atom_site_fract_z
Ti1     Ti     0.4363   0.8846   0.6758
Ti2     Ti     0.4363   0.8846   0.3242
Ti3     Ti     0.4363   0.1154   0.6758
Ti4     Ti     0.4363   0.1154   0.3242
V5     V     0.4363   0.0   0.1757
V6     V     0.4363   0.0   0.8243
Ti7     Ti     0.5637   0.8846   0.3242
Ti8     Ti     0.5637   0.8846   0.6758
Ti9     Ti     0.5637   0.1154   0.6758
Ti10     Ti     0.5637   0.1154   0.3242
V11     V     0.5637   0.0   0.8243
V12     V     0.5637   0.0   0.1757
Ti13     Ti     0.8846   0.5637   0.6758
Ti14     Ti     0.8846   0.5637   0.3242
Ti15     Ti     0.1154   0.5637   0.6758
Ti16     Ti     0.1154   0.5637   0.3242
V17     V     0.0   0.5637   0.1757
V18     V     0.0   0.5637   0.8243
Ti19     Ti     0.8846   0.4363   0.3242
Ti20     Ti     0.8846   0.4363   0.6758
Ti21     Ti     0.1154   0.4363   0.6758
Ti22     Ti     0.1154   0.4363   0.3242
V23     V     0.0   0.4363   0.1757
V24     V     0.0   0.4363   0.8243
Ce25     Ce     0.5637   0.6537   0.3243
Ce26     Ce     0.5637   0.6537   0.6757
Er27     Er     0.5637   0.7692   0.8243
Er28     Er     0.5637   0.7692   0.1757
Ce29     Ce     0.6537   0.5637   0.3243
Ce30     Ce     0.6537   0.5637   0.6757
Er31     Er     0.7692   0.5637   0.1757
Er32     Er     0.7692   0.5637   0.8243
Ce33     Ce     0.3463   0.5637   0.6757
Ce34     Ce     0.3463   0.5637   0.3243
Er35     Er     0.2308   0.5637   0.1757
Er36     Er     0.2308   0.5637   0.8243
Ce37     Ce     0.4363   0.6537   0.3243
Ce38     Ce     0.4363   0.6537   0.6757
Er39     Er     0.4363   0.7692   0.1757
Er40     Er     0.4363   0.7692   0.8243
Ce41     Ce     0.3463   0.4363   0.3243
Ce42     Ce     0.3463   0.4363   0.6757
Er43     Er     0.2308   0.4363   0.1757
Er44     Er     0.2308   0.4363   0.8243
Ce45     Ce     0.4363   0.3463   0.6757
Ce46     Ce     0.4363   0.3463   0.3243
Er47     Er     0.4363   0.2308   0.1757
Er48     Er     0.4363   0.2308   0.8243
Ce49     Ce     0.5637   0.3463   0.3243
Ce50     Ce     0.5637   0.3463   0.6757
Er51     Er     0.5637   0.2308   0.1757
Er52     Er     0.5637   0.2308   0.8243
Ce53     Ce     0.6537   0.4363   0.6757
Ce54     Ce     0.6537   0.4363   0.3243
Er55     Er     0.7692   0.4363   0.8243
Er56     Er     0.7692   0.4363   0.1757
loop_
_geom_bond_atom_site_label_1
_geom_bond_atom_site_label_2
_geom_bond_distance
_geom_bond_site_symmetry_2
_ccdc_geom_bond_type
Ti1     V6    10.0   1_565     S
Ti1     Ti2    10.0   .     S
Ti1     Ti8    10.001   .     S
Ti1     Er40    10.0   .     S
Ti2     V5    10.0   1_565     S
Ti2     Ti7    10.001   .     S
Ti2     Er39    10.0   .     S
Ti3     V6    10.0   .     S
Ti3     Ti4    10.0   .     S
Ti3     Ti9    10.001   .     S
Ti3     Er48    10.0   .     S
Ti4     V5    10.0   .     S
Ti4     Ti10    10.001   .     S
Ti4     Er47    10.0   .     S
V5     Ti2    10.0   1_545     S
V5     V6    10.0   1_554     S
V5     V12    10.001   .     S
V6     Ti1    10.0   1_545     S
V6     V5    10.0   1_556     S
V6     V11    10.001   .     S
Ti7     V12    10.0   1_565     S
Ti7     Ti8    10.0   .     S
Ti7     Er28    10.0   .     S
Ti8     V11    10.0   1_565     S
Ti8     Er27    10.0   .     S
Ti9     V11    10.0   .     S
Ti9     Ti10    10.0   .     S
Ti9     Er52    10.0   .     S
Ti10     V12    10.0   .     S
Ti10     Er51    10.0   .     S
V11     Ti8    10.0   1_545     S
V11     V12    10.0   1_556     S
V12     Ti7    10.0   1_545     S
V12     V11    10.0   1_554     S
Ti13     V18    10.0   1_655     S
Ti13     Ti14    10.0   .     S
Ti13     Ti20    10.001   .     S
Ti13     Er32    10.0   .     S
Ti14     V17    10.0   1_655     S
Ti14     Ti19    10.001   .     S
Ti14     Er31    10.0   .     S
Ti15     V18    10.0   .     S
Ti15     Ti16    10.0   .     S
Ti15     Ti21    10.001   .     S
Ti15     Er36    10.0   .     S
Ti16     V17    10.0   .     S
Ti16     Ti22    10.001   .     S
Ti16     Er35    10.0   .     S
V17     Ti14    10.0   1_455     S
V17     V18    10.0   1_554     S
V17     V23    10.001   .     S
V18     Ti13    10.0   1_455     S
V18     V17    10.0   1_556     S
V18     V24    10.001   .     S
Ti19     V23    10.0   1_655     S
Ti19     Ti20    10.0   .     S
Ti19     Er56    10.0   .     S
Ti20     V24    10.0   1_655     S
Ti20     Er55    10.0   .     S
Ti21     V24    10.0   .     S
Ti21     Ti22    10.0   .     S
Ti21     Er44    10.0   .     S
Ti22     V23    10.0   .     S
Ti22     Er43    10.0   .     S
V23     Ti19    10.0   1_455     S
V23     V24    10.0   1_554     S
V24     Ti20    10.0   1_455     S
V24     V23    10.0   1_556     S
Ce25     Ce26    10.0   .     S
Ce25     Er28    10.0   .     S
Ce25     Ce29    10.0   .     S
Ce25     Ce37    10.001   .     S
Ce26     Er27    10.0   .     S
Ce26     Ce30    10.0   .     S
Ce26     Ce38    10.001   .     S
Er27     Er28    10.0   1_556     S
Er27     Er40    10.001   .     S
Er28     Er27    10.0   1_554     S
Er28     Er39    10.001   .     S
Ce29     Ce30    10.0   .     S
Ce29     Er31    10.0   .     S
Ce29     Ce54    10.001   .     S
Ce30     Er32    10.0   .     S
Ce30     Ce53    10.001   .     S
Er31     Er32    10.0   1_554     S
Er31     Er56    10.001   .     S
Er32     Er31    10.0   1_556     S
Er32     Er55    10.001   .     S
Ce33     Ce34    10.0   .     S
Ce33     Er36    10.0   .     S
Ce33     Ce38    10.0   .     S
Ce33     Ce42    10.001   .     S
Ce34     Er35    10.0   .     S
Ce34     Ce37    10.0   .     S
Ce34     Ce41    10.001   .     S
Er35     Er36    10.0   1_554     S
Er35     Er43    10.001   .     S
Er36     Er35    10.0   1_556     S
Er36     Er44    10.001   .     S
Ce37     Ce38    10.0   .     S
Ce37     Er39    10.0   .     S
Ce38     Er40    10.0   .     S
Er39     Er40    10.0   1_554     S
Er40     Er39    10.0   1_556     S
Ce41     Ce42    10.0   .     S
Ce41     Er43    10.0   .     S
Ce41     Ce46    10.0   .     S
Ce42     Er44    10.0   .     S
Ce42     Ce45    10.0   .     S
Er43     Er44    10.0   1_554     S
Er44     Er43    10.0   1_556     S
Ce45     Ce46    10.0   .     S
Ce45     Er48    10.0   .     S
Ce45     Ce50    10.001   .     S
Ce46     Er47    10.0   .     S
Ce46     Ce49    10.001   .     S
Er47     Er48    10.0   1_554     S
Er47     Er51    10.001   .     S
Er48     Er47    10.0   1_556     S
Er48     Er52    10.001   .     S
Ce49     Ce50    10.0   .     S
Ce49     Er51    10.0   .     S
Ce49     Ce54    10.0   .     S
Ce50     Er52    10.0   .     S
Ce50     Ce53    10.0   .     S
Er51     Er52    10.0   1_554     S
Er52     Er51    10.0   1_556     S
Ce53     Ce54    10.0   .     S
Ce53     Er55    10.0   .     S
Ce54     Er56    10.0   .     S
Er55     Er56    10.0   1_556     S
Er56     Er55    10.0   1_554     S
