data_cnd
_audit_creation_date              2020-02-04
_audit_creation_method            'Pymatgen'
_symmetry_space_group_name_H-M    'P1'
_symmetry_Int_Tables_number       1
loop_
_symmetry_equiv_pos_as_xyz
  x,y,z
_cell_length_a                    44.3054
_cell_length_b                    44.3054
_cell_length_c                    214.038
_cell_angle_alpha                 90.0
_cell_angle_beta                 90.0
_cell_angle_gamma                 120.0
loop_
_atom_site_label
_atom_site_type_symbol
_atom_site_fract_x
_atom_site_fract_y
_atom_site_fract_z
Be1     Be     0.0743   0.5371   0.25
He2     He     0.2023   0.4045   0.25
Be3     Be     0.4629   0.5371   0.25
He4     He     0.5955   0.7977   0.25
He5     He     0.2023   0.7977   0.25
Be6     Be     0.4629   0.9257   0.25
He7     He     0.7977   0.5955   0.75
He8     He     0.7977   0.2023   0.75
Be9     Be     0.9257   0.4629   0.75
Be10     Be     0.5371   0.0743   0.75
He11     He     0.4045   0.2023   0.75
Be12     Be     0.5371   0.4629   0.75
Si13     Si     0.0   0.0   0.7266
Si14     Si     0.0   0.0   0.7734
Si15     Si     0.0   0.0   0.2734
Si16     Si     0.0   0.0   0.2266
B17     B     0.7226   0.0517   0.4786
B18     B     0.6709   0.9483   0.5214
N19     N     0.8762   0.1238   0.5459
B20     B     0.7226   0.6709   0.4786
B21     B     0.6709   0.7226   0.5214
N22     N     0.7524   0.8762   0.4541
N23     N     0.8762   0.7524   0.5459
B24     B     0.0517   0.7226   0.5214
B25     B     0.9483   0.6709   0.4786
B26     B     0.3291   0.0517   0.4786
B27     B     0.2774   0.9483   0.5214
B28     B     0.3291   0.2774   0.4786
B29     B     0.2774   0.3291   0.5214
N30     N     0.2476   0.1238   0.5459
B31     B     0.0517   0.3291   0.5214
B32     B     0.9483   0.2774   0.4786
N33     N     0.1238   0.2476   0.4541
N34     N     0.1238   0.8762   0.4541
Ti35     Ti     0.7951   0.5902   0.5825
Ti36     Ti     0.7951   0.2049   0.5825
Ti37     Ti     0.4098   0.2049   0.5825
C38     C     0.4577   0.9154   0.5436
Ce39     Ce     0.5346   0.0693   0.5813
C40     C     0.0846   0.5423   0.5436
Ce41     Ce     0.9307   0.4654   0.5813
C42     C     0.4577   0.5423   0.5436
Ce43     Ce     0.5346   0.4654   0.5813
Li44     Li     0.0857   0.5429   0.6188
Li45     Li     0.4571   0.9143   0.6188
Na46     Na     0.3333   0.6667   0.6043
Li47     Li     0.4571   0.5429   0.6188
Mg48     Mg     0.3333   0.6667   0.5575
H49     H     0.8757   0.7515   0.7126
H50     H     0.2485   0.1243   0.7126
H51     H     0.8757   0.1243   0.7126
O52     O     0.0   0.0   0.5605
F53     F     0.0   0.0   0.6072
Al54     Al     0.6661   0.7202   0.6894
Al55     Al     0.6661   0.9459   0.6894
Al56     Al     0.2798   0.3339   0.6894
Al57     Al     0.0541   0.3339   0.6894
Al58     Al     0.0541   0.7202   0.6894
Al59     Al     0.2798   0.9459   0.6894
Er60     Er     0.6651   0.9454   0.6426
Er61     Er     0.0546   0.3349   0.6426
S62     S     0.8743   0.1257   0.6196
Er63     Er     0.6651   0.7197   0.6426
Er64     Er     0.0546   0.7197   0.6426
S65     S     0.8743   0.7487   0.6196
Er66     Er     0.2803   0.3349   0.6426
Er67     Er     0.2803   0.9454   0.6426
S68     S     0.2513   0.1257   0.6196
V69     V     0.0842   0.5421   0.7871
V70     V     0.4579   0.9158   0.7871
V71     V     0.0842   0.5421   0.7129
V72     V     0.4579   0.9158   0.7129
V73     V     0.4579   0.5421   0.7129
V74     V     0.4579   0.5421   0.7871
Ne75     Ne     0.3333   0.6667   0.7266
Ne76     Ne     0.3333   0.6667   0.7734
Ti77     Ti     0.7951   0.5902   0.9175
Ti78     Ti     0.7951   0.2049   0.9175
Ti79     Ti     0.4098   0.2049   0.9175
C80     C     0.0846   0.5423   0.9564
Ce81     Ce     0.9307   0.4654   0.9187
C82     C     0.4577   0.5423   0.9564
Ce83     Ce     0.5346   0.4654   0.9187
C84     C     0.4577   0.9154   0.9564
Ce85     Ce     0.5346   0.0693   0.9187
Li86     Li     0.0857   0.5429   0.8812
Li87     Li     0.4571   0.9143   0.8812
Na88     Na     0.3333   0.6667   0.8957
Li89     Li     0.4571   0.5429   0.8812
Mg90     Mg     0.3333   0.6667   0.9425
H91     H     0.8757   0.7515   0.7874
H92     H     0.2485   0.1243   0.7874
H93     H     0.8757   0.1243   0.7874
O94     O     0.0   0.0   0.9395
F95     F     0.0   0.0   0.8928
Al96     Al     0.6661   0.7202   0.8106
Al97     Al     0.6661   0.9459   0.8106
Al98     Al     0.2798   0.3339   0.8106
Al99     Al     0.0541   0.3339   0.8106
Al100     Al     0.0541   0.7202   0.8106
Al101     Al     0.2798   0.9459   0.8106
Er102     Er     0.6651   0.9454   0.8574
Er103     Er     0.0546   0.3349   0.8574
S104     S     0.8743   0.1257   0.8804
Er105     Er     0.6651   0.7197   0.8574
Er106     Er     0.0546   0.7197   0.8574
S107     S     0.8743   0.7487   0.8804
Er108     Er     0.2803   0.3349   0.8574
Er109     Er     0.2803   0.9454   0.8574
S110     S     0.2513   0.1257   0.8804
B111     B     0.7226   0.0517   0.0214
B112     B     0.6709   0.9483   0.9786
B113     B     0.9483   0.2774   0.0214
B114     B     0.0517   0.3291   0.9786
N115     N     0.8762   0.1238   0.9541
B116     B     0.9483   0.6709   0.0214
B117     B     0.0517   0.7226   0.9786
B118     B     0.7226   0.6709   0.0214
B119     B     0.6709   0.7226   0.9786
N120     N     0.8762   0.7524   0.9541
N121     N     0.7524   0.8762   0.0459
B122     B     0.3291   0.2774   0.0214
B123     B     0.2774   0.3291   0.9786
N124     N     0.2476   0.1238   0.9541
B125     B     0.3291   0.0517   0.0214
B126     B     0.2774   0.9483   0.9786
N127     N     0.1238   0.2476   0.0459
N128     N     0.1238   0.8762   0.0459
Ti129     Ti     0.5902   0.7951   0.0825
Ti130     Ti     0.2049   0.7951   0.0825
C131     C     0.9154   0.4577   0.0436
Ce132     Ce     0.0693   0.5346   0.0813
C133     C     0.5423   0.0846   0.0436
Ce134     Ce     0.4654   0.9307   0.0813
C135     C     0.5423   0.4577   0.0436
Ce136     Ce     0.4654   0.5346   0.0813
Li137     Li     0.5429   0.4571   0.1188
Na138     Na     0.6667   0.3333   0.1043
Li139     Li     0.9143   0.4571   0.1188
Li140     Li     0.5429   0.0857   0.1188
Mg141     Mg     0.6667   0.3333   0.0575
Ti142     Ti     0.2049   0.4098   0.0825
H143     H     0.1243   0.2485   0.2126
H144     H     0.1243   0.8757   0.2126
H145     H     0.7515   0.8757   0.2126
O146     O     0.0   0.0   0.0605
F147     F     0.0   0.0   0.1072
Al148     Al     0.7202   0.6661   0.1894
Al149     Al     0.9459   0.6661   0.1894
Al150     Al     0.9459   0.2798   0.1894
Al151     Al     0.7202   0.0541   0.1894
Er152     Er     0.7197   0.0546   0.1426
Er153     Er     0.7197   0.6651   0.1426
S154     S     0.7487   0.8743   0.1196
Er155     Er     0.9454   0.2803   0.1426
Er156     Er     0.3349   0.2803   0.1426
S157     S     0.1257   0.2513   0.1196
Er158     Er     0.9454   0.6651   0.1426
Er159     Er     0.3349   0.0546   0.1426
S160     S     0.1257   0.8743   0.1196
Al161     Al     0.3339   0.2798   0.1894
Al162     Al     0.3339   0.0541   0.1894
V163     V     0.5421   0.4579   0.2129
V164     V     0.9158   0.4579   0.2129
V165     V     0.5421   0.0842   0.2129
V166     V     0.9158   0.4579   0.2871
V167     V     0.5421   0.0842   0.2871
V168     V     0.5421   0.4579   0.2871
Ne169     Ne     0.6667   0.3333   0.2734
Ne170     Ne     0.6667   0.3333   0.2266
Ti171     Ti     0.5902   0.7951   0.4175
Ti172     Ti     0.2049   0.7951   0.4175
C173     C     0.5423   0.4577   0.4564
Ce174     Ce     0.4654   0.5346   0.4187
C175     C     0.9154   0.4577   0.4564
Ce176     Ce     0.0693   0.5346   0.4187
C177     C     0.5423   0.0846   0.4564
Ce178     Ce     0.4654   0.9307   0.4187
Li179     Li     0.5429   0.0857   0.3812
Li180     Li     0.9143   0.4571   0.3812
Na181     Na     0.6667   0.3333   0.3957
Li182     Li     0.5429   0.4571   0.3812
Mg183     Mg     0.6667   0.3333   0.4425
Ti184     Ti     0.2049   0.4098   0.4175
H185     H     0.1243   0.2485   0.2874
H186     H     0.1243   0.8757   0.2874
H187     H     0.7515   0.8757   0.2874
O188     O     0.0   0.0   0.4395
F189     F     0.0   0.0   0.3928
Al190     Al     0.9459   0.2798   0.3106
Al191     Al     0.7202   0.0541   0.3106
Al192     Al     0.7202   0.6661   0.3106
Al193     Al     0.9459   0.6661   0.3106
Er194     Er     0.7197   0.6651   0.3574
Er195     Er     0.7197   0.0546   0.3574
S196     S     0.7487   0.8743   0.3804
Er197     Er     0.3349   0.0546   0.3574
Er198     Er     0.9454   0.6651   0.3574
S199     S     0.1257   0.8743   0.3804
Er200     Er     0.9454   0.2803   0.3574
Er201     Er     0.3349   0.2803   0.3574
S202     S     0.1257   0.2513   0.3804
Al203     Al     0.3339   0.2798   0.3106
Al204     Al     0.3339   0.0541   0.3106
loop_
_geom_bond_atom_site_label_1
_geom_bond_atom_site_label_2
_geom_bond_distance
_geom_bond_site_symmetry_2
_ccdc_geom_bond_type
Be1     V164    10.0   1_455     S
Be1     V166    10.0   1_455     S
Be1     He2    10.0   .     S
Be1     He5    10.0   .     S
He2     H143    10.0   .     S
He2     H185    10.0   .     S
He2     Be3    10.0   .     S
Be3     V163    10.0   .     S
Be3     V168    10.0   .     S
Be3     He4    10.0   .     S
He4     H145    10.0   .     S
He4     H187    10.0   .     S
He4     Be6    10.0   .     S
He5     H144    10.0   .     S
He5     H186    10.0   .     S
He5     Be6    10.0   .     S
Be6     V165    10.0   1_565     S
Be6     V167    10.0   1_565     S
He7     H49    10.0   .     S
He7     H91    10.0   .     S
He7     Be9    10.0   .     S
He7     Be12    10.0   .     S
He8     H51    10.0   .     S
He8     H93    10.0   .     S
He8     Be9    10.0   .     S
He8     Be10    10.0   .     S
Be9     V71    10.0   1_655     S
Be9     V69    10.0   1_655     S
Be10     V72    10.0   1_545     S
Be10     V70    10.0   1_545     S
Be10     He11    10.0   .     S
He11     H50    10.0   .     S
He11     H92    10.0   .     S
He11     Be12    10.0   .     S
Be12     V73    10.0   .     S
Be12     V74    10.0   .     S
Si13     H50    10.0   .     S
Si13     H51    10.0   1_455     S
Si13     H49    10.0   1_445     S
Si13     Si14    10.0   .     S
Si14     H92    10.0   .     S
Si14     H93    10.0   1_455     S
Si14     H91    10.0   1_445     S
Si15     H186    10.0   1_545     S
Si15     H185    10.0   .     S
Si15     H187    10.0   1_445     S
Si15     Si16    10.0   .     S
Si16     H144    10.0   1_545     S
Si16     H143    10.0   .     S
Si16     H145    10.0   1_445     S
B17     B18    9.999   1_545     S
B17     N22    10.0   1_545     S
B17     B32    10.0   .     S
B17     C177    10.001   .     S
B18     B17    9.999   1_565     S
B18     N19    10.0   1_565     S
B18     B21    10.0   .     S
B18     C38    10.001   .     S
N19     B18    10.0   1_545     S
N19     B31    10.0   1_655     S
N19     O52    10.0   1_655     S
N19     Ti36    10.002   .     S
B20     B21    9.999   .     S
B20     N22    10.0   .     S
B20     B25    10.0   .     S
B20     C173    10.001   .     S
B21     N23    10.0   .     S
B21     C42    10.001   .     S
N22     B17    10.0   1_565     S
N22     O188    10.0   1_665     S
N22     Ti171    10.002   .     S
N23     B24    10.0   1_655     S
N23     O52    10.0   1_665     S
N23     Ti35    10.002   .     S
B24     B25    9.999   1_455     S
B24     N23    10.0   1_455     S
B24     B27    10.0   .     S
B24     C40    10.001   .     S
B25     B24    9.999   1_655     S
B25     N34    10.0   1_655     S
B25     C175    10.001   .     S
B26     B27    9.999   1_545     S
B26     N34    10.0   1_545     S
B26     B28    10.0   .     S
B26     C177    10.001   .     S
B27     B26    9.999   1_565     S
B27     N30    10.0   1_565     S
B27     C38    10.0   .     S
B28     B29    9.999   .     S
B28     N33    10.0   .     S
B28     C173    10.001   .     S
B29     N30    10.0   .     S
B29     B31    10.0   .     S
B29     C42    10.001   .     S
N30     B27    10.0   1_545     S
N30     O52    10.0   .     S
N30     Ti37    10.002   .     S
B31     B32    9.999   1_455     S
B31     N19    10.0   1_455     S
B31     C40    10.0   .     S
B32     B31    9.999   1_655     S
B32     N33    10.0   1_655     S
B32     C175    10.001   .     S
N33     B32    10.0   1_455     S
N33     O188    10.0   .     S
N33     Ti184    10.002   .     S
N34     B25    10.0   1_455     S
N34     B26    10.0   1_565     S
N34     O188    10.0   1_565     S
N34     Ti172    10.002   .     S
Ti35     S65    10.0   .     S
Ti35     Ce43    10.0   .     S
Ti35     Ce41    10.0   .     S
Ti36     S62    10.0   .     S
Ti36     Ce39    10.0   .     S
Ti36     Ce41    10.0   .     S
Ti37     S68    10.0   .     S
Ti37     Ce39    10.0   .     S
Ti37     Ce43    10.0   .     S
C38     Ce39    9.999   1_565     S
C38     Mg48    10.0   .     S
Ce39     C38    9.999   1_545     S
Ce39     Li45    10.0   1_545     S
C40     Ce41    9.999   1_455     S
C40     Mg48    10.0   .     S
Ce41     C40    9.999   1_655     S
Ce41     Li44    10.0   1_655     S
C42     Ce43    9.999   .     S
C42     Mg48    10.0   .     S
Ce43     Li47    10.0   .     S
Li44     Ce41    10.0   1_455     S
Li44     Na46    10.0   .     S
Li44     Er61    10.0   .     S
Li44     Er64    10.0   .     S
Li45     Ce39    10.0   1_565     S
Li45     Na46    10.0   .     S
Li45     Er60    10.0   .     S
Li45     Er67    10.0   .     S
Na46     Li47    10.0   .     S
Na46     Mg48    10.0   .     S
Li47     Er63    10.0   .     S
Li47     Er66    10.0   .     S
H49     Si13    10.0   1_665     S
H49     Al54    10.0   .     S
H49     Al58    10.0   1_655     S
H50     Al59    10.0   1_545     S
H50     Al56    10.0   .     S
H51     Si13    10.0   1_655     S
H51     Al57    10.0   1_655     S
H51     Al55    10.0   1_545     S
O52     N19    10.0   1_455     S
O52     N23    10.0   1_445     S
O52     F53    10.0   .     S
F53     S62    10.0   1_455     S
F53     S68    10.0   .     S
F53     S65    10.0   1_445     S
Al54     Al55    10.0   .     S
Al54     Er63    10.0   .     S
Al54     V73    10.0   .     S
Al55     H51    10.0   1_565     S
Al55     Er60    10.0   .     S
Al55     V72    10.0   .     S
Al56     Al57    10.0   .     S
Al56     Er66    10.0   .     S
Al56     V73    10.0   .     S
Al57     H51    10.0   1_455     S
Al57     Er61    10.0   .     S
Al57     V71    10.0   .     S
Al58     H49    10.0   1_455     S
Al58     Al59    10.0   .     S
Al58     Er64    10.0   .     S
Al58     V71    10.0   .     S
Al59     H50    10.0   1_565     S
Al59     Er67    10.0   .     S
Al59     V72    10.0   .     S
Er60     S62    9.999   1_565     S
Er60     Er63    10.0   .     S
Er61     S62    9.999   1_455     S
Er61     Er66    10.0   .     S
S62     F53    10.0   1_655     S
S62     Er60    9.999   1_545     S
S62     Er61    9.999   1_655     S
Er63     S65    9.999   .     S
Er64     S65    10.0   1_455     S
Er64     Er67    10.0   .     S
S65     F53    10.0   1_665     S
S65     Er64    10.0   1_655     S
Er66     S68    9.999   .     S
Er67     S68    9.999   1_565     S
S68     Er67    9.999   1_545     S
V69     Be9    10.0   1_455     S
V69     Ne76    10.0   .     S
V69     Al99    10.0   .     S
V69     Al100    10.0   .     S
V70     Be10    10.0   1_565     S
V70     Ne76    10.0   .     S
V70     Al101    10.0   .     S
V70     Al97    10.0   .     S
V71     Be9    10.0   1_455     S
V71     Ne75    10.0   .     S
V72     Be10    10.0   1_565     S
V72     Ne75    10.0   .     S
V73     Ne75    10.0   .     S
V74     Ne76    10.0   .     S
V74     Al98    10.0   .     S
V74     Al96    10.0   .     S
Ne75     Ne76    10.0   .     S
Ti77     S107    10.0   .     S
Ti77     Ce83    10.0   .     S
Ti77     Ce81    10.0   .     S
Ti77     N120    10.002   .     S
Ti78     S104    10.0   .     S
Ti78     Ce85    10.0   .     S
Ti78     Ce81    10.0   .     S
Ti78     N115    10.002   .     S
Ti79     S110    10.0   .     S
Ti79     Ce85    10.0   .     S
Ti79     Ce83    10.0   .     S
Ti79     N124    10.002   .     S
C80     Ce81    9.999   1_455     S
C80     B117    10.0   .     S
C80     Mg90    10.0   .     S
C80     B114    10.001   .     S
Ce81     C80    9.999   1_655     S
Ce81     Li86    10.0   1_655     S
C82     Ce83    9.999   .     S
C82     B123    10.001   .     S
C82     B119    10.001   .     S
C82     Mg90    10.0   .     S
Ce83     Li89    10.0   .     S
C84     Ce85    9.999   1_565     S
C84     B112    10.0   .     S
C84     Mg90    10.0   .     S
C84     B126    10.001   .     S
Ce85     C84    9.999   1_545     S
Ce85     Li87    10.0   1_545     S
Li86     Ce81    10.0   1_455     S
Li86     Na88    10.0   .     S
Li86     Er103    10.0   .     S
Li86     Er106    10.0   .     S
Li87     Ce85    10.0   1_565     S
Li87     Na88    10.0   .     S
Li87     Er102    10.0   .     S
Li87     Er109    10.0   .     S
Na88     Li89    10.0   .     S
Na88     Mg90    10.0   .     S
Li89     Er105    10.0   .     S
Li89     Er108    10.0   .     S
H91     Si14    10.0   1_665     S
H91     Al96    10.0   .     S
H91     Al100    10.0   1_655     S
H92     Al101    10.0   1_545     S
H92     Al98    10.0   .     S
H93     Si14    10.0   1_655     S
H93     Al99    10.0   1_655     S
H93     Al97    10.0   1_545     S
O94     N115    10.0   1_455     S
O94     N124    10.0   .     S
O94     N120    10.0   1_445     S
O94     F95    10.0   .     S
F95     S104    10.0   1_455     S
F95     S110    10.0   .     S
F95     S107    10.0   1_445     S
Al96     Al97    10.0   .     S
Al96     Er105    10.0   .     S
Al97     H93    10.0   1_565     S
Al97     Er102    10.0   .     S
Al98     Al99    10.0   .     S
Al98     Er108    10.0   .     S
Al99     H93    10.0   1_455     S
Al99     Er103    10.0   .     S
Al100     Al101    10.0   .     S
Al100     Er106    10.0   .     S
Al100     H91    10.0   1_455     S
Al101     H92    10.0   1_565     S
Al101     Er109    10.0   .     S
Er102     S104    9.999   1_565     S
Er102     Er105    10.0   .     S
Er103     S104    9.999   1_455     S
Er103     Er108    10.0   .     S
S104     F95    10.0   1_655     S
S104     Er102    9.999   1_545     S
S104     Er103    9.999   1_655     S
Er105     S107    10.0   .     S
Er106     S107    9.999   1_455     S
Er106     Er109    10.0   .     S
S107     F95    10.0   1_665     S
S107     Er106    9.999   1_655     S
Er108     S110    9.999   .     S
Er109     S110    9.999   1_565     S
S110     Er109    9.999   1_545     S
B111     B112    9.999   1_544     S
B111     N121    10.0   1_545     S
B111     B113    10.0   .     S
B111     C133    10.0   .     S
B112     B111    9.999   1_566     S
B112     N115    10.0   1_565     S
B112     B119    10.0   .     S
B113     B114    9.999   1_654     S
B113     N127    10.0   1_655     S
B113     C131    10.001   .     S
B114     B113    9.999   1_456     S
B114     N115    10.0   1_455     S
B114     B123    10.0   .     S
N115     O94    10.0   1_655     S
N115     B114    10.0   1_655     S
N115     B112    10.0   1_545     S
B116     B117    9.999   1_654     S
B116     N128    10.0   1_655     S
B116     B118    10.0   .     S
B116     C131    10.0   .     S
B117     B116    9.999   1_456     S
B117     N120    10.0   1_455     S
B117     B126    10.0   .     S
B118     B119    9.999   1_554     S
B118     N121    10.0   .     S
B118     C135    10.001   .     S
B119     B118    9.999   1_556     S
B119     N120    10.0   .     S
N120     O94    10.0   1_665     S
N120     B117    10.0   1_655     S
N121     B111    10.0   1_565     S
N121     O146    10.0   1_665     S
N121     Ti129    10.002   .     S
B122     B123    9.999   1_554     S
B122     N127    10.0   .     S
B122     B125    10.0   .     S
B122     C135    10.001   .     S
B123     B122    9.999   1_556     S
B123     N124    10.0   .     S
N124     B126    10.0   1_545     S
B125     B126    9.999   1_544     S
B125     N128    10.0   1_545     S
B125     C133    10.001   .     S
B126     B125    9.999   1_566     S
B126     N124    10.0   1_565     S
N127     B113    10.0   1_455     S
N127     O146    10.0   .     S
N127     Ti142    10.002   .     S
N128     B116    10.0   1_455     S
N128     B125    10.0   1_565     S
N128     O146    10.0   1_565     S
N128     Ti130    10.002   .     S
Ti129     S154    10.0   .     S
Ti129     Ce136    10.0   .     S
Ti129     Ce134    10.0   .     S
Ti130     S160    10.0   .     S
Ti130     Ce132    10.0   .     S
Ti130     Ce134    10.0   .     S
C131     Ce132    9.999   1_655     S
C131     Mg141    10.0   .     S
Ce132     C131    9.999   1_455     S
Ce132     Li139    10.0   1_455     S
Ce132     Ti142    10.0   .     S
C133     Ce134    9.999   1_545     S
C133     Mg141    10.0   .     S
Ce134     C133    9.999   1_565     S
Ce134     Li140    10.0   1_565     S
C135     Ce136    9.999   .     S
C135     Mg141    10.0   .     S
Ce136     Li137    10.0   .     S
Ce136     Ti142    10.0   .     S
Li137     Na138    10.0   .     S
Li137     Er153    10.0   .     S
Li137     Er156    10.0   .     S
Na138     Li140    10.0   .     S
Na138     Li139    10.0   .     S
Na138     Mg141    10.0   .     S
Li139     Ce132    10.0   1_655     S
Li139     Er155    10.0   .     S
Li139     Er158    10.0   .     S
Li140     Ce134    10.0   1_545     S
Li140     Er152    10.0   .     S
Li140     Er159    10.0   .     S
Ti142     S157    10.0   .     S
H143     Al150    10.0   1_455     S
H143     Al161    10.0   .     S
H144     Si16    10.0   1_565     S
H144     Al149    10.0   1_455     S
H144     Al162    10.0   1_565     S
H145     Si16    10.0   1_665     S
H145     Al148    10.0   .     S
H145     Al151    10.0   1_565     S
O146     N128    10.0   1_545     S
O146     N121    10.0   1_445     S
O146     F147    10.0   .     S
F147     S160    10.0   1_545     S
F147     S154    10.0   1_445     S
F147     S157    10.0   .     S
Al148     Al149    10.0   .     S
Al148     Er153    10.0   .     S
Al148     V163    10.0   .     S
Al149     H144    10.0   1_655     S
Al149     Er158    10.0   .     S
Al149     V164    10.0   .     S
Al150     H143    10.0   1_655     S
Al150     Al151    10.0   .     S
Al150     Er155    10.0   .     S
Al150     V164    10.0   .     S
Al151     Er152    10.0   .     S
Al151     V165    10.0   .     S
Al151     H145    10.0   1_545     S
Er152     S154    9.999   1_545     S
Er152     Er155    10.0   .     S
Er153     S154    10.0   .     S
Er153     Er158    10.0   .     S
S154     F147    10.0   1_665     S
S154     Er152    9.999   1_565     S
Er155     S157    9.999   1_655     S
Er156     S157    9.999   .     S
Er156     Er159    10.0   .     S
Er156     Al161    10.0   .     S
S157     Er155    9.999   1_455     S
Er158     S160    9.999   1_655     S
Er159     S160    9.999   1_545     S
Er159     Al162    10.0   .     S
S160     F147    10.0   1_565     S
S160     Er159    9.999   1_565     S
S160     Er158    9.999   1_455     S
Al161     Al162    10.0   .     S
Al161     V163    10.0   .     S
Al162     H144    10.0   1_545     S
Al162     V165    10.0   .     S
V163     Ne170    10.0   .     S
V164     Be1    10.0   1_655     S
V164     Ne170    10.0   .     S
V165     Be6    10.0   1_545     S
V165     Ne170    10.0   .     S
V166     Be1    10.0   1_655     S
V166     Ne169    10.0   .     S
V166     Al193    10.0   .     S
V166     Al190    10.0   .     S
V167     Be6    10.0   1_545     S
V167     Ne169    10.0   .     S
V167     Al191    10.0   .     S
V167     Al204    10.0   .     S
V168     Ne169    10.0   .     S
V168     Al203    10.0   .     S
V168     Al192    10.0   .     S
Ne169     Ne170    10.0   .     S
Ti171     S196    10.0   .     S
Ti171     Ce174    10.0   .     S
Ti171     Ce178    10.0   .     S
Ti172     S199    10.0   .     S
Ti172     Ce176    10.0   .     S
Ti172     Ce178    10.0   .     S
C173     Ce174    9.999   .     S
C173     Mg183    10.0   .     S
Ce174     Li182    10.0   .     S
Ce174     Ti184    10.0   .     S
C175     Ce176    9.999   1_655     S
C175     Mg183    10.0   .     S
Ce176     C175    9.999   1_455     S
Ce176     Li180    10.0   1_455     S
Ce176     Ti184    10.0   .     S
C177     Ce178    9.999   1_545     S
C177     Mg183    10.0   .     S
Ce178     C177    9.999   1_565     S
Ce178     Li179    10.0   1_565     S
Li179     Ce178    10.0   1_545     S
Li179     Na181    10.0   .     S
Li179     Er195    10.0   .     S
Li179     Er197    10.0   .     S
Li180     Ce176    10.0   1_655     S
Li180     Na181    10.0   .     S
Li180     Er198    10.0   .     S
Li180     Er200    10.0   .     S
Na181     Li182    10.0   .     S
Na181     Mg183    10.0   .     S
Li182     Er194    10.0   .     S
Li182     Er201    10.0   .     S
Ti184     S202    10.0   .     S
H185     Al203    10.0   .     S
H185     Al190    10.0   1_455     S
H186     Si15    10.0   1_565     S
H186     Al193    10.0   1_455     S
H186     Al204    10.0   1_565     S
H187     Si15    10.0   1_665     S
H187     Al191    10.0   1_565     S
H187     Al192    10.0   .     S
O188     N34    10.0   1_545     S
O188     N22    10.0   1_445     S
O188     F189    10.0   .     S
F189     S199    10.0   1_545     S
F189     S196    10.0   1_445     S
F189     S202    10.0   .     S
Al190     H185    10.0   1_655     S
Al190     Al191    10.0   .     S
Al190     Er200    10.0   .     S
Al191     H187    10.0   1_545     S
Al191     Er195    10.0   .     S
Al192     Al193    10.0   .     S
Al192     Er194    10.0   .     S
Al193     H186    10.0   1_655     S
Al193     Er198    10.0   .     S
Er194     S196    9.999   .     S
Er194     Er198    10.0   .     S
Er195     S196    10.0   1_545     S
Er195     Er200    10.0   .     S
S196     F189    10.0   1_665     S
S196     Er195    10.0   1_565     S
Er197     S199    9.999   1_545     S
Er197     Er201    10.0   .     S
Er197     Al204    10.0   .     S
Er198     S199    9.999   1_655     S
S199     F189    10.0   1_565     S
S199     Er197    9.999   1_565     S
S199     Er198    9.999   1_455     S
Er200     S202    9.999   1_655     S
Er201     S202    9.999   .     S
Er201     Al203    10.0   .     S
S202     Er200    9.999   1_455     S
Al203     Al204    10.0   .     S
Al204     H186    10.0   1_545     S
