data_cora
_audit_creation_date              2020-02-04
_audit_creation_method            'Pymatgen'
_symmetry_space_group_name_H-M    'P1'
_symmetry_Int_Tables_number       1
loop_
_symmetry_equiv_pos_as_xyz
  x,y,z
_cell_length_a                    57.1119
_cell_length_b                    57.1119
_cell_length_c                    157.1605
_cell_angle_alpha                 90.0
_cell_angle_beta                 90.0
_cell_angle_gamma                 120.0
loop_
_atom_site_label
_atom_site_type_symbol
_atom_site_fract_x
_atom_site_fract_y
_atom_site_fract_z
Er1     Er     0.3633   0.9338   0.0735
V2     V     0.4546   0.0902   0.1136
V3     V     0.4235   0.1213   0.0531
Er4     Er     0.2671   0.03   0.0931
Ce5     Ce     0.4291   0.6567   0.0422
Ce6     Ce     0.2276   0.5709   0.0422
Ce7     Ce     0.3433   0.7724   0.0422
Ti8     Ti     0.439   0.7624   0.9903
Ti9     Ti     0.3234   0.561   0.9903
Ti10     Ti     0.2376   0.6766   0.9903
Er11     Er     0.0662   0.4295   0.0735
V12     V     0.8787   0.3022   0.0531
V13     V     0.9098   0.3644   0.1136
Er14     Er     0.97   0.2371   0.0931
Er15     Er     0.7629   0.7329   0.0931
V16     V     0.6356   0.5454   0.1136
V17     V     0.6978   0.5765   0.0531
Er18     Er     0.5705   0.6367   0.0735
Ce19     Ce     0.9901   0.0958   0.1244
Ce20     Ce     0.1057   0.0099   0.1244
Ce21     Ce     0.9042   0.8943   0.1244
Ti22     Ti     0.0099   0.9042   0.1764
Ti23     Ti     0.8943   0.9901   0.1764
Ti24     Ti     0.0958   0.1057   0.1764
Er25     Er     0.3995   0.3033   0.2402
V26     V     0.2121   0.2432   0.2197
V27     V     0.2432   0.2121   0.2803
Er28     Er     0.3033   0.3995   0.2598
Er29     Er     0.0962   0.6967   0.2598
V30     V     0.0311   0.7879   0.2197
V31     V     0.9689   0.7568   0.2803
Er32     Er     0.9038   0.6005   0.2402
Ce33     Ce     0.6766   0.2376   0.2089
Ce34     Ce     0.7624   0.439   0.2089
Ce35     Ce     0.561   0.3234   0.2089
Ti36     Ti     0.5709   0.2276   0.1569
Ti37     Ti     0.6567   0.4291   0.1569
Ti38     Ti     0.7724   0.3433   0.1569
Er39     Er     0.6005   0.9038   0.2598
V40     V     0.7879   0.0311   0.2803
V41     V     0.7568   0.9689   0.2197
Er42     Er     0.6967   0.0962   0.2402
Ce43     Ce     0.439   0.7624   0.2911
Ce44     Ce     0.3234   0.561   0.2911
Ce45     Ce     0.2376   0.6766   0.2911
Ti46     Ti     0.2276   0.5709   0.3431
Ti47     Ti     0.4291   0.6567   0.3431
Ti48     Ti     0.3433   0.7724   0.3431
Er49     Er     0.3033   0.9038   0.7598
V50     V     0.2432   0.0311   0.7803
V51     V     0.2121   0.9689   0.7197
Er52     Er     0.3995   0.0962   0.7402
Ce53     Ce     0.2376   0.561   0.7911
Ce54     Ce     0.3234   0.7624   0.7911
Ce55     Ce     0.439   0.6766   0.7911
Ti56     Ti     0.4291   0.7724   0.8431
Ti57     Ti     0.3433   0.5709   0.8431
Ti58     Ti     0.2276   0.6567   0.8431
Er59     Er     0.6005   0.6967   0.7598
V60     V     0.7879   0.7568   0.7803
V61     V     0.7568   0.7879   0.7197
Er62     Er     0.6967   0.6005   0.7402
Er63     Er     0.9038   0.3033   0.7402
V64     V     0.9689   0.2121   0.7803
V65     V     0.0311   0.2432   0.7197
Er66     Er     0.0962   0.3995   0.7598
Ce67     Ce     0.561   0.2376   0.7089
Ce68     Ce     0.7624   0.3234   0.7089
Ce69     Ce     0.6766   0.439   0.7089
Ti70     Ti     0.5709   0.3433   0.6569
Ti71     Ti     0.7724   0.4291   0.6569
Ti72     Ti     0.6567   0.2276   0.6569
Er73     Er     0.9338   0.5705   0.9265
V74     V     0.1213   0.6978   0.9469
V75     V     0.0902   0.6356   0.8864
Er76     Er     0.03   0.7629   0.9069
Er77     Er     0.7329   0.97   0.9069
V78     V     0.5765   0.8787   0.9469
V79     V     0.5454   0.9098   0.8864
Er80     Er     0.6367   0.0662   0.9265
Ce81     Ce     0.0099   0.9042   0.8756
Ce82     Ce     0.0958   0.1057   0.8756
Ce83     Ce     0.8943   0.9901   0.8756
Ti84     Ti     0.9042   0.8943   0.8236
Ti85     Ti     0.1057   0.0099   0.8236
Ti86     Ti     0.9901   0.0958   0.8236
Er87     Er     0.2371   0.2671   0.9069
V88     V     0.3022   0.4235   0.9469
V89     V     0.3644   0.4546   0.8864
Er90     Er     0.4295   0.3633   0.9265
Ce91     Ce     0.5709   0.3433   0.9578
Ce92     Ce     0.6567   0.2276   0.9578
Ce93     Ce     0.7724   0.4291   0.9578
Ti94     Ti     0.6766   0.439   0.0097
Ti95     Ti     0.7624   0.3234   0.0097
Ti96     Ti     0.561   0.2376   0.0097
Ce97     Ce     0.8943   0.9042   0.3756
Ce98     Ce     0.0958   0.9901   0.3756
Ce99     Ce     0.0099   0.1057   0.3756
Ti100     Ti     0.9901   0.8943   0.3236
Ti101     Ti     0.9042   0.0099   0.3236
Ti102     Ti     0.1057   0.0958   0.3236
Er103     Er     0.7329   0.7629   0.4069
V104     V     0.5454   0.6356   0.3864
V105     V     0.5765   0.6978   0.4469
Er106     Er     0.6367   0.5705   0.4265
Er107     Er     0.2371   0.97   0.4069
V108     V     0.3644   0.9098   0.3864
V109     V     0.3022   0.8787   0.4469
Er110     Er     0.4295   0.0662   0.4265
Er111     Er     0.03   0.2671   0.4069
V112     V     0.0902   0.4546   0.3864
V113     V     0.1213   0.4235   0.4469
Er114     Er     0.9338   0.3633   0.4265
Ce115     Ce     0.7724   0.3433   0.4578
Ce116     Ce     0.6567   0.4291   0.4578
Ce117     Ce     0.5709   0.2276   0.4578
Ti118     Ti     0.7624   0.439   0.5097
Ti119     Ti     0.561   0.3234   0.5097
Ti120     Ti     0.6766   0.2376   0.5097
Er121     Er     0.3633   0.4295   0.5735
V122     V     0.4235   0.3022   0.5531
V123     V     0.4546   0.3644   0.6136
Er124     Er     0.2671   0.2371   0.5931
Er125     Er     0.97   0.7329   0.5931
V126     V     0.9098   0.5454   0.6136
V127     V     0.8787   0.5765   0.5531
Er128     Er     0.0662   0.6367   0.5735
Ce129     Ce     0.9042   0.0099   0.6244
Ce130     Ce     0.1057   0.0958   0.6244
Ce131     Ce     0.9901   0.8943   0.6244
Ti132     Ti     0.0099   0.1057   0.6764
Ti133     Ti     0.8943   0.9042   0.6764
Ti134     Ti     0.0958   0.9901   0.6764
Er135     Er     0.5705   0.9338   0.5735
V136     V     0.6356   0.0902   0.6136
V137     V     0.6978   0.1213   0.5531
Er138     Er     0.7629   0.03   0.5931
Ce139     Ce     0.3433   0.5709   0.5422
Ce140     Ce     0.2276   0.6567   0.5422
Ce141     Ce     0.4291   0.7724   0.5422
Ti142     Ti     0.3234   0.7624   0.4903
Ti143     Ti     0.439   0.6766   0.4903
Ti144     Ti     0.2376   0.561   0.4903
loop_
_geom_bond_atom_site_label_1
_geom_bond_atom_site_label_2
_geom_bond_distance
_geom_bond_site_symmetry_2
_ccdc_geom_bond_type
Er1     Ce7    10.0   .     S
Er1     Er4    10.0   1_565     S
Er1     V2    10.0   1_565     S
Er1     V3    10.0   1_565     S
V2     Er1    10.0   1_545     S
V2     Er4    10.0   .     S
V2     V3    9.999   .     S
V2     Ti36    10.001   .     S
V3     Er4    10.0   .     S
V3     Er1    10.0   1_545     S
V3     Ti96    10.001   .     S
Er4     Er1    10.0   1_545     S
Er4     Ce20    10.0   .     S
Ce5     Ce7    10.0   .     S
Ce5     Ti8    9.999   1_554     S
Ce5     Ti9    9.999   1_554     S
Ce5     Ce6    10.0   .     S
Ce5     Er18    10.0   .     S
Ce6     Ti9    9.999   1_554     S
Ce6     Ti10    9.999   1_554     S
Ce6     Ce7    10.0   .     S
Ce6     Er11    10.0   .     S
Ce7     Ti8    9.999   1_554     S
Ce7     Ti10    9.999   1_554     S
Ti8     Ce7    9.999   1_556     S
Ti8     Ce5    9.999   1_556     S
Ti8     Ti9    10.0   .     S
Ti8     Ti10    10.0   .     S
Ti8     V78    10.001   .     S
Ti9     Ce5    9.999   1_556     S
Ti9     Ce6    9.999   1_556     S
Ti9     Ti10    10.0   .     S
Ti9     V88    10.001   .     S
Ti10     Ce6    9.999   1_556     S
Ti10     Ce7    9.999   1_556     S
Ti10     V74    10.001   .     S
Er11     Er14    10.0   1_455     S
Er11     V13    10.0   1_455     S
Er11     V12    10.0   1_455     S
V12     Er14    10.0   .     S
V12     Er11    10.0   1_655     S
V12     V13    9.999   .     S
V12     Ti95    10.001   .     S
V13     Er11    10.0   1_655     S
V13     Er14    10.0   .     S
V13     Ti38    10.001   .     S
Er14     Er11    10.0   1_655     S
Er14     Ce19    10.0   .     S
Er15     Ce21    10.0   .     S
Er15     Er18    10.0   .     S
Er15     V17    10.0   .     S
Er15     V16    10.0   .     S
V16     Er18    10.0   .     S
V16     V17    9.999   .     S
V16     Ti37    10.001   .     S
V17     Er18    10.0   .     S
V17     Ti94    10.001   .     S
Ce19     Ti23    9.999   1_545     S
Ce19     Ce21    10.0   1_545     S
Ce19     Ti24    9.999   1_655     S
Ce19     Ce20    10.0   1_655     S
Ce20     Ti24    9.999   .     S
Ce20     Ce19    10.0   1_455     S
Ce20     Ti22    9.999   1_545     S
Ce20     Ce21    10.0   1_445     S
Ce21     Ce19    10.0   1_565     S
Ce21     Ti22    9.999   1_655     S
Ce21     Ce20    10.0   1_665     S
Ce21     Ti23    9.999   .     S
Ti22     Ce20    9.999   1_565     S
Ti22     Ce21    9.999   1_455     S
Ti22     Ti24    10.0   1_565     S
Ti22     Ti23    10.0   1_455     S
Ti22     V30    10.001   .     S
Ti23     Ce19    9.999   1_565     S
Ti23     Ti22    10.0   1_655     S
Ti23     Ti24    10.0   1_665     S
Ti23     V41    10.001   .     S
Ti24     Ce19    9.999   1_455     S
Ti24     Ti22    10.0   1_545     S
Ti24     Ti23    10.0   1_445     S
Ti24     V26    10.001   .     S
Er25     Ce35    10.0   .     S
Er25     Er28    10.0   .     S
Er25     V27    10.0   .     S
Er25     V26    10.0   .     S
V26     Er28    10.0   .     S
V26     V27    9.999   .     S
V27     Er28    10.0   .     S
V27     Ti102    10.001   .     S
Er28     Ce44    10.0   .     S
Er29     Ce45    10.0   .     S
Er29     Er32    10.0   1_455     S
Er29     V30    10.0   .     S
Er29     V31    10.0   1_455     S
V30     Er32    10.0   1_455     S
V30     V31    9.999   1_455     S
V31     Er32    10.0   .     S
V31     Er29    10.0   1_655     S
V31     V30    9.999   1_655     S
V31     Ti100    10.001   .     S
Er32     Er29    10.0   1_655     S
Er32     V30    10.0   1_655     S
Er32     Ce34    10.0   .     S
Ce33     Ti38    9.999   .     S
Ce33     Ce34    10.0   .     S
Ce33     Ti36    9.999   .     S
Ce33     Ce35    10.0   .     S
Ce33     Er42    10.0   .     S
Ce34     Ti37    9.999   .     S
Ce34     Ce35    10.0   .     S
Ce34     Ti38    9.999   .     S
Ce35     Ti36    9.999   .     S
Ce35     Ti37    9.999   .     S
Ti36     Ti38    10.0   .     S
Ti36     Ti37    10.0   .     S
Ti37     Ti38    10.0   .     S
Er39     Ce43    10.0   .     S
Er39     Er42    10.0   1_565     S
Er39     V41    10.0   .     S
Er39     V40    10.0   1_565     S
V40     Er42    10.0   .     S
V40     Er39    10.0   1_545     S
V40     V41    9.999   1_545     S
V40     Ti101    10.001   .     S
V41     Er42    10.0   1_565     S
V41     V40    9.999   1_565     S
Er42     Er39    10.0   1_545     S
Er42     V41    10.0   1_545     S
Ce43     Ti47    9.999   .     S
Ce43     Ce44    10.0   .     S
Ce43     Ti48    9.999   .     S
Ce43     Ce45    10.0   .     S
Ce44     Ti46    9.999   .     S
Ce44     Ce45    10.0   .     S
Ce44     Ti47    9.999   .     S
Ce45     Ti48    9.999   .     S
Ce45     Ti46    9.999   .     S
Ti46     Ti48    10.0   .     S
Ti46     Ti47    10.0   .     S
Ti46     V112    10.001   .     S
Ti47     Ti48    10.0   .     S
Ti47     V104    10.001   .     S
Ti48     V108    10.001   .     S
Er49     Ce54    10.0   .     S
Er49     Er52    10.0   1_565     S
Er49     V51    10.0   .     S
Er49     V50    10.0   1_565     S
V50     Er52    10.0   .     S
V50     Er49    10.0   1_545     S
V50     V51    9.999   1_545     S
V50     Ti85    10.001   .     S
V51     Er52    10.0   1_565     S
V51     V50    9.999   1_565     S
V51     Ti134    10.001   .     S
Er52     Er49    10.0   1_545     S
Er52     V51    10.0   1_545     S
Er52     Ce67    10.0   .     S
Ce53     Ti57    9.999   .     S
Ce53     Ce55    10.0   .     S
Ce53     Ti58    9.999   .     S
Ce53     Ce54    10.0   .     S
Ce53     Er66    10.0   .     S
Ce54     Ti58    9.999   .     S
Ce54     Ti56    9.999   .     S
Ce54     Ce55    10.0   .     S
Ce55     Ti56    9.999   .     S
Ce55     Ti57    9.999   .     S
Ce55     Er59    10.0   .     S
Ti56     Ti58    10.0   .     S
Ti56     Ti57    10.0   .     S
Ti56     V79    10.001   .     S
Ti57     Ti58    10.0   .     S
Ti57     V89    10.001   .     S
Ti58     V75    10.001   .     S
Er59     Er62    10.0   .     S
Er59     V61    10.0   .     S
Er59     V60    10.0   .     S
V60     Er62    10.0   .     S
V60     V61    9.999   .     S
V60     Ti84    10.001   .     S
V61     Er62    10.0   .     S
V61     Ti133    10.001   .     S
Er62     Ce69    10.0   .     S
Er63     Ce68    10.0   .     S
Er63     Er66    10.0   1_655     S
Er63     V64    10.0   .     S
Er63     V65    10.0   1_655     S
V64     Er66    10.0   1_655     S
V64     V65    9.999   1_655     S
V64     Ti86    10.001   .     S
V65     Er66    10.0   .     S
V65     Er63    10.0   1_455     S
V65     V64    9.999   1_455     S
V65     Ti132    10.001   .     S
Er66     Er63    10.0   1_455     S
Er66     V64    10.0   1_455     S
Ce67     Ti70    9.999   .     S
Ce67     Ce69    10.0   .     S
Ce67     Ti72    9.999   .     S
Ce67     Ce68    10.0   .     S
Ce68     Ti72    9.999   .     S
Ce68     Ti71    9.999   .     S
Ce68     Ce69    10.0   .     S
Ce69     Ti71    9.999   .     S
Ce69     Ti70    9.999   .     S
Ti70     Ti71    10.0   .     S
Ti70     Ti72    10.0   .     S
Ti70     V123    10.001   .     S
Ti71     Ti72    10.0   .     S
Ti71     V126    10.001   .     S
Ti72     V136    10.001   .     S
Er73     Ce93    10.0   .     S
Er73     Er76    10.0   1_655     S
Er73     V75    10.0   1_655     S
Er73     V74    10.0   1_655     S
V74     Er76    10.0   .     S
V74     Er73    10.0   1_455     S
V74     V75    9.999   .     S
V75     Er73    10.0   1_455     S
V75     Er76    10.0   .     S
Er76     Er73    10.0   1_455     S
Er76     Ce81    10.0   .     S
Er77     Ce83    10.0   .     S
Er77     Er80    10.0   1_565     S
Er77     V78    10.0   .     S
Er77     V79    10.0   .     S
V78     Er80    10.0   1_565     S
V78     V79    9.999   .     S
V79     Er80    10.0   1_565     S
Er80     Er77    10.0   1_545     S
Er80     V79    10.0   1_545     S
Er80     V78    10.0   1_545     S
Er80     Ce92    10.0   .     S
Ce81     Ce83    10.0   1_455     S
Ce81     Ti84    9.999   1_455     S
Ce81     Ti85    9.999   1_565     S
Ce81     Ce82    10.0   1_565     S
Ce82     Ce81    10.0   1_545     S
Ce82     Ti85    9.999   .     S
Ce82     Ti86    9.999   1_455     S
Ce82     Ce83    10.0   1_445     S
Ce82     Er87    10.0   .     S
Ce83     Ti84    9.999   .     S
Ce83     Ce81    10.0   1_655     S
Ce83     Ce82    10.0   1_665     S
Ce83     Ti86    9.999   1_565     S
Ti84     Ce81    9.999   1_655     S
Ti84     Ti85    10.0   1_665     S
Ti84     Ti86    10.0   1_565     S
Ti85     Ce81    9.999   1_545     S
Ti85     Ti84    10.0   1_445     S
Ti85     Ti86    10.0   1_455     S
Ti86     Ce82    9.999   1_655     S
Ti86     Ce83    9.999   1_545     S
Ti86     Ti85    10.0   1_655     S
Ti86     Ti84    10.0   1_545     S
Er87     Er90    10.0   .     S
Er87     V88    10.0   .     S
Er87     V89    10.0   .     S
V88     Er90    10.0   .     S
V88     V89    9.999   .     S
V89     Er90    10.0   .     S
Er90     Ce91    10.0   .     S
Ce91     Ce92    10.0   .     S
Ce91     Ti96    9.999   1_556     S
Ce91     Ti94    9.999   1_556     S
Ce91     Ce93    10.0   .     S
Ce92     Ti96    9.999   1_556     S
Ce92     Ti95    9.999   1_556     S
Ce92     Ce93    10.0   .     S
Ce93     Ti95    9.999   1_556     S
Ce93     Ti94    9.999   1_556     S
Ti94     Ce91    9.999   1_554     S
Ti94     Ce93    9.999   1_554     S
Ti94     Ti95    10.0   .     S
Ti94     Ti96    10.0   .     S
Ti95     Ce92    9.999   1_554     S
Ti95     Ce93    9.999   1_554     S
Ti95     Ti96    10.0   .     S
Ti96     Ce92    9.999   1_554     S
Ti96     Ce91    9.999   1_554     S
Ce97     Ce98    10.0   1_655     S
Ce97     Ti100    9.999   .     S
Ce97     Ti101    9.999   1_565     S
Ce97     Ce99    10.0   1_665     S
Ce97     Er103    10.0   .     S
Ce98     Ti100    9.999   1_455     S
Ce98     Ce97    10.0   1_455     S
Ce98     Ti102    9.999   1_565     S
Ce98     Ce99    10.0   1_565     S
Ce98     Er107    10.0   .     S
Ce99     Ti102    9.999   .     S
Ce99     Ce98    10.0   1_545     S
Ce99     Ce97    10.0   1_445     S
Ce99     Ti101    9.999   1_455     S
Ce99     Er111    10.0   .     S
Ti100     Ce98    9.999   1_655     S
Ti100     Ti101    10.0   1_565     S
Ti100     Ti102    10.0   1_665     S
Ti101     Ce97    9.999   1_545     S
Ti101     Ce99    9.999   1_655     S
Ti101     Ti100    10.0   1_545     S
Ti101     Ti102    10.0   1_655     S
Ti102     Ce98    9.999   1_545     S
Ti102     Ti101    10.0   1_455     S
Ti102     Ti100    10.0   1_445     S
Er103     Er106    10.0   .     S
Er103     V105    10.0   .     S
Er103     V104    10.0   .     S
V104     Er106    10.0   .     S
V104     V105    9.999   .     S
V105     Er106    10.0   .     S
V105     Ti143    10.001   .     S
Er106     Ce116    10.0   .     S
Er107     Er110    10.0   1_565     S
Er107     V109    10.0   .     S
Er107     V108    10.0   .     S
V108     Er110    10.0   1_565     S
V108     V109    9.999   .     S
V109     Er110    10.0   1_565     S
V109     Ti142    10.001   .     S
Er110     Er107    10.0   1_545     S
Er110     V108    10.0   1_545     S
Er110     V109    10.0   1_545     S
Er110     Ce117    10.0   .     S
Er111     Er114    10.0   1_455     S
Er111     V113    10.0   .     S
Er111     V112    10.0   .     S
V112     Er114    10.0   1_455     S
V112     V113    9.999   .     S
V113     Er114    10.0   1_455     S
V113     Ti144    10.001   .     S
Er114     Er111    10.0   1_655     S
Er114     V112    10.0   1_655     S
Er114     V113    10.0   1_655     S
Er114     Ce115    10.0   .     S
Ce115     Ti118    9.999   .     S
Ce115     Ce116    10.0   .     S
Ce115     Ti120    9.999   .     S
Ce115     Ce117    10.0   .     S
Ce116     Ti119    9.999   .     S
Ce116     Ce117    10.0   .     S
Ce116     Ti118    9.999   .     S
Ce117     Ti120    9.999   .     S
Ce117     Ti119    9.999   .     S
Ti118     Ti119    10.0   .     S
Ti118     Ti120    10.0   .     S
Ti118     V127    10.001   .     S
Ti119     Ti120    10.0   .     S
Ti119     V122    10.001   .     S
Ti120     V137    10.001   .     S
Er121     Ce139    10.0   .     S
Er121     Er124    10.0   .     S
Er121     V123    10.0   .     S
Er121     V122    10.0   .     S
V122     Er124    10.0   .     S
V122     V123    9.999   .     S
V123     Er124    10.0   .     S
Er124     Ce130    10.0   .     S
Er125     Ce131    10.0   .     S
Er125     Er128    10.0   1_655     S
Er125     V127    10.0   .     S
Er125     V126    10.0   .     S
V126     Er128    10.0   1_655     S
V126     V127    9.999   .     S
V127     Er128    10.0   1_655     S
Er128     Er125    10.0   1_455     S
Er128     V126    10.0   1_455     S
Er128     V127    10.0   1_455     S
Er128     Ce140    10.0   .     S
Ce129     Ce131    10.0   1_545     S
Ce129     Ti132    9.999   1_655     S
Ce129     Ce130    10.0   1_655     S
Ce129     Ti133    9.999   1_545     S
Ce129     Er138    10.0   .     S
Ce130     Ce129    10.0   1_455     S
Ce130     Ti132    9.999   .     S
Ce130     Ti134    9.999   1_545     S
Ce130     Ce131    10.0   1_445     S
Ce131     Ti133    9.999   .     S
Ce131     Ce129    10.0   1_565     S
Ce131     Ce130    10.0   1_665     S
Ce131     Ti134    9.999   1_655     S
Ti132     Ce129    9.999   1_455     S
Ti132     Ti134    10.0   1_545     S
Ti132     Ti133    10.0   1_445     S
Ti133     Ce129    9.999   1_565     S
Ti133     Ti132    10.0   1_665     S
Ti133     Ti134    10.0   1_655     S
Ti134     Ce130    9.999   1_565     S
Ti134     Ce131    9.999   1_455     S
Ti134     Ti132    10.0   1_565     S
Ti134     Ti133    10.0   1_455     S
Er135     Ce141    10.0   .     S
Er135     Er138    10.0   1_565     S
Er135     V136    10.0   1_565     S
Er135     V137    10.0   1_565     S
V136     Er135    10.0   1_545     S
V136     Er138    10.0   .     S
V136     V137    9.999   .     S
V137     Er138    10.0   .     S
V137     Er135    10.0   1_545     S
Er138     Er135    10.0   1_545     S
Ce139     Ti143    9.999   .     S
Ce139     Ce141    10.0   .     S
Ce139     Ti144    9.999   .     S
Ce139     Ce140    10.0   .     S
Ce140     Ti144    9.999   .     S
Ce140     Ti142    9.999   .     S
Ce140     Ce141    10.0   .     S
Ce141     Ti142    9.999   .     S
Ce141     Ti143    9.999   .     S
Ti142     Ti144    10.0   .     S
Ti142     Ti143    10.0   .     S
Ti143     Ti144    10.0   .     S
