data_core
_audit_creation_date              2020-02-04
_audit_creation_method            'Pymatgen'
_symmetry_space_group_name_H-M    'P1'
_symmetry_Int_Tables_number       1
loop_
_symmetry_equiv_pos_as_xyz
  x,y,z
_cell_length_a                    32.7402
_cell_length_b                    32.7402
_cell_length_c                    83.6315
_cell_angle_alpha                 90.0
_cell_angle_beta                 90.0
_cell_angle_gamma                 120.0
loop_
_atom_site_label
_atom_site_type_symbol
_atom_site_fract_x
_atom_site_fract_y
_atom_site_fract_z
V1     V     0.1738   0.6965   0.9756
V2     V     0.5227   0.8262   0.9756
V3     V     0.3035   0.4773   0.9756
V4     V     0.0298   0.8405   0.1911
V5     V     0.1595   0.1894   0.1911
V6     V     0.8106   0.9702   0.1911
Er7     Er     0.9702   0.1595   0.0934
Er8     Er     0.144   0.5071   0.0732
Er9     Er     0.8405   0.8106   0.0934
Er10     Er     0.4929   0.6368   0.0732
Er11     Er     0.3632   0.856   0.0732
Er12     Er     0.1894   0.0298   0.0934
V13     V     0.6965   0.1738   0.5244
V14     V     0.4773   0.3035   0.5244
V15     V     0.8262   0.5227   0.5244
V16     V     0.8405   0.0298   0.3089
V17     V     0.9702   0.8106   0.3089
V18     V     0.1894   0.1595   0.3089
Er19     Er     0.0298   0.1894   0.4066
Er20     Er     0.856   0.3632   0.4268
Er21     Er     0.5071   0.144   0.4268
Er22     Er     0.1595   0.9702   0.4066
Er23     Er     0.6368   0.4929   0.4268
Er24     Er     0.8106   0.8405   0.4066
V25     V     0.144   0.5071   0.3577
V26     V     0.4929   0.6368   0.3577
V27     V     0.3632   0.856   0.3577
V28     V     0.5071   0.144   0.1423
V29     V     0.6368   0.4929   0.1423
V30     V     0.856   0.3632   0.1423
Er31     Er     0.1738   0.6965   0.2601
Er32     Er     0.8262   0.5227   0.2399
Er33     Er     0.6965   0.1738   0.2399
Er34     Er     0.5227   0.8262   0.2601
Er35     Er     0.3035   0.4773   0.2601
Er36     Er     0.4773   0.3035   0.2399
V37     V     0.1894   0.0298   0.8089
V38     V     0.8405   0.8106   0.8089
V39     V     0.9702   0.1595   0.8089
V40     V     0.6965   0.5227   0.0244
V41     V     0.4773   0.1738   0.0244
V42     V     0.8262   0.3035   0.0244
Er43     Er     0.1595   0.1894   0.9066
Er44     Er     0.5071   0.3632   0.9268
Er45     Er     0.856   0.4929   0.9268
Er46     Er     0.0298   0.8405   0.9066
Er47     Er     0.8106   0.9702   0.9066
Er48     Er     0.6368   0.144   0.9268
V49     V     0.4929   0.856   0.8577
V50     V     0.3632   0.5071   0.8577
V51     V     0.144   0.6368   0.8577
V52     V     0.856   0.4929   0.6423
V53     V     0.5071   0.3632   0.6423
V54     V     0.6368   0.144   0.6423
Er55     Er     0.4773   0.1738   0.7399
Er56     Er     0.3035   0.8262   0.7601
Er57     Er     0.1738   0.4773   0.7601
Er58     Er     0.8262   0.3035   0.7399
Er59     Er     0.6965   0.5227   0.7399
Er60     Er     0.5227   0.6965   0.7601
V61     V     0.8106   0.8405   0.6911
V62     V     0.0298   0.1894   0.6911
V63     V     0.1595   0.9702   0.6911
V64     V     0.5227   0.6965   0.4756
V65     V     0.1738   0.4773   0.4756
V66     V     0.3035   0.8262   0.4756
Er67     Er     0.4929   0.856   0.5732
Er68     Er     0.8405   0.0298   0.5934
Er69     Er     0.1894   0.1595   0.5934
Er70     Er     0.3632   0.5071   0.5732
Er71     Er     0.144   0.6368   0.5732
Er72     Er     0.9702   0.8106   0.5934
loop_
_geom_bond_atom_site_label_1
_geom_bond_atom_site_label_2
_geom_bond_distance
_geom_bond_site_symmetry_2
_ccdc_geom_bond_type
V1     Er11    10.0   1_556     S
V1     Er8    10.0   1_556     S
V1     V2    10.0   .     S
V1     V3    10.0   .     S
V1     Er45    10.0   1_455     S
V1     Er46    10.0   .     S
V1     V51    10.001   .     S
V2     Er10    10.0   1_556     S
V2     Er11    10.0   1_556     S
V2     V3    10.0   .     S
V2     Er47    10.0   .     S
V2     Er48    10.0   1_565     S
V2     V49    10.001   .     S
V3     Er8    10.0   1_556     S
V3     Er10    10.0   1_556     S
V3     Er43    10.0   .     S
V3     Er44    10.0   .     S
V3     V50    10.001   .     S
V4     Er9    10.0   1_455     S
V4     Er12    10.0   1_565     S
V4     V5    10.0   1_565     S
V4     V6    10.0   1_455     S
V4     Er31    10.0   .     S
V4     Er32    10.0   1_455     S
V4     V17    10.001   1_455     S
V5     V4    10.0   1_545     S
V5     Er12    10.0   .     S
V5     Er7    10.0   1_455     S
V5     V6    10.0   1_445     S
V5     Er35    10.0   .     S
V5     Er36    10.0   .     S
V5     V18    10.001   .     S
V6     V5    10.0   1_665     S
V6     Er7    10.0   1_565     S
V6     Er9    10.0   .     S
V6     V4    10.0   1_655     S
V6     Er33    10.0   1_565     S
V6     Er34    10.0   .     S
V6     V16    10.001   1_565     S
Er7     V5    10.0   1_655     S
Er7     V6    10.0   1_545     S
Er7     V42    10.0   .     S
Er7     V30    10.0   .     S
Er7     Er8    10.0   1_655     S
Er7     Er12    10.0   1_655     S
Er7     Er9    10.0   1_545     S
Er8     V1    10.0   1_554     S
Er8     V3    10.0   1_554     S
Er8     Er7    10.0   1_455     S
Er8     V30    10.0   1_455     S
Er8     V42    10.0   1_455     S
Er8     Er10    10.0   .     S
Er8     Er11    10.0   .     S
Er9     V4    10.0   1_655     S
Er9     V40    10.0   .     S
Er9     V29    10.0   .     S
Er9     Er10    10.0   .     S
Er9     Er7    10.0   1_565     S
Er9     Er12    10.0   1_665     S
Er10     V2    10.0   1_554     S
Er10     V3    10.0   1_554     S
Er10     V29    10.0   .     S
Er10     V40    10.0   .     S
Er10     Er11    10.0   .     S
Er11     V1    10.0   1_554     S
Er11     V2    10.0   1_554     S
Er11     V28    10.0   1_565     S
Er11     V41    10.0   1_565     S
Er11     Er12    10.0   1_565     S
Er12     V4    10.0   1_545     S
Er12     Er7    10.0   1_455     S
Er12     Er11    10.0   1_545     S
Er12     V41    10.0   .     S
Er12     V28    10.0   .     S
Er12     Er9    10.0   1_445     S
V13     Er20    10.0   .     S
V13     Er21    10.0   .     S
V13     V15    10.0   .     S
V13     V14    10.0   .     S
V13     Er67    10.0   1_545     S
V13     Er68    10.0   .     S
V13     V54    10.001   .     S
V14     Er21    10.0   .     S
V14     Er23    10.0   .     S
V14     V15    10.0   .     S
V14     Er69    10.0   .     S
V14     Er70    10.0   .     S
V14     V53    10.001   .     S
V15     Er23    10.0   .     S
V15     Er20    10.0   .     S
V15     Er71    10.0   1_655     S
V15     Er72    10.0   .     S
V15     V52    10.001   .     S
V16     Er24    10.0   1_545     S
V16     Er19    10.0   1_655     S
V16     V18    10.0   1_655     S
V16     V17    10.0   1_545     S
V16     Er33    10.0   .     S
V16     Er34    10.0   1_545     S
V16     V6    10.001   1_545     S
V17     Er22    10.0   1_655     S
V17     Er24    10.0   .     S
V17     V16    10.0   1_565     S
V17     V18    10.0   1_665     S
V17     Er31    10.0   1_655     S
V17     Er32    10.0   .     S
V17     V4    10.001   1_655     S
V18     V16    10.0   1_455     S
V18     Er22    10.0   1_545     S
V18     Er19    10.0   .     S
V18     V17    10.0   1_445     S
V18     Er35    10.0   .     S
V18     Er36    10.0   .     S
Er19     V16    10.0   1_455     S
Er19     V65    10.0   .     S
Er19     V25    10.0   .     S
Er19     Er20    10.0   1_455     S
Er19     Er24    10.0   1_445     S
Er19     Er22    10.0   1_545     S
Er20     Er19    10.0   1_655     S
Er20     V25    10.0   1_655     S
Er20     V65    10.0   1_655     S
Er20     Er21    10.0   .     S
Er20     Er23    10.0   .     S
Er21     V27    10.0   1_545     S
Er21     V66    10.0   1_545     S
Er21     Er22    10.0   1_545     S
Er21     Er23    10.0   .     S
Er22     V17    10.0   1_455     S
Er22     V18    10.0   1_565     S
Er22     Er21    10.0   1_565     S
Er22     V66    10.0   .     S
Er22     V27    10.0   .     S
Er22     Er19    10.0   1_565     S
Er22     Er24    10.0   1_455     S
Er23     V26    10.0   .     S
Er23     V64    10.0   .     S
Er23     Er24    10.0   .     S
Er24     V16    10.0   1_565     S
Er24     Er19    10.0   1_665     S
Er24     V64    10.0   .     S
Er24     V26    10.0   .     S
Er24     Er22    10.0   1_655     S
V25     Er20    10.0   1_455     S
V25     V65    10.001   .     S
V25     Er31    10.0   .     S
V25     Er35    10.0   .     S
V25     V27    10.0   .     S
V25     V26    10.0   .     S
V26     V64    10.001   .     S
V26     Er35    10.0   .     S
V26     Er34    10.0   .     S
V26     V27    10.0   .     S
V27     Er21    10.0   1_565     S
V27     V66    10.001   .     S
V27     Er34    10.0   .     S
V27     Er31    10.0   .     S
V28     Er11    10.0   1_545     S
V28     V41    10.001   .     S
V28     Er33    10.0   .     S
V28     Er36    10.0   .     S
V28     V30    10.0   .     S
V28     V29    10.0   .     S
V29     V40    10.001   .     S
V29     Er36    10.0   .     S
V29     Er32    10.0   .     S
V29     V30    10.0   .     S
V30     Er8    10.0   1_655     S
V30     V42    10.001   .     S
V30     Er33    10.0   .     S
V30     Er32    10.0   .     S
Er31     V17    10.0   1_455     S
Er31     Er32    10.0   1_455     S
Er31     Er35    10.0   .     S
Er31     Er34    10.0   .     S
Er32     Er31    10.0   1_655     S
Er32     V4    10.0   1_655     S
Er32     Er33    10.0   .     S
Er32     Er36    10.0   .     S
Er33     V6    10.0   1_545     S
Er33     Er34    10.0   1_545     S
Er33     Er36    10.0   .     S
Er34     Er33    10.0   1_565     S
Er34     V16    10.0   1_565     S
Er34     Er35    10.0   .     S
Er35     Er36    10.0   .     S
V37     Er46    10.0   1_545     S
V37     Er43    10.0   .     S
V37     V39    10.0   1_455     S
V37     V38    10.0   1_445     S
V37     Er55    10.0   .     S
V37     Er56    10.0   1_545     S
V37     V63    10.001   1_545     S
V38     Er46    10.0   1_655     S
V38     Er47    10.0   .     S
V38     V37    10.0   1_665     S
V38     V39    10.0   1_565     S
V38     Er59    10.0   .     S
V38     Er60    10.0   .     S
V38     V61    10.001   .     S
V39     V37    10.0   1_655     S
V39     Er43    10.0   1_655     S
V39     Er47    10.0   1_545     S
V39     V38    10.0   1_545     S
V39     Er57    10.0   1_655     S
V39     Er58    10.0   .     S
V39     V62    10.001   1_655     S
V40     Er44    10.0   1_554     S
V40     Er45    10.0   1_554     S
V40     V42    10.0   .     S
V40     V41    10.0   .     S
V41     Er11    10.0   1_545     S
V41     Er48    10.0   1_554     S
V41     Er44    10.0   1_554     S
V41     V42    10.0   .     S
V42     Er8    10.0   1_655     S
V42     Er48    10.0   1_554     S
V42     Er45    10.0   1_554     S
Er43     V39    10.0   1_455     S
Er43     V50    10.0   .     S
Er43     Er44    10.0   .     S
Er43     Er46    10.0   1_545     S
Er43     Er47    10.0   1_445     S
Er44     V40    10.0   1_556     S
Er44     V41    10.0   1_556     S
Er44     V50    10.0   .     S
Er44     Er48    10.0   .     S
Er44     Er45    10.0   .     S
Er45     V40    10.0   1_556     S
Er45     V42    10.0   1_556     S
Er45     V51    10.0   1_655     S
Er45     V1    10.0   1_655     S
Er45     Er46    10.0   1_655     S
Er45     Er48    10.0   .     S
Er46     V37    10.0   1_565     S
Er46     V38    10.0   1_455     S
Er46     Er43    10.0   1_565     S
Er46     Er45    10.0   1_455     S
Er46     V51    10.0   .     S
Er46     Er47    10.0   1_455     S
Er47     V39    10.0   1_565     S
Er47     Er46    10.0   1_655     S
Er47     V49    10.0   .     S
Er47     Er48    10.0   1_565     S
Er47     Er43    10.0   1_665     S
Er48     V41    10.0   1_556     S
Er48     V42    10.0   1_556     S
Er48     Er47    10.0   1_545     S
Er48     V49    10.0   1_545     S
Er48     V2    10.0   1_545     S
V49     Er48    10.0   1_565     S
V49     Er60    10.0   .     S
V49     Er56    10.0   .     S
V49     V51    10.0   .     S
V49     V50    10.0   .     S
V50     Er57    10.0   .     S
V50     Er60    10.0   .     S
V50     V51    10.0   .     S
V51     Er45    10.0   1_455     S
V51     Er57    10.0   .     S
V51     Er56    10.0   .     S
V52     Er59    10.0   .     S
V52     Er58    10.0   .     S
V52     V54    10.0   .     S
V52     V53    10.0   .     S
V52     Er71    10.0   1_655     S
V52     Er72    10.0   .     S
V53     Er55    10.0   .     S
V53     Er59    10.0   .     S
V53     V54    10.0   .     S
V53     Er69    10.0   .     S
V53     Er70    10.0   .     S
V54     Er55    10.0   .     S
V54     Er58    10.0   .     S
V54     Er67    10.0   1_545     S
V54     Er68    10.0   .     S
Er55     V63    10.0   1_545     S
Er55     Er56    10.0   1_545     S
Er55     Er58    10.0   .     S
Er55     Er59    10.0   .     S
Er56     Er55    10.0   1_565     S
Er56     V63    10.0   .     S
Er56     V37    10.0   1_565     S
Er56     Er60    10.0   .     S
Er56     Er57    10.0   .     S
Er57     V62    10.0   .     S
Er57     V39    10.0   1_455     S
Er57     Er58    10.0   1_455     S
Er57     Er60    10.0   .     S
Er58     Er57    10.0   1_655     S
Er58     V62    10.0   1_655     S
Er58     Er59    10.0   .     S
Er59     V61    10.0   .     S
Er59     Er60    10.0   .     S
Er60     V61    10.0   .     S
V61     Er68    10.0   1_565     S
V61     Er72    10.0   .     S
V61     V62    10.0   1_665     S
V61     V63    10.0   1_655     S
V62     Er58    10.0   1_455     S
V62     V39    10.001   1_455     S
V62     V61    10.0   1_445     S
V62     Er69    10.0   .     S
V62     Er68    10.0   1_455     S
V62     V63    10.0   1_545     S
V63     Er55    10.0   1_565     S
V63     V37    10.001   1_565     S
V63     V62    10.0   1_565     S
V63     Er69    10.0   1_565     S
V63     Er72    10.0   1_455     S
V63     V61    10.0   1_455     S
V64     Er67    10.0   .     S
V64     Er70    10.0   .     S
V64     V66    10.0   .     S
V64     V65    10.0   .     S
V65     Er20    10.0   1_455     S
V65     Er71    10.0   .     S
V65     Er70    10.0   .     S
V65     V66    10.0   .     S
V66     Er21    10.0   1_565     S
V66     Er71    10.0   .     S
V66     Er67    10.0   .     S
Er67     V54    10.0   1_565     S
Er67     V13    10.0   1_565     S
Er67     Er68    10.0   1_565     S
Er67     Er70    10.0   .     S
Er67     Er71    10.0   .     S
Er68     V61    10.0   1_545     S
Er68     V62    10.0   1_655     S
Er68     Er67    10.0   1_545     S
Er68     Er72    10.0   1_545     S
Er68     Er69    10.0   1_655     S
Er69     V63    10.0   1_545     S
Er69     Er70    10.0   .     S
Er69     Er68    10.0   1_455     S
Er69     Er72    10.0   1_445     S
Er70     Er71    10.0   .     S
Er71     V52    10.0   1_455     S
Er71     V15    10.0   1_455     S
Er71     Er72    10.0   1_455     S
Er72     V63    10.0   1_655     S
Er72     Er68    10.0   1_565     S
Er72     Er71    10.0   1_655     S
Er72     Er69    10.0   1_665     S
