data_crba
_audit_creation_date              2020-02-04
_audit_creation_method            'Pymatgen'
_symmetry_space_group_name_H-M    'P1'
_symmetry_Int_Tables_number       1
loop_
_symmetry_equiv_pos_as_xyz
  x,y,z
_cell_length_a                    62.8197
_cell_length_b                    62.8197
_cell_length_c                    35.7925
_cell_angle_alpha                 90.0
_cell_angle_beta                 90.0
_cell_angle_gamma                 90.0
loop_
_atom_site_label
_atom_site_type_symbol
_atom_site_fract_x
_atom_site_fract_y
_atom_site_fract_z
Er1     Er     0.2155   0.2155   0.3603
Er2     Er     0.2155   0.2155   0.6397
Er3     Er     0.2845   0.2845   0.8603
Er4     Er     0.2845   0.2845   0.1397
V5     V     0.4204   0.3078   0.0
V6     V     0.5796   0.3078   0.0
V7     V     0.3078   0.4204   0.0
V8     V     0.3078   0.5796   0.0
V9     V     0.6922   0.5796   0.0
V10     V     0.6922   0.4204   0.0
V11     V     0.4204   0.6922   0.0
V12     V     0.5796   0.6922   0.0
Er13     Er     0.2845   0.7155   0.8603
Er14     Er     0.2845   0.7155   0.1397
Er15     Er     0.2155   0.7845   0.3603
Er16     Er     0.2155   0.7845   0.6397
Er17     Er     0.7845   0.2155   0.3603
Er18     Er     0.7845   0.2155   0.6397
Er19     Er     0.7155   0.2845   0.1397
Er20     Er     0.7155   0.2845   0.8603
V21     V     0.1921   0.0796   0.5
V22     V     0.1921   0.9204   0.5
V23     V     0.0796   0.1921   0.5
V24     V     0.9204   0.1921   0.5
V25     V     0.0796   0.8078   0.5
V26     V     0.9204   0.8078   0.5
V27     V     0.8078   0.0796   0.5
V28     V     0.8078   0.9204   0.5
Er29     Er     0.7155   0.7155   0.8603
Er30     Er     0.7155   0.7155   0.1397
Er31     Er     0.7845   0.7845   0.3603
Er32     Er     0.7845   0.7845   0.6397
loop_
_geom_bond_atom_site_label_1
_geom_bond_atom_site_label_2
_geom_bond_distance
_geom_bond_site_symmetry_2
_ccdc_geom_bond_type
Er1     V23    10.0   .     S
Er1     V21    10.0   .     S
Er1     Er2    10.0   .     S
Er1     Er4    10.0   .     S
Er2     V21    10.0   .     S
Er2     V23    10.0   .     S
Er2     Er3    10.0   .     S
Er3     Er4    10.0   1_556     S
Er3     V5    10.0   1_556     S
Er3     V7    10.0   1_556     S
Er4     V7    10.0   .     S
Er4     V5    10.0   .     S
Er4     Er3    10.0   1_554     S
V5     Er3    10.0   1_554     S
V5     V6    10.0   .     S
V5     V7    10.0   .     S
V6     V10    10.0   .     S
V6     Er19    10.0   .     S
V6     Er20    10.0   1_554     S
V7     Er3    10.0   1_554     S
V7     V8    10.0   .     S
V8     V11    10.0   .     S
V8     Er14    10.0   .     S
V8     Er13    10.0   1_554     S
V9     V10    10.0   .     S
V9     V12    10.0   .     S
V9     Er30    10.0   .     S
V9     Er29    10.0   1_554     S
V10     Er19    10.0   .     S
V10     Er20    10.0   1_554     S
V11     V12    10.0   .     S
V11     Er14    10.0   .     S
V11     Er13    10.0   1_554     S
V12     Er30    10.0   .     S
V12     Er29    10.0   1_554     S
Er13     Er14    10.0   1_556     S
Er13     Er16    10.0   .     S
Er13     V8    10.0   1_556     S
Er13     V11    10.0   1_556     S
Er14     Er13    10.0   1_554     S
Er14     Er15    10.0   .     S
Er15     V22    10.0   .     S
Er15     V25    10.0   .     S
Er15     Er16    10.0   .     S
Er16     V25    10.0   .     S
Er16     V22    10.0   .     S
Er17     V27    10.0   .     S
Er17     V24    10.0   .     S
Er17     Er18    10.0   .     S
Er17     Er19    10.0   .     S
Er18     V24    10.0   .     S
Er18     V27    10.0   .     S
Er18     Er20    10.0   .     S
Er19     Er20    10.0   1_554     S
Er20     Er19    10.0   1_556     S
Er20     V10    10.0   1_556     S
Er20     V6    10.0   1_556     S
V21     V22    10.0   1_545     S
V21     V23    10.0   .     S
V22     V21    10.0   1_565     S
V22     V25    10.0   .     S
V23     V24    10.0   1_455     S
V24     V23    10.0   1_655     S
V24     V27    10.0   .     S
V25     V26    10.0   1_455     S
V26     V25    10.0   1_655     S
V26     V28    10.0   .     S
V26     Er32    10.0   .     S
V26     Er31    10.0   .     S
V27     V28    10.0   1_545     S
V28     V27    10.0   1_565     S
V28     Er32    10.0   .     S
V28     Er31    10.0   .     S
Er29     Er30    10.0   1_556     S
Er29     Er32    10.0   .     S
Er29     V12    10.0   1_556     S
Er29     V9    10.0   1_556     S
Er30     Er29    10.0   1_554     S
Er30     Er31    10.0   .     S
Er31     Er32    10.0   .     S
