data_crd
_audit_creation_date              2020-02-04
_audit_creation_method            'Pymatgen'
_symmetry_space_group_name_H-M    'P1'
_symmetry_Int_Tables_number       1
loop_
_symmetry_equiv_pos_as_xyz
  x,y,z
_cell_length_a                    33.4745
_cell_length_b                    33.4745
_cell_length_c                    33.4745
_cell_angle_alpha                 90.0
_cell_angle_beta                 90.0
_cell_angle_gamma                 90.0
loop_
_atom_site_label
_atom_site_type_symbol
_atom_site_fract_x
_atom_site_fract_y
_atom_site_fract_z
Er1     Er     0.875   0.875   0.875
V2     V     0.25   0.5   0.75
V3     V     0.25   0.75   0.5
Er4     Er     0.125   0.625   0.625
V5     V     0.0   0.75   0.75
V6     V     0.5   0.25   0.75
V7     V     0.75   0.25   0.5
Er8     Er     0.625   0.125   0.625
V9     V     0.75   0.0   0.75
V10     V     0.5   0.75   0.25
V11     V     0.75   0.5   0.25
Er12     Er     0.625   0.625   0.125
V13     V     0.75   0.75   0.0
V14     V     0.5   0.0   0.5
Er15     Er     0.375   0.875   0.375
V16     V     0.25   0.0   0.25
V17     V     0.5   0.5   0.0
Er18     Er     0.375   0.375   0.875
V19     V     0.25   0.25   0.0
V20     V     0.0   0.5   0.5
Er21     Er     0.875   0.375   0.375
V22     V     0.0   0.25   0.25
Er23     Er     0.125   0.125   0.125
V24     V     0.0   0.0   0.0
loop_
_geom_bond_atom_site_label_1
_geom_bond_atom_site_label_2
_geom_bond_distance
_geom_bond_site_symmetry_2
_ccdc_geom_bond_type
Er1     V13    7.247   1_556     S
Er1     V5    7.247   1_655     S
Er1     V9    7.247   1_565     S
Er1     V24    7.247   1_666     S
V2     Er4    7.247   .     S
V2     Er18    7.247   .     S
V2     V20    11.835   .     S
V2     V5    11.835   .     S
V2     V17    11.835   1_556     S
V2     V19    11.835   1_556     S
V2     V6    11.835   .     S
V2     V3    11.835   .     S
V3     Er4    7.247   .     S
V3     Er15    7.247   .     S
V3     V20    11.835   .     S
V3     V5    11.835   .     S
V3     V14    11.835   1_565     S
V3     V16    11.835   1_565     S
V3     V10    11.835   .     S
Er4     V5    7.247   .     S
Er4     V20    7.247   .     S
V5     Er1    7.247   1_455     S
V5     V24    11.835   1_566     S
V5     V20    11.835   .     S
V5     V13    11.835   1_456     S
V5     V9    11.835   1_465     S
V6     Er8    7.247   .     S
V6     Er18    7.247   .     S
V6     V14    11.835   .     S
V6     V9    11.835   .     S
V6     V17    11.835   1_556     S
V6     V19    11.835   1_556     S
V6     V7    11.835   .     S
V7     Er8    7.247   .     S
V7     Er21    7.247   .     S
V7     V14    11.835   .     S
V7     V9    11.835   .     S
V7     V20    11.835   1_655     S
V7     V22    11.835   1_655     S
V7     V11    11.835   .     S
Er8     V9    7.247   .     S
Er8     V14    7.247   .     S
V9     Er1    7.247   1_545     S
V9     V24    11.835   1_656     S
V9     V14    11.835   .     S
V9     V13    11.835   1_546     S
V9     V5    11.835   1_645     S
V10     Er12    7.247   .     S
V10     Er15    7.247   .     S
V10     V17    11.835   .     S
V10     V13    11.835   .     S
V10     V14    11.835   1_565     S
V10     V16    11.835   1_565     S
V10     V11    11.835   .     S
V11     Er12    7.247   .     S
V11     Er21    7.247   .     S
V11     V17    11.835   .     S
V11     V13    11.835   .     S
V11     V20    11.835   1_655     S
V11     V22    11.835   1_655     S
Er12     V13    7.247   .     S
Er12     V17    7.247   .     S
V13     Er1    7.247   1_554     S
V13     V24    11.835   1_665     S
V13     V17    11.835   .     S
V13     V9    11.835   1_564     S
V13     V5    11.835   1_654     S
V14     Er15    7.247   1_545     S
V14     V3    11.835   1_545     S
V14     V10    11.835   1_545     S
V14     V16    11.835   .     S
Er15     V16    7.247   1_565     S
Er15     V14    7.247   1_565     S
V16     Er15    7.247   1_545     S
V16     Er23    7.247   .     S
V16     V10    11.835   1_545     S
V16     V3    11.835   1_545     S
V16     V24    11.835   .     S
V16     V19    11.835   .     S
V16     V22    11.835   .     S
V17     Er18    7.247   1_554     S
V17     V2    11.835   1_554     S
V17     V6    11.835   1_554     S
V17     V19    11.835   .     S
Er18     V19    7.247   1_556     S
Er18     V17    7.247   1_556     S
V19     Er18    7.247   1_554     S
V19     Er23    7.247   .     S
V19     V2    11.835   1_554     S
V19     V6    11.835   1_554     S
V19     V24    11.835   .     S
V19     V22    11.835   .     S
V20     Er21    7.247   1_455     S
V20     V7    11.835   1_455     S
V20     V11    11.835   1_455     S
V20     V22    11.835   .     S
Er21     V22    7.247   1_655     S
Er21     V20    7.247   1_655     S
V22     Er21    7.247   1_455     S
V22     Er23    7.247   .     S
V22     V7    11.835   1_455     S
V22     V11    11.835   1_455     S
V22     V24    11.835   .     S
Er23     V24    7.247   .     S
V24     Er1    7.247   1_444     S
V24     V13    11.835   1_445     S
V24     V5    11.835   1_544     S
V24     V9    11.835   1_454     S
