data_crsa
_audit_creation_date              2020-02-04
_audit_creation_method            'Pymatgen'
_symmetry_space_group_name_H-M    'P1'
_symmetry_Int_Tables_number       1
loop_
_symmetry_equiv_pos_as_xyz
  x,y,z
_cell_length_a                    65.9968
_cell_length_b                    65.9968
_cell_length_c                    65.9968
_cell_angle_alpha                 90.0
_cell_angle_beta                 90.0
_cell_angle_gamma                 90.0
loop_
_atom_site_label
_atom_site_type_symbol
_atom_site_fract_x
_atom_site_fract_y
_atom_site_fract_z
V1     V     0.6786   0.6786   0.4643
V2     V     0.6786   0.5714   0.7857
V3     V     0.5714   0.6786   0.7857
V4     V     0.6786   0.4643   0.6786
V5     V     0.5714   0.4643   0.5714
V6     V     0.4643   0.5714   0.5714
V7     V     0.4643   0.6786   0.6786
V8     V     0.5714   0.5714   0.4643
V9     V     0.6786   0.7857   0.5714
V10     V     0.7857   0.6786   0.5714
V11     V     0.5714   0.7857   0.6786
V12     V     0.7857   0.5714   0.6786
V13     V     0.6786   0.9643   0.1786
V14     V     0.7857   0.1786   0.0714
V15     V     0.7857   0.0714   0.1786
V16     V     0.6786   0.1786   0.9643
V17     V     0.6786   0.2857   0.0714
V18     V     0.4643   0.0714   0.0714
V19     V     0.5714   0.0714   0.9643
V20     V     0.5714   0.9643   0.0714
V21     V     0.4643   0.1786   0.1786
V22     V     0.6786   0.0714   0.2857
V23     V     0.5714   0.2857   0.1786
V24     V     0.5714   0.1786   0.2857
V25     V     0.0357   0.8214   0.3214
V26     V     0.8214   0.9286   0.2143
V27     V     0.9286   0.8214   0.2143
V28     V     0.7143   0.9286   0.3214
V29     V     0.8214   0.0357   0.3214
V30     V     0.7143   0.8214   0.4286
V31     V     0.9286   0.0357   0.4286
V32     V     0.9286   0.7143   0.3214
V33     V     0.8214   0.7143   0.4286
V34     V     0.8214   0.8214   0.5357
V35     V     0.9286   0.9286   0.5357
V36     V     0.0357   0.9286   0.4286
V37     V     0.7143   0.3214   0.9286
V38     V     0.8214   0.4286   0.7143
V39     V     0.9286   0.2143   0.8214
V40     V     0.9286   0.3214   0.7143
V41     V     0.0357   0.3214   0.8214
V42     V     0.8214   0.5357   0.8214
V43     V     0.7143   0.4286   0.8214
V44     V     0.9286   0.5357   0.9286
V45     V     0.0357   0.4286   0.9286
V46     V     0.8214   0.2143   0.9286
V47     V     0.8214   0.3214   0.0357
V48     V     0.9286   0.4286   0.0357
V49     V     0.1786   0.5714   0.2857
V50     V     0.0714   0.6786   0.2857
V51     V     0.0714   0.7857   0.1786
V52     V     0.9643   0.6786   0.1786
V53     V     0.0714   0.4643   0.0714
V54     V     0.0714   0.5714   0.9643
V55     V     0.9643   0.5714   0.0714
V56     V     0.2857   0.5714   0.1786
V57     V     0.2857   0.6786   0.0714
V58     V     0.1786   0.7857   0.0714
V59     V     0.1786   0.6786   0.9643
V60     V     0.1786   0.4643   0.1786
V61     V     0.2143   0.4286   0.3214
V62     V     0.2143   0.3214   0.4286
V63     V     0.4286   0.3214   0.2143
V64     V     0.3214   0.5357   0.3214
V65     V     0.3214   0.2143   0.4286
V66     V     0.4286   0.2143   0.3214
V67     V     0.3214   0.3214   0.5357
V68     V     0.4286   0.4286   0.5357
V69     V     0.5357   0.4286   0.4286
V70     V     0.5357   0.3214   0.3214
V71     V     0.4286   0.5357   0.4286
V72     V     0.3214   0.4286   0.2143
V73     V     0.3214   0.7143   0.9286
V74     V     0.2143   0.8214   0.9286
V75     V     0.2143   0.9286   0.8214
V76     V     0.3214   0.9286   0.7143
V77     V     0.3214   0.0357   0.8214
V78     V     0.4286   0.8214   0.7143
V79     V     0.3214   0.8214   0.0357
V80     V     0.4286   0.9286   0.0357
V81     V     0.4286   0.0357   0.9286
V82     V     0.4286   0.7143   0.8214
V83     V     0.5357   0.9286   0.9286
V84     V     0.5357   0.8214   0.8214
V85     V     0.1786   0.2857   0.5714
V86     V     0.2857   0.1786   0.5714
V87     V     0.0714   0.2857   0.6786
V88     V     0.0714   0.1786   0.7857
V89     V     0.9643   0.1786   0.6786
V90     V     0.1786   0.0714   0.7857
V91     V     0.2857   0.0714   0.6786
V92     V     0.1786   0.9643   0.6786
V93     V     0.0714   0.0714   0.4643
V94     V     0.0714   0.9643   0.5714
V95     V     0.9643   0.0714   0.5714
V96     V     0.1786   0.1786   0.4643
loop_
_geom_bond_atom_site_label_1
_geom_bond_atom_site_label_2
_geom_bond_distance
_geom_bond_site_symmetry_2
_ccdc_geom_bond_type
V1     V33    10.0   .     S
V1     V30    10.0   .     S
V1     V9    10.0   .     S
V1     V10    10.0   .     S
V1     V8    10.0   .     S
V2     V3    10.0   .     S
V2     V4    10.0   .     S
V2     V12    10.0   .     S
V2     V43    10.0   .     S
V2     V42    10.0   .     S
V3     V82    10.0   .     S
V3     V84    10.0   .     S
V3     V7    10.0   .     S
V3     V11    10.0   .     S
V4     V5    10.0   .     S
V4     V12    10.0   .     S
V4     V38    10.0   .     S
V4     V43    10.0   .     S
V5     V69    10.0   .     S
V5     V68    10.0   .     S
V5     V6    10.0   .     S
V5     V8    10.0   .     S
V6     V68    10.0   .     S
V6     V71    10.0   .     S
V6     V7    10.0   .     S
V6     V8    10.0   .     S
V7     V78    10.0   .     S
V7     V82    10.0   .     S
V7     V11    10.0   .     S
V8     V69    10.0   .     S
V8     V71    10.0   .     S
V9     V30    10.0   .     S
V9     V34    10.0   .     S
V9     V11    10.0   .     S
V9     V10    10.0   .     S
V10     V33    10.0   .     S
V10     V34    10.0   .     S
V10     V12    10.0   .     S
V11     V84    10.0   .     S
V11     V78    10.0   .     S
V12     V42    10.0   .     S
V12     V38    10.0   .     S
V13     V20    10.0   .     S
V13     V15    10.0   1_565     S
V13     V22    10.0   1_565     S
V13     V26    10.0   .     S
V13     V28    10.0   .     S
V14     V15    10.0   .     S
V14     V16    10.0   1_554     S
V14     V17    10.0   .     S
V14     V46    10.0   1_554     S
V14     V47    10.0   .     S
V15     V13    10.0   1_545     S
V15     V22    10.0   .     S
V15     V29    10.0   .     S
V15     V26    10.0   1_545     S
V16     V19    10.0   .     S
V16     V14    10.0   1_556     S
V16     V17    10.0   1_556     S
V16     V46    10.0   .     S
V16     V37    10.0   .     S
V17     V16    10.0   1_554     S
V17     V23    10.0   .     S
V17     V47    10.0   .     S
V17     V37    10.0   1_554     S
V18     V81    10.0   1_554     S
V18     V80    10.0   1_545     S
V18     V19    10.0   1_554     S
V18     V20    10.0   1_545     S
V18     V21    10.0   .     S
V19     V83    10.0   1_545     S
V19     V81    10.0   .     S
V19     V18    10.0   1_556     S
V19     V20    10.0   1_546     S
V20     V80    10.0   .     S
V20     V83    10.0   1_554     S
V20     V18    10.0   1_565     S
V20     V19    10.0   1_564     S
V21     V66    10.0   .     S
V21     V63    10.0   .     S
V21     V23    10.0   .     S
V21     V24    10.0   .     S
V22     V13    10.0   1_545     S
V22     V24    10.0   .     S
V22     V28    10.0   1_545     S
V22     V29    10.0   .     S
V23     V63    10.0   .     S
V23     V70    10.0   .     S
V23     V24    10.0   .     S
V24     V70    10.0   .     S
V24     V66    10.0   .     S
V25     V51    10.0   .     S
V25     V50    10.0   .     S
V25     V36    10.0   .     S
V25     V27    10.0   1_455     S
V25     V32    10.0   1_455     S
V26     V15    10.0   1_565     S
V26     V28    10.0   .     S
V26     V29    10.0   1_565     S
V26     V27    10.0   .     S
V27     V51    10.0   1_655     S
V27     V52    10.0   .     S
V27     V25    10.0   1_655     S
V27     V32    10.0   .     S
V28     V22    10.0   1_565     S
V28     V30    10.0   .     S
V28     V29    10.0   1_565     S
V29     V26    10.0   1_545     S
V29     V31    10.0   .     S
V29     V28    10.0   1_545     S
V30     V33    10.0   .     S
V30     V34    10.0   .     S
V31     V93    10.0   1_655     S
V31     V95    10.0   .     S
V31     V35    10.0   1_545     S
V31     V36    10.0   1_645     S
V32     V52    10.0   .     S
V32     V50    10.0   1_655     S
V32     V33    10.0   .     S
V32     V25    10.0   1_655     S
V33     V34    10.0   .     S
V34     V35    10.0   .     S
V35     V95    10.0   1_565     S
V35     V94    10.0   1_655     S
V35     V36    10.0   1_655     S
V35     V31    10.0   1_565     S
V36     V93    10.0   1_565     S
V36     V94    10.0   .     S
V36     V35    10.0   1_455     S
V36     V31    10.0   1_465     S
V37     V17    10.0   1_556     S
V37     V43    10.0   .     S
V37     V47    10.0   1_556     S
V37     V46    10.0   .     S
V38     V42    10.0   .     S
V38     V43    10.0   .     S
V38     V40    10.0   .     S
V39     V89    10.0   .     S
V39     V88    10.0   1_655     S
V39     V40    10.0   .     S
V39     V41    10.0   1_655     S
V39     V46    10.0   .     S
V40     V89    10.0   .     S
V40     V87    10.0   1_655     S
V40     V41    10.0   1_655     S
V41     V87    10.0   .     S
V41     V88    10.0   .     S
V41     V39    10.0   1_455     S
V41     V45    10.0   .     S
V41     V40    10.0   1_455     S
V42     V44    10.0   .     S
V42     V43    10.0   .     S
V44     V55    10.0   1_556     S
V44     V54    10.0   1_655     S
V44     V48    10.0   1_556     S
V44     V45    10.0   1_655     S
V45     V54    10.0   .     S
V45     V53    10.0   1_556     S
V45     V44    10.0   1_455     S
V45     V48    10.0   1_456     S
V46     V14    10.0   1_556     S
V46     V47    10.0   1_556     S
V47     V37    10.0   1_554     S
V47     V48    10.0   .     S
V47     V46    10.0   1_554     S
V48     V53    10.0   1_655     S
V48     V55    10.0   .     S
V48     V44    10.0   1_554     S
V48     V45    10.0   1_654     S
V49     V60    10.0   .     S
V49     V50    10.0   .     S
V49     V56    10.0   .     S
V49     V64    10.0   .     S
V49     V61    10.0   .     S
V50     V32    10.0   1_455     S
V50     V52    10.0   1_455     S
V50     V51    10.0   .     S
V51     V27    10.0   1_455     S
V51     V52    10.0   1_455     S
V51     V58    10.0   .     S
V52     V50    10.0   1_655     S
V52     V51    10.0   1_655     S
V52     V55    10.0   .     S
V53     V45    10.0   1_554     S
V53     V48    10.0   1_455     S
V53     V55    10.0   1_455     S
V53     V54    10.0   1_554     S
V53     V60    10.0   .     S
V54     V44    10.0   1_455     S
V54     V53    10.0   1_556     S
V54     V55    10.0   1_456     S
V54     V59    10.0   .     S
V55     V44    10.0   1_554     S
V55     V53    10.0   1_655     S
V55     V54    10.0   1_654     S
V56     V57    10.0   .     S
V56     V60    10.0   .     S
V56     V72    10.0   .     S
V56     V64    10.0   .     S
V57     V58    10.0   .     S
V57     V59    10.0   1_554     S
V57     V73    10.0   1_554     S
V57     V79    10.0   .     S
V58     V59    10.0   1_554     S
V58     V79    10.0   .     S
V58     V74    10.0   1_554     S
V59     V57    10.0   1_556     S
V59     V58    10.0   1_556     S
V59     V73    10.0   .     S
V59     V74    10.0   .     S
V60     V61    10.0   .     S
V60     V72    10.0   .     S
V61     V72    10.0   .     S
V61     V64    10.0   .     S
V61     V62    10.0   .     S
V62     V67    10.0   .     S
V62     V65    10.0   .     S
V62     V85    10.0   .     S
V62     V96    10.0   .     S
V63     V70    10.0   .     S
V63     V66    10.0   .     S
V63     V72    10.0   .     S
V64     V71    10.0   .     S
V64     V72    10.0   .     S
V65     V66    10.0   .     S
V65     V67    10.0   .     S
V65     V96    10.0   .     S
V65     V86    10.0   .     S
V66     V70    10.0   .     S
V67     V68    10.0   .     S
V67     V86    10.0   .     S
V67     V85    10.0   .     S
V68     V69    10.0   .     S
V68     V71    10.0   .     S
V69     V70    10.0   .     S
V69     V71    10.0   .     S
V73     V57    10.0   1_556     S
V73     V82    10.0   .     S
V73     V74    10.0   .     S
V73     V79    10.0   1_556     S
V74     V58    10.0   1_556     S
V74     V79    10.0   1_556     S
V74     V75    10.0   .     S
V75     V77    10.0   1_565     S
V75     V76    10.0   .     S
V75     V90    10.0   1_565     S
V75     V92    10.0   .     S
V76     V78    10.0   .     S
V76     V77    10.0   1_565     S
V76     V91    10.0   1_565     S
V76     V92    10.0   .     S
V77     V75    10.0   1_545     S
V77     V81    10.0   .     S
V77     V76    10.0   1_545     S
V77     V91    10.0   .     S
V77     V90    10.0   .     S
V78     V84    10.0   .     S
V78     V82    10.0   .     S
V79     V74    10.0   1_554     S
V79     V80    10.0   .     S
V79     V73    10.0   1_554     S
V80     V18    10.0   1_565     S
V80     V83    10.0   1_554     S
V80     V81    10.0   1_564     S
V81     V18    10.0   1_556     S
V81     V83    10.0   1_545     S
V81     V80    10.0   1_546     S
V82     V84    10.0   .     S
V83     V20    10.0   1_556     S
V83     V19    10.0   1_565     S
V83     V80    10.0   1_556     S
V83     V84    10.0   .     S
V83     V81    10.0   1_565     S
V85     V96    10.0   .     S
V85     V86    10.0   .     S
V85     V87    10.0   .     S
V86     V96    10.0   .     S
V86     V91    10.0   .     S
V87     V40    10.0   1_455     S
V87     V89    10.0   1_455     S
V87     V88    10.0   .     S
V88     V39    10.0   1_455     S
V88     V89    10.0   1_455     S
V88     V90    10.0   .     S
V89     V87    10.0   1_655     S
V89     V88    10.0   1_655     S
V89     V95    10.0   .     S
V90     V75    10.0   1_545     S
V90     V92    10.0   1_545     S
V90     V91    10.0   .     S
V91     V76    10.0   1_545     S
V91     V92    10.0   1_545     S
V92     V90    10.0   1_565     S
V92     V91    10.0   1_565     S
V92     V94    10.0   .     S
V93     V36    10.0   1_545     S
V93     V31    10.0   1_455     S
V93     V94    10.0   1_545     S
V93     V95    10.0   1_455     S
V93     V96    10.0   .     S
V94     V35    10.0   1_455     S
V94     V93    10.0   1_565     S
V94     V95    10.0   1_465     S
V95     V35    10.0   1_545     S
V95     V93    10.0   1_655     S
V95     V94    10.0   1_645     S
