data_csj
_audit_creation_date              2020-02-04
_audit_creation_method            'Pymatgen'
_symmetry_space_group_name_H-M    'P1'
_symmetry_Int_Tables_number       1
loop_
_symmetry_equiv_pos_as_xyz
  x,y,z
_cell_length_a                    64.8283
_cell_length_b                    64.8283
_cell_length_c                    64.8283
_cell_angle_alpha                 90.0
_cell_angle_beta                 90.0
_cell_angle_gamma                 90.0
loop_
_atom_site_label
_atom_site_type_symbol
_atom_site_fract_x
_atom_site_fract_y
_atom_site_fract_z
V1     V     0.4229   0.5   0.1779
V2     V     0.5   0.1779   0.4229
V3     V     0.1779   0.4229   0.5
V4     V     0.3221   0.0771   0.0
V5     V     0.0771   0.0   0.3221
V6     V     0.0   0.3221   0.0771
Ti7     Ti     0.4229   0.243   0.212
Er8     Er     0.3692   0.1778   0.341
Ti9     Ti     0.257   0.288   0.0771
Er10     Er     0.3222   0.159   0.1308
Ti11     Ti     0.212   0.4229   0.243
Er12     Er     0.341   0.3692   0.1778
Ti13     Ti     0.0771   0.257   0.288
Er14     Er     0.1308   0.3222   0.159
Ti15     Ti     0.243   0.212   0.4229
Er16     Er     0.1778   0.341   0.3692
Ti17     Ti     0.288   0.0771   0.257
Er18     Er     0.159   0.1308   0.3222
V19     V     0.4229   0.5   0.8221
V20     V     0.0771   0.0   0.6779
V21     V     0.5   0.1779   0.5771
V22     V     0.0   0.3221   0.9229
Ti23     Ti     0.212   0.4229   0.757
Er24     Er     0.341   0.3692   0.8222
Ti25     Ti     0.0771   0.257   0.712
Er26     Er     0.1308   0.3222   0.841
Ti27     Ti     0.257   0.288   0.9229
Er28     Er     0.3222   0.159   0.8692
Ti29     Ti     0.243   0.212   0.5771
Er30     Er     0.1778   0.341   0.6308
Ti31     Ti     0.4229   0.243   0.788
Er32     Er     0.3692   0.1778   0.659
Ti33     Ti     0.288   0.0771   0.743
Er34     Er     0.159   0.1308   0.6778
V35     V     0.5771   0.5   0.8221
V36     V     0.9229   0.0   0.6779
Ti37     Ti     0.788   0.4229   0.757
Er38     Er     0.659   0.3692   0.8222
Ti39     Ti     0.9229   0.257   0.712
Er40     Er     0.8692   0.3222   0.841
Ti41     Ti     0.743   0.288   0.9229
Er42     Er     0.6778   0.159   0.8692
Ti43     Ti     0.5771   0.243   0.788
Er44     Er     0.6308   0.1778   0.659
Ti45     Ti     0.712   0.0771   0.743
Er46     Er     0.841   0.1308   0.6778
Ti47     Ti     0.757   0.212   0.5771
Er48     Er     0.8222   0.341   0.6308
V49     V     0.5   0.8221   0.4229
V50     V     0.0   0.6779   0.0771
V51     V     0.1779   0.5771   0.5
V52     V     0.3221   0.9229   0.0
Ti53     Ti     0.4229   0.757   0.212
Er54     Er     0.3692   0.8222   0.341
Ti55     Ti     0.257   0.712   0.0771
Er56     Er     0.3222   0.841   0.1308
Ti57     Ti     0.288   0.9229   0.257
Er58     Er     0.159   0.8692   0.3222
Ti59     Ti     0.243   0.788   0.4229
Er60     Er     0.1778   0.659   0.3692
Ti61     Ti     0.0771   0.743   0.288
Er62     Er     0.1308   0.6778   0.159
Ti63     Ti     0.212   0.5771   0.243
Er64     Er     0.341   0.6308   0.1778
V65     V     0.5   0.8221   0.5771
V66     V     0.0   0.6779   0.9229
Ti67     Ti     0.243   0.788   0.5771
Er68     Er     0.1778   0.659   0.6308
Ti69     Ti     0.0771   0.743   0.712
Er70     Er     0.1308   0.6778   0.841
Ti71     Ti     0.212   0.5771   0.757
Er72     Er     0.341   0.6308   0.8222
Ti73     Ti     0.288   0.9229   0.743
Er74     Er     0.159   0.8692   0.6778
Ti75     Ti     0.4229   0.757   0.788
Er76     Er     0.3692   0.8222   0.659
Ti77     Ti     0.257   0.712   0.9229
Er78     Er     0.3222   0.841   0.8692
Ti79     Ti     0.757   0.788   0.5771
Er80     Er     0.8222   0.659   0.6308
Ti81     Ti     0.712   0.9229   0.743
Er82     Er     0.841   0.8692   0.6778
Ti83     Ti     0.5771   0.757   0.788
Er84     Er     0.6308   0.8222   0.659
Ti85     Ti     0.9229   0.743   0.712
Er86     Er     0.8692   0.6778   0.841
Ti87     Ti     0.788   0.5771   0.757
Er88     Er     0.659   0.6308   0.8222
Ti89     Ti     0.743   0.712   0.9229
Er90     Er     0.6778   0.841   0.8692
V91     V     0.8221   0.5771   0.5
V92     V     0.6779   0.9229   0.0
Ti93     Ti     0.757   0.788   0.4229
Er94     Er     0.8222   0.659   0.3692
Ti95     Ti     0.712   0.9229   0.257
Er96     Er     0.841   0.8692   0.3222
Ti97     Ti     0.9229   0.743   0.288
Er98     Er     0.8692   0.6778   0.159
Ti99     Ti     0.788   0.5771   0.243
Er100     Er     0.659   0.6308   0.1778
Ti101     Ti     0.743   0.712   0.0771
Er102     Er     0.6778   0.841   0.1308
Ti103     Ti     0.5771   0.757   0.212
Er104     Er     0.6308   0.8222   0.341
V105     V     0.8221   0.4229   0.5
V106     V     0.6779   0.0771   0.0
V107     V     0.5771   0.5   0.1779
V108     V     0.9229   0.0   0.3221
Ti109     Ti     0.757   0.212   0.4229
Er110     Er     0.8222   0.341   0.3692
Ti111     Ti     0.712   0.0771   0.257
Er112     Er     0.841   0.1308   0.3222
Ti113     Ti     0.9229   0.257   0.288
Er114     Er     0.8692   0.3222   0.159
Ti115     Ti     0.5771   0.243   0.212
Er116     Er     0.6308   0.1778   0.341
Ti117     Ti     0.788   0.4229   0.243
Er118     Er     0.659   0.3692   0.1778
Ti119     Ti     0.743   0.288   0.0771
Er120     Er     0.6778   0.159   0.1308
loop_
_geom_bond_atom_site_label_1
_geom_bond_atom_site_label_2
_geom_bond_distance
_geom_bond_site_symmetry_2
_ccdc_geom_bond_type
V1     Er64    10.0   .     S
V1     Er12    10.0   .     S
V1     V107    10.0   .     S
V2     Er116    10.0   .     S
V2     Er8    10.0   .     S
V2     V21    10.0   .     S
V3     Er30    10.0   .     S
V3     Er16    10.0   .     S
V3     V51    10.0   .     S
V4     Er28    10.0   1_554     S
V4     Er10    10.0   .     S
V4     V52    10.0   1_545     S
V5     Er58    10.0   1_545     S
V5     Er18    10.0   .     S
V5     V108    10.0   1_455     S
V6     Er114    10.0   1_455     S
V6     Er14    10.0   .     S
V6     V22    10.0   1_554     S
Ti7     Er8    9.999   .     S
Ti7     Er10    10.0   .     S
Ti7     Er12    10.0   .     S
Ti7     Ti115    10.0   .     S
Er8     Ti15    10.0   .     S
Er8     Ti17    10.0   .     S
Ti9     Er10    9.999   .     S
Ti9     Er12    10.0   .     S
Ti9     Er14    10.0   .     S
Ti9     Ti27    10.0   1_554     S
Er10     Ti17    10.0   .     S
Ti11     Er12    9.999   .     S
Ti11     Er14    10.0   .     S
Ti11     Er16    10.0   .     S
Ti11     Ti63    10.0   .     S
Ti13     Er14    9.999   .     S
Ti13     Er16    10.0   .     S
Ti13     Er18    10.0   .     S
Ti13     Ti113    10.0   1_455     S
Ti15     Er16    9.999   .     S
Ti15     Er18    10.0   .     S
Ti15     Ti29    10.0   .     S
Ti17     Er18    9.999   .     S
Ti17     Ti57    10.0   1_545     S
V19     Er72    10.0   .     S
V19     Er24    10.0   .     S
V19     V35    10.0   .     S
V20     Er74    10.0   1_545     S
V20     Er34    10.0   .     S
V20     V36    10.0   1_455     S
V21     Er44    10.0   .     S
V21     Er32    10.0   .     S
V22     Er40    10.0   1_455     S
V22     Er26    10.0   .     S
V22     V6    10.0   1_556     S
Ti23     Er24    9.999   .     S
Ti23     Er26    10.0   .     S
Ti23     Er30    10.0   .     S
Ti23     Ti71    10.0   .     S
Er24     Ti31    10.0   .     S
Er24     Ti27    10.0   .     S
Ti25     Er26    9.999   .     S
Ti25     Er30    10.0   .     S
Ti25     Er34    10.0   .     S
Ti25     Ti39    10.0   1_455     S
Er26     Ti27    10.0   .     S
Ti27     Er28    9.999   .     S
Ti27     Ti9    10.0   1_556     S
Er28     V4    10.0   1_556     S
Er28     Ti33    10.0   .     S
Er28     Ti31    10.0   .     S
Ti29     Er30    9.999   .     S
Ti29     Er34    10.0   .     S
Ti29     Er32    10.0   .     S
Ti31     Er32    9.999   .     S
Ti31     Ti43    10.0   .     S
Er32     Ti33    10.0   .     S
Ti33     Er34    9.999   .     S
Ti33     Ti73    10.0   1_545     S
V35     Er88    10.0   .     S
V35     Er38    10.0   .     S
V36     Er82    10.0   1_545     S
V36     Er46    10.0   .     S
V36     V20    10.0   1_655     S
Ti37     Er38    9.999   .     S
Ti37     Er40    10.0   .     S
Ti37     Er48    10.0   .     S
Ti37     Ti87    10.0   .     S
Er38     Ti43    10.0   .     S
Er38     Ti41    10.0   .     S
Ti39     Er40    9.999   .     S
Ti39     Er48    10.0   .     S
Ti39     Er46    10.0   .     S
Ti39     Ti25    10.0   1_655     S
Er40     V22    10.0   1_655     S
Er40     Ti41    10.0   .     S
Ti41     Er42    9.999   .     S
Ti41     Ti119    10.0   1_556     S
Er42     Ti45    10.0   .     S
Er42     Ti43    10.0   .     S
Er42     V106    10.0   1_556     S
Ti43     Er44    9.999   .     S
Er44     Ti47    10.0   .     S
Er44     Ti45    10.0   .     S
Ti45     Er46    9.999   .     S
Ti45     Ti81    10.0   1_545     S
Er46     Ti47    10.0   .     S
Ti47     Er48    9.999   .     S
Ti47     Ti109    10.0   .     S
Er48     V105    10.0   .     S
V49     Er104    10.0   .     S
V49     Er54    10.0   .     S
V49     V65    10.0   .     S
V50     Er98    10.0   1_455     S
V50     Er62    10.0   .     S
V50     V66    10.0   1_554     S
V51     Er68    10.0   .     S
V51     Er60    10.0   .     S
V52     Er78    10.0   1_554     S
V52     Er56    10.0   .     S
V52     V4    10.0   1_565     S
Ti53     Er54    9.999   .     S
Ti53     Er56    10.0   .     S
Ti53     Er64    10.0   .     S
Ti53     Ti103    10.0   .     S
Er54     Ti59    10.0   .     S
Er54     Ti57    10.0   .     S
Ti55     Er56    9.999   .     S
Ti55     Er64    10.0   .     S
Ti55     Er62    10.0   .     S
Ti55     Ti77    10.0   1_554     S
Er56     Ti57    10.0   .     S
Ti57     Er58    9.999   .     S
Ti57     Ti17    10.0   1_565     S
Er58     V5    10.0   1_565     S
Er58     Ti61    10.0   .     S
Er58     Ti59    10.0   .     S
Ti59     Er60    9.999   .     S
Ti59     Ti67    10.0   .     S
Er60     Ti63    10.0   .     S
Er60     Ti61    10.0   .     S
Ti61     Er62    9.999   .     S
Ti61     Ti97    10.0   1_455     S
Er62     Ti63    10.0   .     S
Ti63     Er64    9.999   .     S
V65     Er84    10.0   .     S
V65     Er76    10.0   .     S
V66     Er86    10.0   1_455     S
V66     Er70    10.0   .     S
V66     V50    10.0   1_556     S
Ti67     Er68    9.999   .     S
Ti67     Er74    10.0   .     S
Ti67     Er76    10.0   .     S
Er68     Ti71    10.0   .     S
Er68     Ti69    10.0   .     S
Ti69     Er70    9.999   .     S
Ti69     Er74    10.0   .     S
Ti69     Ti85    10.0   1_455     S
Er70     Ti77    10.0   .     S
Er70     Ti71    10.0   .     S
Ti71     Er72    9.999   .     S
Er72     Ti75    10.0   .     S
Er72     Ti77    10.0   .     S
Ti73     Er74    9.999   .     S
Ti73     Er76    10.0   .     S
Ti73     Er78    10.0   .     S
Ti73     Ti33    10.0   1_565     S
Er74     V20    10.0   1_565     S
Ti75     Er76    9.999   .     S
Ti75     Er78    10.0   .     S
Ti75     Ti83    10.0   .     S
Ti77     Er78    9.999   .     S
Ti77     Ti55    10.0   1_556     S
Er78     V52    10.0   1_556     S
Ti79     Er80    9.999   .     S
Ti79     Er82    10.0   .     S
Ti79     Er84    10.0   .     S
Ti79     Ti93    10.0   .     S
Er80     Ti87    10.0   .     S
Er80     Ti85    10.0   .     S
Er80     V91    10.0   .     S
Ti81     Er82    9.999   .     S
Ti81     Er84    10.0   .     S
Ti81     Er90    10.0   .     S
Ti81     Ti45    10.0   1_565     S
Er82     V36    10.0   1_565     S
Er82     Ti85    10.0   .     S
Ti83     Er84    9.999   .     S
Ti83     Er90    10.0   .     S
Ti83     Er88    10.0   .     S
Ti85     Er86    9.999   .     S
Ti85     Ti69    10.0   1_655     S
Er86     V66    10.0   1_655     S
Er86     Ti89    10.0   .     S
Er86     Ti87    10.0   .     S
Ti87     Er88    9.999   .     S
Er88     Ti89    10.0   .     S
Ti89     Er90    9.999   .     S
Ti89     Ti101    10.0   1_556     S
Er90     V92    10.0   1_556     S
V91     Er94    10.0   .     S
V91     V105    10.0   .     S
V92     Er90    10.0   1_554     S
V92     Er102    10.0   .     S
V92     V106    10.0   1_565     S
Ti93     Er94    9.999   .     S
Ti93     Er96    10.0   .     S
Ti93     Er104    10.0   .     S
Er94     Ti99    10.0   .     S
Er94     Ti97    10.0   .     S
Ti95     Er96    9.999   .     S
Ti95     Er104    10.0   .     S
Ti95     Er102    10.0   .     S
Ti95     Ti111    10.0   1_565     S
Er96     Ti97    10.0   .     S
Er96     V108    10.0   1_565     S
Ti97     Er98    9.999   .     S
Ti97     Ti61    10.0   1_655     S
Er98     V50    10.0   1_655     S
Er98     Ti101    10.0   .     S
Er98     Ti99    10.0   .     S
Ti99     Er100    9.999   .     S
Ti99     Ti117    10.0   .     S
Er100     Ti103    10.0   .     S
Er100     Ti101    10.0   .     S
Er100     V107    10.0   .     S
Ti101     Er102    9.999   .     S
Ti101     Ti89    10.0   1_554     S
Er102     Ti103    10.0   .     S
Ti103     Er104    9.999   .     S
V105     Er110    10.0   .     S
V106     Er42    10.0   1_554     S
V106     Er120    10.0   .     S
V106     V92    10.0   1_545     S
V107     Er118    10.0   .     S
V108     Er96    10.0   1_545     S
V108     Er112    10.0   .     S
V108     V5    10.0   1_655     S
Ti109     Er110    9.999   .     S
Ti109     Er112    10.0   .     S
Ti109     Er116    10.0   .     S
Er110     Ti117    10.0   .     S
Er110     Ti113    10.0   .     S
Ti111     Er112    9.999   .     S
Ti111     Er116    10.0   .     S
Ti111     Er120    10.0   .     S
Ti111     Ti95    10.0   1_545     S
Er112     Ti113    10.0   .     S
Ti113     Er114    9.999   .     S
Ti113     Ti13    10.0   1_655     S
Er114     V6    10.0   1_655     S
Er114     Ti119    10.0   .     S
Er114     Ti117    10.0   .     S
Ti115     Er116    9.999   .     S
Ti115     Er120    10.0   .     S
Ti115     Er118    10.0   .     S
Ti117     Er118    9.999   .     S
Er118     Ti119    10.0   .     S
Ti119     Er120    9.999   .     S
Ti119     Ti41    10.0   1_554     S
