data_csqa
_audit_creation_date              2020-02-04
_audit_creation_method            'Pymatgen'
_symmetry_space_group_name_H-M    'P1'
_symmetry_Int_Tables_number       1
loop_
_symmetry_equiv_pos_as_xyz
  x,y,z
_cell_length_a                    80.7355
_cell_length_b                    80.7355
_cell_length_c                    30.9932
_cell_angle_alpha                 90.0
_cell_angle_beta                 90.0
_cell_angle_gamma                 120.0
loop_
_atom_site_label
_atom_site_type_symbol
_atom_site_fract_x
_atom_site_fract_y
_atom_site_fract_z
Er1     Er     0.4732   0.2985   0.1613
Er2     Er     0.4732   0.1746   0.1613
Er3     Er     0.4732   0.2985   0.8387
Er4     Er     0.4732   0.1746   0.8387
Er5     Er     0.8254   0.2985   0.1613
Er6     Er     0.7015   0.1746   0.1613
Er7     Er     0.8254   0.2985   0.8387
Er8     Er     0.7015   0.1746   0.8387
Er9     Er     0.2985   0.4732   0.1613
Er10     Er     0.1746   0.4732   0.1613
Er11     Er     0.2985   0.4732   0.8387
Er12     Er     0.1746   0.4732   0.8387
V13     V     0.4738   0.0715   0.3387
V14     V     0.4023   0.9285   0.3387
V15     V     0.5977   0.0715   0.3387
V16     V     0.5262   0.9285   0.3387
V17     V     0.4738   0.0715   0.6613
V18     V     0.4023   0.9285   0.6613
V19     V     0.5977   0.0715   0.6613
V20     V     0.5262   0.9285   0.6613
V21     V     0.5262   0.5977   0.3387
V22     V     0.5977   0.5262   0.3387
V23     V     0.4738   0.4023   0.3387
V24     V     0.4023   0.4738   0.3387
V25     V     0.5262   0.5977   0.6613
V26     V     0.5977   0.5262   0.6613
V27     V     0.4738   0.4023   0.6613
V28     V     0.4023   0.4738   0.6613
Er29     Er     0.5268   0.7015   0.1613
Er30     Er     0.5268   0.8254   0.1613
Er31     Er     0.5268   0.7015   0.8387
Er32     Er     0.5268   0.8254   0.8387
Er33     Er     0.8254   0.5268   0.1613
Er34     Er     0.7015   0.5268   0.1613
Er35     Er     0.8254   0.5268   0.8387
Er36     Er     0.7015   0.5268   0.8387
V37     V     0.0715   0.5977   0.3387
V38     V     0.9285   0.5262   0.3387
V39     V     0.0715   0.4738   0.3387
V40     V     0.9285   0.4023   0.3387
V41     V     0.0715   0.5977   0.6613
V42     V     0.9285   0.5262   0.6613
V43     V     0.0715   0.4738   0.6613
V44     V     0.9285   0.4023   0.6613
Er45     Er     0.2985   0.8254   0.1613
Er46     Er     0.1746   0.7015   0.1613
Er47     Er     0.2985   0.8254   0.8387
Er48     Er     0.1746   0.7015   0.8387
loop_
_geom_bond_atom_site_label_1
_geom_bond_atom_site_label_2
_geom_bond_distance
_geom_bond_site_symmetry_2
_ccdc_geom_bond_type
Er1     Er2    9.999   .     S
Er1     Er3    10.0   1_554     S
Er1     V23    10.0   .     S
Er2     Er4    10.0   1_554     S
Er2     V13    10.0   .     S
Er3     Er4    9.999   .     S
Er3     Er1    10.0   1_556     S
Er3     V27    10.0   .     S
Er4     Er2    10.0   1_556     S
Er4     V17    10.0   .     S
Er5     Er6    9.999   .     S
Er5     Er7    10.0   1_554     S
Er5     V40    10.0   .     S
Er6     Er8    10.0   1_554     S
Er6     V15    10.0   .     S
Er7     Er8    9.999   .     S
Er7     Er5    10.0   1_556     S
Er7     V44    10.0   .     S
Er8     Er6    10.0   1_556     S
Er8     V19    10.0   .     S
Er9     Er10    9.999   .     S
Er9     Er11    10.0   1_554     S
Er9     V24    10.0   .     S
Er10     Er12    10.0   1_554     S
Er10     V39    10.0   .     S
Er11     Er12    9.999   .     S
Er11     Er9    10.0   1_556     S
Er11     V28    10.0   .     S
Er12     Er10    10.0   1_556     S
Er12     V43    10.0   .     S
V13     V15    10.001   .     S
V13     V14    10.0   1_545     S
V13     V17    10.0   .     S
V14     Er45    10.0   .     S
V14     V13    10.0   1_565     S
V14     V16    10.001   .     S
V14     V18    10.0   .     S
V15     V16    10.0   1_545     S
V15     V19    10.0   .     S
V16     Er30    10.0   .     S
V16     V15    10.0   1_565     S
V16     V20    10.0   .     S
V17     V19    10.001   .     S
V17     V18    10.0   1_545     S
V18     Er47    10.0   .     S
V18     V17    10.0   1_565     S
V18     V20    10.001   .     S
V19     V20    10.0   1_545     S
V20     Er32    10.0   .     S
V20     V19    10.0   1_565     S
V21     Er29    10.0   .     S
V21     V22    10.0   .     S
V21     V24    10.001   .     S
V21     V25    10.0   .     S
V22     Er34    10.0   .     S
V22     V23    10.001   .     S
V22     V26    10.0   .     S
V23     V24    10.0   .     S
V23     V27    10.0   .     S
V24     V28    10.0   .     S
V25     Er31    10.0   .     S
V25     V26    10.0   .     S
V25     V28    10.001   .     S
V26     Er36    10.0   .     S
V26     V27    10.001   .     S
V27     V28    10.0   .     S
Er29     Er30    9.999   .     S
Er29     Er31    10.0   1_554     S
Er30     Er32    10.0   1_554     S
Er31     Er32    9.999   .     S
Er31     Er29    10.0   1_556     S
Er32     Er30    10.0   1_556     S
Er33     Er34    9.999   .     S
Er33     Er35    10.0   1_554     S
Er33     V38    10.0   .     S
Er34     Er36    10.0   1_554     S
Er35     Er36    9.999   .     S
Er35     Er33    10.0   1_556     S
Er35     V42    10.0   .     S
Er36     Er34    10.0   1_556     S
V37     Er46    10.0   .     S
V37     V38    10.0   1_455     S
V37     V39    10.001   .     S
V37     V41    10.0   .     S
V38     V37    10.0   1_655     S
V38     V40    10.001   .     S
V38     V42    10.0   .     S
V39     V40    10.0   1_455     S
V39     V43    10.0   .     S
V40     V39    10.0   1_655     S
V40     V44    10.0   .     S
V41     Er48    10.0   .     S
V41     V42    10.0   1_455     S
V41     V43    10.001   .     S
V42     V41    10.0   1_655     S
V42     V44    10.001   .     S
V43     V44    10.0   1_455     S
V44     V43    10.0   1_655     S
Er45     Er46    9.999   .     S
Er45     Er47    10.0   1_554     S
Er46     Er48    10.0   1_554     S
Er47     Er48    9.999   .     S
Er47     Er45    10.0   1_556     S
Er48     Er46    10.0   1_556     S
