data_ctna
_audit_creation_date              2020-02-04
_audit_creation_method            'Pymatgen'
_symmetry_space_group_name_H-M    'P1'
_symmetry_Int_Tables_number       1
loop_
_symmetry_equiv_pos_as_xyz
  x,y,z
_cell_length_a                    81.0585
_cell_length_b                    81.0585
_cell_length_c                    81.0585
_cell_angle_alpha                 90.0
_cell_angle_beta                 90.0
_cell_angle_gamma                 90.0
loop_
_atom_site_label
_atom_site_type_symbol
_atom_site_fract_x
_atom_site_fract_y
_atom_site_fract_z
V1     V     0.255   0.8442   0.2796
V2     V     0.255   0.1558   0.2204
Er3     Er     0.3314   0.9394   0.2617
Er4     Er     0.3314   0.0606   0.2383
V5     V     0.8442   0.2796   0.255
V6     V     0.1558   0.2204   0.255
Er7     Er     0.9394   0.2617   0.3314
Er8     Er     0.0606   0.2383   0.3314
V9     V     0.2796   0.255   0.8442
V10     V     0.2204   0.255   0.1558
Er11     Er     0.2617   0.3314   0.9394
Er12     Er     0.2383   0.3314   0.0606
V13     V     0.245   0.1558   0.7796
V14     V     0.245   0.8442   0.7204
Er15     Er     0.1686   0.9394   0.7383
Er16     Er     0.1686   0.0606   0.7617
V17     V     0.6558   0.2796   0.745
V18     V     0.3442   0.2204   0.745
Er19     Er     0.5606   0.2617   0.6686
Er20     Er     0.4394   0.2383   0.6686
V21     V     0.755   0.6558   0.7204
V22     V     0.755   0.3442   0.7796
Er23     Er     0.8314   0.5606   0.7383
Er24     Er     0.8314   0.4394   0.7617
V25     V     0.7204   0.245   0.8442
V26     V     0.7796   0.245   0.1558
Er27     Er     0.7383   0.1686   0.9394
Er28     Er     0.7617   0.1686   0.0606
V29     V     0.745   0.6558   0.2796
V30     V     0.745   0.3442   0.2204
Er31     Er     0.6686   0.5606   0.2617
Er32     Er     0.6686   0.4394   0.2383
V33     V     0.7204   0.755   0.6558
V34     V     0.7796   0.755   0.3442
Er35     Er     0.7383   0.8314   0.5606
Er36     Er     0.7617   0.8314   0.4394
V37     V     0.8442   0.7204   0.245
V38     V     0.1558   0.7796   0.245
Er39     Er     0.9394   0.7383   0.1686
Er40     Er     0.0606   0.7617   0.1686
V41     V     0.2796   0.745   0.6558
V42     V     0.2204   0.745   0.3442
Er43     Er     0.2617   0.6686   0.5606
Er44     Er     0.2383   0.6686   0.4394
V45     V     0.6558   0.7204   0.755
V46     V     0.3442   0.7796   0.755
Er47     Er     0.5606   0.7383   0.8314
Er48     Er     0.4394   0.7617   0.8314
V49     V     0.0296   0.5942   0.005
V50     V     0.9704   0.9058   0.005
Er51     Er     0.9883   0.8106   0.0814
Er52     Er     0.0117   0.6894   0.0814
V53     V     0.505   0.5296   0.0942
V54     V     0.505   0.4704   0.4058
Er55     Er     0.5814   0.5117   0.1894
Er56     Er     0.5814   0.4883   0.3106
V57     V     0.5296   0.0942   0.505
V58     V     0.4704   0.4058   0.505
Er59     Er     0.5117   0.1894   0.5814
Er60     Er     0.4883   0.3106   0.5814
V61     V     0.0942   0.505   0.5296
V62     V     0.4058   0.505   0.4704
Er63     Er     0.1894   0.5814   0.5117
Er64     Er     0.3106   0.5814   0.4883
V65     V     0.0296   0.4058   0.495
V66     V     0.9704   0.0942   0.495
Er67     Er     0.9883   0.1894   0.4186
Er68     Er     0.0117   0.3106   0.4186
V69     V     0.995   0.5296   0.9058
V70     V     0.995   0.4704   0.5942
Er71     Er     0.9186   0.4883   0.6894
Er72     Er     0.9186   0.5117   0.8106
V73     V     0.005   0.9704   0.9058
V74     V     0.005   0.0296   0.5942
Er75     Er     0.0814   0.9883   0.8106
Er76     Er     0.0814   0.0117   0.6894
V77     V     0.9058   0.995   0.5296
V78     V     0.5942   0.995   0.4704
Er79     Er     0.8106   0.9186   0.5117
Er80     Er     0.6894   0.9186   0.4883
V81     V     0.495   0.9704   0.0942
V82     V     0.495   0.0296   0.4058
Er83     Er     0.4186   0.0117   0.3106
Er84     Er     0.4186   0.9883   0.1894
V85     V     0.0942   0.495   0.9704
V86     V     0.4058   0.495   0.0296
Er87     Er     0.1894   0.4186   0.9883
Er88     Er     0.3106   0.4186   0.0117
V89     V     0.9058   0.005   0.9704
V90     V     0.5942   0.005   0.0296
Er91     Er     0.8106   0.0814   0.9883
Er92     Er     0.6894   0.0814   0.0117
V93     V     0.4704   0.5942   0.995
V94     V     0.5296   0.9058   0.995
Er95     Er     0.5117   0.8106   0.9186
Er96     Er     0.4883   0.6894   0.9186
loop_
_geom_bond_atom_site_label_1
_geom_bond_atom_site_label_2
_geom_bond_distance
_geom_bond_site_symmetry_2
_ccdc_geom_bond_type
V1     V42    10.0   .     S
V1     Er3    10.0   .     S
V1     V38    10.0   .     S
V2     V10    10.0   .     S
V2     Er4    10.0   .     S
V2     V6    10.0   .     S
Er3     Er84    10.0   .     S
Er3     Er83    10.0   1_565     S
Er3     Er4    10.0   1_565     S
Er4     Er83    10.0   .     S
Er4     Er84    10.0   1_545     S
Er4     Er3    10.0   1_545     S
V5     V30    10.0   .     S
V5     Er7    10.0   .     S
V5     V26    10.0   .     S
V6     Er8    10.0   .     S
V6     V10    10.0   .     S
Er7     Er67    10.0   .     S
Er7     Er68    10.0   1_655     S
Er7     Er8    10.0   1_655     S
Er8     Er68    10.0   .     S
Er8     Er67    10.0   1_455     S
Er8     Er7    10.0   1_455     S
V9     V18    10.0   .     S
V9     Er11    10.0   .     S
V9     V13    10.0   .     S
V10     Er12    10.0   .     S
Er11     Er88    10.0   1_556     S
Er11     Er87    10.0   .     S
Er11     Er12    10.0   1_556     S
Er12     Er87    10.0   1_554     S
Er12     Er88    10.0   .     S
Er12     Er11    10.0   1_554     S
V13     Er16    10.0   .     S
V13     V18    10.0   .     S
V14     V41    10.0   .     S
V14     Er15    10.0   .     S
V14     V46    10.0   .     S
Er15     Er76    10.0   1_565     S
Er15     Er75    10.0   .     S
Er15     Er16    10.0   1_565     S
Er16     Er76    10.0   .     S
Er16     Er75    10.0   1_545     S
Er16     Er15    10.0   1_545     S
V17     V22    10.0   .     S
V17     Er19    10.0   .     S
V17     V25    10.0   .     S
V18     Er20    10.0   .     S
Er19     Er20    10.0   .     S
Er19     Er59    10.0   .     S
Er19     Er60    10.0   .     S
Er20     Er59    10.0   .     S
Er20     Er60    10.0   .     S
V21     V33    10.0   .     S
V21     Er23    10.0   .     S
V21     V45    10.0   .     S
V22     V25    10.0   .     S
V22     Er24    10.0   .     S
Er23     Er71    10.0   .     S
Er23     Er72    10.0   .     S
Er23     Er24    10.0   .     S
Er24     Er72    10.0   .     S
Er24     Er71    10.0   .     S
V25     Er27    10.0   .     S
V26     Er28    10.0   .     S
V26     V30    10.0   .     S
Er27     Er92    10.0   1_556     S
Er27     Er91    10.0   .     S
Er27     Er28    10.0   1_556     S
Er28     Er91    10.0   1_554     S
Er28     Er92    10.0   .     S
Er28     Er27    10.0   1_554     S
V29     V34    10.0   .     S
V29     Er31    10.0   .     S
V29     V37    10.0   .     S
V30     Er32    10.0   .     S
Er31     Er55    10.0   .     S
Er31     Er56    10.0   .     S
Er31     Er32    10.0   .     S
Er32     Er55    10.0   .     S
Er32     Er56    10.0   .     S
V33     V45    10.0   .     S
V33     Er35    10.0   .     S
V34     V37    10.0   .     S
V34     Er36    10.0   .     S
Er35     Er80    10.0   .     S
Er35     Er79    10.0   .     S
Er35     Er36    10.0   .     S
Er36     Er79    10.0   .     S
Er36     Er80    10.0   .     S
V37     Er39    10.0   .     S
V38     Er40    10.0   .     S
V38     V42    10.0   .     S
Er39     Er52    10.0   1_655     S
Er39     Er51    10.0   .     S
Er39     Er40    10.0   1_655     S
Er40     Er52    10.0   .     S
Er40     Er51    10.0   1_455     S
Er40     Er39    10.0   1_455     S
V41     V46    10.0   .     S
V41     Er43    10.0   .     S
V42     Er44    10.0   .     S
Er43     Er63    10.0   .     S
Er43     Er64    10.0   .     S
Er43     Er44    10.0   .     S
Er44     Er63    10.0   .     S
Er44     Er64    10.0   .     S
V45     Er47    10.0   .     S
V46     Er48    10.0   .     S
Er47     Er96    10.0   .     S
Er47     Er95    10.0   .     S
Er47     Er48    10.0   .     S
Er48     Er95    10.0   .     S
Er48     Er96    10.0   .     S
V49     V85    10.0   1_554     S
V49     Er52    10.0   .     S
V49     V69    10.0   1_454     S
V50     V89    10.0   1_564     S
V50     Er51    10.0   .     S
V50     V73    10.0   1_654     S
Er51     Er40    10.0   1_655     S
Er51     Er52    10.0   1_655     S
Er52     Er39    10.0   1_455     S
Er52     Er51    10.0   1_455     S
V53     V93    10.0   1_554     S
V53     Er55    10.0   .     S
V53     V86    10.0   .     S
V54     V58    10.0   .     S
V54     Er56    10.0   .     S
V54     V62    10.0   .     S
Er55     Er56    10.0   .     S
V57     V78    10.0   1_545     S
V57     Er59    10.0   .     S
V57     V82    10.0   .     S
V58     V62    10.0   .     S
V58     Er60    10.0   .     S
Er59     Er60    10.0   .     S
V61     V70    10.0   1_455     S
V61     Er63    10.0   .     S
V61     V65    10.0   .     S
V62     Er64    10.0   .     S
Er63     Er64    10.0   .     S
V65     Er68    10.0   .     S
V65     V70    10.0   1_455     S
V66     V77    10.0   1_545     S
V66     Er67    10.0   .     S
V66     V74    10.0   1_655     S
Er67     Er8    10.0   1_655     S
Er67     Er68    10.0   1_655     S
Er68     Er7    10.0   1_455     S
Er68     Er67    10.0   1_455     S
V69     V49    10.0   1_656     S
V69     Er72    10.0   .     S
V69     V85    10.0   1_655     S
V70     V61    10.0   1_655     S
V70     V65    10.0   1_655     S
V70     Er71    10.0   .     S
Er71     Er72    10.0   .     S
V73     V50    10.0   1_456     S
V73     Er75    10.0   .     S
V73     V89    10.0   1_465     S
V74     V66    10.0   1_455     S
V74     Er76    10.0   .     S
V74     V77    10.0   1_445     S
Er75     Er16    10.0   1_565     S
Er75     Er76    10.0   1_565     S
Er76     Er15    10.0   1_545     S
Er76     Er75    10.0   1_545     S
V77     V66    10.0   1_565     S
V77     V74    10.0   1_665     S
V77     Er79    10.0   .     S
V78     V57    10.0   1_565     S
V78     V82    10.0   1_565     S
V78     Er80    10.0   .     S
Er79     Er80    10.0   .     S
V81     V94    10.0   1_554     S
V81     Er84    10.0   .     S
V81     V90    10.0   1_565     S
V82     V78    10.0   1_545     S
V82     Er83    10.0   .     S
Er83     Er3    10.0   1_545     S
Er83     Er84    10.0   1_545     S
Er84     Er4    10.0   1_565     S
Er84     Er83    10.0   1_565     S
V85     V49    10.0   1_556     S
V85     V69    10.0   1_455     S
V85     Er87    10.0   .     S
V86     Er88    10.0   .     S
V86     V93    10.0   1_554     S
Er87     Er12    10.0   1_556     S
Er87     Er88    10.0   1_556     S
Er88     Er11    10.0   1_554     S
Er88     Er87    10.0   1_554     S
V89     V50    10.0   1_546     S
V89     V73    10.0   1_645     S
V89     Er91    10.0   .     S
V90     V81    10.0   1_545     S
V90     Er92    10.0   .     S
V90     V94    10.0   1_544     S
Er91     Er28    10.0   1_556     S
Er91     Er92    10.0   1_556     S
Er92     Er27    10.0   1_554     S
Er92     Er91    10.0   1_554     S
V93     V53    10.0   1_556     S
V93     V86    10.0   1_556     S
V93     Er96    10.0   .     S
V94     V81    10.0   1_556     S
V94     V90    10.0   1_566     S
V94     Er95    10.0   .     S
Er95     Er96    10.0   .     S
