data_ctnd
_audit_creation_date              2020-02-04
_audit_creation_method            'Pymatgen'
_symmetry_space_group_name_H-M    'P1'
_symmetry_Int_Tables_number       1
loop_
_symmetry_equiv_pos_as_xyz
  x,y,z
_cell_length_a                    47.1142
_cell_length_b                    47.1142
_cell_length_c                    47.1142
_cell_angle_alpha                 90.0
_cell_angle_beta                 90.0
_cell_angle_gamma                 90.0
loop_
_atom_site_label
_atom_site_type_symbol
_atom_site_fract_x
_atom_site_fract_y
_atom_site_fract_z
V1     V     0.25   0.9811   0.0
V2     V     0.5189   0.0   0.75
V3     V     0.75   0.5189   0.0
V4     V     0.75   0.4811   0.5
Er5     Er     0.9228   0.5772   0.4228
V6     V     0.0   0.75   0.5189
V7     V     0.5   0.25   0.0189
Er8     Er     0.4228   0.0772   0.9228
V9     V     0.4811   0.5   0.75
V10     V     0.0189   0.5   0.25
Er11     Er     0.9228   0.4228   0.0772
V12     V     0.0   0.25   0.9811
Er13     Er     0.0772   0.0772   0.0772
V14     V     0.9811   0.0   0.25
V15     V     0.25   0.0189   0.5
Er16     Er     0.0772   0.9228   0.4228
V17     V     0.5   0.75   0.4811
Er18     Er     0.4228   0.9228   0.5772
Er19     Er     0.5772   0.5772   0.5772
Er20     Er     0.5772   0.4228   0.9228
V21     V     0.5   0.25   0.2311
V22     V     0.25   0.7689   0.0
V23     V     0.2689   0.5   0.75
Er24     Er     0.1728   0.6728   0.8272
V25     V     0.25   0.2311   0.5
Er26     Er     0.1728   0.3272   0.6728
V27     V     0.2311   0.5   0.25
V28     V     0.7689   0.0   0.25
V29     V     0.5   0.75   0.2689
V30     V     0.75   0.7311   0.0
Er31     Er     0.6728   0.8272   0.1728
Er32     Er     0.6728   0.1728   0.3272
V33     V     0.0   0.75   0.7311
V34     V     0.75   0.2689   0.5
V35     V     0.0   0.25   0.7689
V36     V     0.7311   0.0   0.75
Er37     Er     0.8272   0.1728   0.6728
Er38     Er     0.8272   0.8272   0.8272
Er39     Er     0.3272   0.6728   0.1728
Er40     Er     0.3272   0.3272   0.3272
loop_
_geom_bond_atom_site_label_1
_geom_bond_atom_site_label_2
_geom_bond_distance
_geom_bond_site_symmetry_2
_ccdc_geom_bond_type
V1     Er13    10.0   1_565     S
V1     Er8    10.0   1_564     S
V1     V22    10.0   .     S
V2     Er8    10.0   .     S
V2     Er18    10.0   1_545     S
V2     V36    10.0   .     S
V3     Er11    10.0   .     S
V3     Er20    10.0   1_554     S
V3     V30    10.0   .     S
V4     Er19    10.0   .     S
V4     Er5    10.0   .     S
V4     V34    10.0   .     S
Er5     V6    10.0   1_655     S
Er5     V10    10.0   1_655     S
V6     Er16    10.0   .     S
V6     Er5    10.0   1_455     S
V6     V33    10.0   .     S
V7     Er20    10.0   1_554     S
V7     Er8    10.0   1_554     S
V7     V21    10.0   .     S
Er8     V1    10.0   1_546     S
Er8     V7    10.0   1_556     S
V9     Er19    10.0   .     S
V9     Er20    10.0   .     S
V9     V23    10.0   .     S
V10     Er5    10.0   1_455     S
V10     Er11    10.0   1_455     S
V10     V27    10.0   .     S
Er11     V10    10.0   1_655     S
Er11     V12    10.0   1_654     S
V12     Er13    10.0   1_556     S
V12     Er11    10.0   1_456     S
V12     V35    10.0   .     S
Er13     V1    10.0   1_545     S
Er13     V12    10.0   1_554     S
Er13     V14    10.0   1_455     S
V14     Er13    10.0   1_655     S
V14     Er16    10.0   1_645     S
V14     V28    10.0   .     S
V15     Er18    10.0   1_545     S
V15     Er16    10.0   1_545     S
V15     V25    10.0   .     S
Er16     V14    10.0   1_465     S
Er16     V15    10.0   1_565     S
V17     Er18    10.0   .     S
V17     Er19    10.0   .     S
V17     V29    10.0   .     S
Er18     V2    10.0   1_565     S
Er18     V15    10.0   1_565     S
Er20     V3    10.0   1_556     S
Er20     V7    10.0   1_556     S
V21     Er40    10.0   .     S
V21     Er32    10.0   .     S
V22     Er24    10.0   1_554     S
V22     Er39    10.0   .     S
V23     Er26    10.0   .     S
V23     Er24    10.0   .     S
Er24     V22    10.0   1_556     S
Er24     V33    10.0   .     S
V25     Er26    10.0   .     S
V25     Er40    10.0   .     S
Er26     V35    10.0   .     S
V27     Er39    10.0   .     S
V27     Er40    10.0   .     S
V28     Er31    10.0   1_545     S
V28     Er32    10.0   .     S
V29     Er39    10.0   .     S
V29     Er31    10.0   .     S
V30     Er38    10.0   1_554     S
V30     Er31    10.0   .     S
Er31     V28    10.0   1_565     S
Er32     V34    10.0   .     S
V33     Er38    10.0   1_455     S
V34     Er37    10.0   .     S
V35     Er37    10.0   1_455     S
V36     Er38    10.0   1_545     S
V36     Er37    10.0   .     S
Er37     V35    10.0   1_655     S
Er38     V30    10.0   1_556     S
Er38     V33    10.0   1_655     S
Er38     V36    10.0   1_565     S
