data_ctne
_audit_creation_date              2020-02-04
_audit_creation_method            'Pymatgen'
_symmetry_space_group_name_H-M    'P1'
_symmetry_Int_Tables_number       1
loop_
_symmetry_equiv_pos_as_xyz
  x,y,z
_cell_length_a                    44.0221
_cell_length_b                    44.0221
_cell_length_c                    44.0221
_cell_angle_alpha                 90.0
_cell_angle_beta                 90.0
_cell_angle_gamma                 90.0
loop_
_atom_site_label
_atom_site_type_symbol
_atom_site_fract_x
_atom_site_fract_y
_atom_site_fract_z
V1     V     0.7053   0.8882   0.77
V2     V     0.7053   0.1118   0.73
V3     V     0.5447   0.98   0.6382
V4     V     0.5447   0.02   0.8618
V5     V     0.77   0.2947   0.6118
V6     V     0.73   0.2947   0.3882
V7     V     0.6382   0.4553   0.52
V8     V     0.8618   0.4553   0.48
V9     V     0.1118   0.73   0.7053
V10     V     0.8882   0.77   0.7053
V11     V     0.98   0.6382   0.5447
V12     V     0.02   0.8618   0.5447
V13     V     0.6118   0.23   0.2053
V14     V     0.3882   0.27   0.2053
V15     V     0.52   0.3618   0.0447
V16     V     0.48   0.1382   0.0447
V17     V     0.27   0.7947   0.1118
V18     V     0.23   0.7947   0.8882
V19     V     0.3618   0.9553   0.98
V20     V     0.1382   0.9553   0.02
V21     V     0.2947   0.6118   0.77
V22     V     0.2947   0.3882   0.73
V23     V     0.4553   0.52   0.6382
V24     V     0.4553   0.48   0.8618
V25     V     0.73   0.7053   0.1118
V26     V     0.77   0.7053   0.8882
V27     V     0.6382   0.5447   0.98
V28     V     0.8618   0.5447   0.02
V29     V     0.3882   0.73   0.2947
V30     V     0.6118   0.77   0.2947
V31     V     0.52   0.6382   0.4553
V32     V     0.48   0.8618   0.4553
V33     V     0.1118   0.27   0.7947
V34     V     0.8882   0.23   0.7947
V35     V     0.98   0.3618   0.9553
V36     V     0.02   0.1382   0.9553
V37     V     0.2053   0.6118   0.23
V38     V     0.2053   0.3882   0.27
V39     V     0.0447   0.52   0.3618
V40     V     0.0447   0.48   0.1382
V41     V     0.23   0.2053   0.6118
V42     V     0.27   0.2053   0.3882
V43     V     0.3618   0.0447   0.52
V44     V     0.1382   0.0447   0.48
V45     V     0.7947   0.8882   0.23
V46     V     0.7947   0.1118   0.27
V47     V     0.9553   0.98   0.3618
V48     V     0.9553   0.02   0.1382
loop_
_geom_bond_atom_site_label_1
_geom_bond_atom_site_label_2
_geom_bond_distance
_geom_bond_site_symmetry_2
_ccdc_geom_bond_type
V1     V4    10.0   1_565     S
V1     V2    10.0   1_565     S
V1     V3    10.0   .     S
V1     V26    10.0   .     S
V1     V10    10.0   .     S
V2     V3    10.0   1_545     S
V2     V1    10.0   1_545     S
V2     V4    10.0   .     S
V2     V34    10.0   .     S
V2     V5    10.0   .     S
V3     V2    10.0   1_565     S
V3     V4    10.0   1_565     S
V3     V43    10.0   1_565     S
V3     V32    10.0   .     S
V4     V1    10.0   1_545     S
V4     V3    10.0   1_545     S
V4     V19    10.0   1_545     S
V4     V16    10.0   1_556     S
V5     V8    10.0   .     S
V5     V6    10.0   .     S
V5     V7    10.0   .     S
V5     V34    10.0   .     S
V6     V7    10.0   .     S
V6     V8    10.0   .     S
V6     V46    10.0   .     S
V6     V13    10.0   .     S
V7     V31    10.0   .     S
V7     V23    10.0   .     S
V7     V8    10.0   .     S
V8     V39    10.0   1_655     S
V8     V11    10.0   .     S
V9     V11    10.0   1_455     S
V9     V10    10.0   1_455     S
V9     V12    10.0   .     S
V9     V18    10.0   .     S
V9     V21    10.0   .     S
V10     V26    10.0   .     S
V10     V12    10.0   1_655     S
V10     V9    10.0   1_655     S
V10     V11    10.0   .     S
V11     V9    10.0   1_655     S
V11     V12    10.0   1_655     S
V11     V39    10.0   1_655     S
V12     V10    10.0   1_455     S
V12     V11    10.0   1_455     S
V12     V47    10.0   1_455     S
V12     V44    10.0   1_565     S
V13     V16    10.0   .     S
V13     V14    10.0   .     S
V13     V15    10.0   .     S
V13     V46    10.0   .     S
V14     V42    10.0   .     S
V14     V38    10.0   .     S
V14     V15    10.0   .     S
V14     V16    10.0   .     S
V15     V24    10.0   1_554     S
V15     V27    10.0   1_554     S
V15     V16    10.0   .     S
V16     V19    10.0   1_544     S
V16     V4    10.0   1_554     S
V17     V29    10.0   .     S
V17     V37    10.0   .     S
V17     V19    10.0   1_554     S
V17     V18    10.0   1_554     S
V17     V20    10.0   .     S
V18     V21    10.0   .     S
V18     V20    10.0   1_556     S
V18     V17    10.0   1_556     S
V18     V19    10.0   .     S
V19     V16    10.0   1_566     S
V19     V4    10.0   1_565     S
V19     V17    10.0   1_556     S
V19     V20    10.0   1_556     S
V20     V18    10.0   1_554     S
V20     V19    10.0   1_554     S
V20     V36    10.0   1_564     S
V20     V48    10.0   1_465     S
V21     V24    10.0   .     S
V21     V22    10.0   .     S
V21     V23    10.0   .     S
V22     V23    10.0   .     S
V22     V24    10.0   .     S
V22     V33    10.0   .     S
V22     V41    10.0   .     S
V23     V31    10.0   .     S
V23     V24    10.0   .     S
V24     V15    10.0   1_556     S
V24     V27    10.0   .     S
V25     V27    10.0   1_554     S
V25     V26    10.0   1_554     S
V25     V28    10.0   .     S
V25     V45    10.0   .     S
V25     V30    10.0   .     S
V26     V28    10.0   1_556     S
V26     V25    10.0   1_556     S
V26     V27    10.0   .     S
V27     V15    10.0   1_556     S
V27     V25    10.0   1_556     S
V27     V28    10.0   1_556     S
V28     V26    10.0   1_554     S
V28     V27    10.0   1_554     S
V28     V35    10.0   1_554     S
V28     V40    10.0   1_655     S
V29     V37    10.0   .     S
V29     V31    10.0   .     S
V29     V30    10.0   .     S
V29     V32    10.0   .     S
V30     V32    10.0   .     S
V30     V31    10.0   .     S
V30     V45    10.0   .     S
V31     V32    10.0   .     S
V32     V43    10.0   1_565     S
V33     V41    10.0   .     S
V33     V35    10.0   1_455     S
V33     V34    10.0   1_455     S
V33     V36    10.0   .     S
V34     V36    10.0   1_655     S
V34     V33    10.0   1_655     S
V34     V35    10.0   .     S
V35     V40    10.0   1_656     S
V35     V28    10.0   1_556     S
V35     V33    10.0   1_655     S
V35     V36    10.0   1_655     S
V36     V34    10.0   1_455     S
V36     V35    10.0   1_455     S
V36     V48    10.0   1_456     S
V36     V20    10.0   1_546     S
V37     V40    10.0   .     S
V37     V38    10.0   .     S
V37     V39    10.0   .     S
V38     V42    10.0   .     S
V38     V39    10.0   .     S
V38     V40    10.0   .     S
V39     V11    10.0   1_455     S
V39     V8    10.0   1_455     S
V39     V40    10.0   .     S
V40     V35    10.0   1_454     S
V40     V28    10.0   1_455     S
V41     V44    10.0   .     S
V41     V42    10.0   .     S
V41     V43    10.0   .     S
V42     V43    10.0   .     S
V42     V44    10.0   .     S
V43     V32    10.0   1_545     S
V43     V3    10.0   1_545     S
V43     V44    10.0   .     S
V44     V47    10.0   1_445     S
V44     V12    10.0   1_545     S
V45     V48    10.0   1_565     S
V45     V46    10.0   1_565     S
V45     V47    10.0   .     S
V46     V47    10.0   1_545     S
V46     V45    10.0   1_545     S
V46     V48    10.0   .     S
V47     V12    10.0   1_655     S
V47     V44    10.0   1_665     S
V47     V46    10.0   1_565     S
V47     V48    10.0   1_565     S
V48     V36    10.0   1_654     S
V48     V20    10.0   1_645     S
V48     V45    10.0   1_545     S
V48     V47    10.0   1_545     S
