data_ctta
_audit_creation_date              2020-02-04
_audit_creation_method            'Pymatgen'
_symmetry_space_group_name_H-M    'P1'
_symmetry_Int_Tables_number       1
loop_
_symmetry_equiv_pos_as_xyz
  x,y,z
_cell_length_a                    57.523
_cell_length_b                    57.523
_cell_length_c                    62.4732
_cell_angle_alpha                 90.0
_cell_angle_beta                 90.0
_cell_angle_gamma                 90.0
loop_
_atom_site_label
_atom_site_type_symbol
_atom_site_fract_x
_atom_site_fract_y
_atom_site_fract_z
Ti1     Ti     0.9385   0.4385   0.6934
Ti2     Ti     0.0615   0.5615   0.6934
Ti3     Ti     0.9385   0.5615   0.8066
Ti4     Ti     0.0615   0.4385   0.8066
Ti5     Ti     0.5615   0.9385   0.6934
Ti6     Ti     0.4385   0.0615   0.6934
Ti7     Ti     0.4385   0.9385   0.8066
Ti8     Ti     0.5615   0.0615   0.8066
Ce9     Ce     0.6482   0.8518   0.42
Ce10     Ce     0.6482   0.8518   0.58
Er11     Er     0.6932   0.6838   0.58
Er12     Er     0.6932   0.6838   0.42
Er13     Er     0.8162   0.8068   0.58
Er14     Er     0.8162   0.8068   0.42
V15     V     0.9147   0.9115   0.67
V16     V     0.9147   0.9115   0.33
V17     V     0.5885   0.5853   0.67
V18     V     0.5885   0.5853   0.33
Ce19     Ce     0.8518   0.6482   0.08
Ce20     Ce     0.8518   0.6482   0.92
Er21     Er     0.6838   0.6932   0.92
Er22     Er     0.6838   0.6932   0.08
Er23     Er     0.8068   0.8162   0.92
Er24     Er     0.8068   0.8162   0.08
V25     V     0.9115   0.9147   0.83
V26     V     0.9115   0.9147   0.17
V27     V     0.5853   0.5885   0.83
V28     V     0.5853   0.5885   0.17
Ce29     Ce     0.3518   0.8518   0.08
Ce30     Ce     0.3518   0.8518   0.92
Er31     Er     0.3068   0.6838   0.92
Er32     Er     0.3068   0.6838   0.08
Er33     Er     0.1838   0.8068   0.92
Er34     Er     0.1838   0.8068   0.08
V35     V     0.0853   0.9115   0.83
V36     V     0.0853   0.9115   0.17
V37     V     0.4115   0.5853   0.83
V38     V     0.4115   0.5853   0.17
Ce39     Ce     0.1482   0.6482   0.42
Ce40     Ce     0.1482   0.6482   0.58
Er41     Er     0.3162   0.6932   0.58
Er42     Er     0.3162   0.6932   0.42
Er43     Er     0.1932   0.8162   0.58
Er44     Er     0.1932   0.8162   0.42
V45     V     0.0885   0.9147   0.67
V46     V     0.4147   0.5885   0.67
V47     V     0.4147   0.5885   0.33
V48     V     0.0885   0.9147   0.33
Ce49     Ce     0.3518   0.1482   0.42
Ce50     Ce     0.3518   0.1482   0.58
Er51     Er     0.3068   0.3162   0.58
Er52     Er     0.3068   0.3162   0.42
Er53     Er     0.1838   0.1932   0.58
Er54     Er     0.1838   0.1932   0.42
V55     V     0.0853   0.0885   0.67
V56     V     0.4115   0.4147   0.67
V57     V     0.4115   0.4147   0.33
V58     V     0.0853   0.0885   0.33
Ce59     Ce     0.1482   0.3518   0.08
Ce60     Ce     0.1482   0.3518   0.92
Er61     Er     0.3162   0.3068   0.92
Er62     Er     0.3162   0.3068   0.08
Er63     Er     0.1932   0.1838   0.92
Er64     Er     0.1932   0.1838   0.08
V65     V     0.0885   0.0853   0.83
V66     V     0.4147   0.4115   0.83
V67     V     0.4147   0.4115   0.17
V68     V     0.0885   0.0853   0.17
Ce69     Ce     0.8518   0.3518   0.42
Ce70     Ce     0.8518   0.3518   0.58
Er71     Er     0.6838   0.3068   0.58
Er72     Er     0.6838   0.3068   0.42
Er73     Er     0.8068   0.1838   0.58
Er74     Er     0.8068   0.1838   0.42
V75     V     0.9115   0.0853   0.67
V76     V     0.9115   0.0853   0.33
V77     V     0.5853   0.4115   0.67
V78     V     0.5853   0.4115   0.33
Ce79     Ce     0.6482   0.1482   0.08
Ce80     Ce     0.6482   0.1482   0.92
Er81     Er     0.6932   0.3162   0.92
Er82     Er     0.6932   0.3162   0.08
Er83     Er     0.8162   0.1932   0.92
Er84     Er     0.8162   0.1932   0.08
V85     V     0.9147   0.0885   0.83
V86     V     0.5885   0.4147   0.83
V87     V     0.5885   0.4147   0.17
V88     V     0.9147   0.0885   0.17
Ti89     Ti     0.4385   0.9385   0.1934
Ti90     Ti     0.4385   0.0615   0.3066
Ti91     Ti     0.5615   0.9385   0.3066
Ti92     Ti     0.5615   0.0615   0.1934
Ti93     Ti     0.9385   0.5615   0.1934
Ti94     Ti     0.0615   0.5615   0.3066
Ti95     Ti     0.9385   0.4385   0.3066
Ti96     Ti     0.0615   0.4385   0.1934
loop_
_geom_bond_atom_site_label_1
_geom_bond_atom_site_label_2
_geom_bond_distance
_geom_bond_site_symmetry_2
_ccdc_geom_bond_type
Ti1     Ti4    10.0   1_655     S
Ti1     Ti2    10.0   1_655     S
Ti1     Ti3    10.0   .     S
Ti1     Ce70    10.0   .     S
Ti2     Ti1    10.0   1_455     S
Ti2     Ti3    10.0   1_455     S
Ti2     Ti4    10.0   .     S
Ti2     Ce40    10.0   .     S
Ti3     Ti2    10.0   1_655     S
Ti3     Ti4    10.0   1_655     S
Ti3     Ce20    10.0   .     S
Ti4     Ti1    10.0   1_455     S
Ti4     Ti3    10.0   1_455     S
Ti4     Ce60    10.0   .     S
Ti5     Ti8    10.0   1_565     S
Ti5     Ti6    10.0   1_565     S
Ti5     Ti7    10.0   .     S
Ti5     Ce10    10.0   .     S
Ti6     Ti5    10.0   1_545     S
Ti6     Ti8    10.0   .     S
Ti6     Ti7    10.0   1_545     S
Ti6     Ce50    10.0   .     S
Ti7     Ti6    10.0   1_565     S
Ti7     Ti8    10.0   1_565     S
Ti7     Ce30    10.0   .     S
Ti8     Ti5    10.0   1_545     S
Ti8     Ti7    10.0   1_545     S
Ti8     Ce80    10.0   .     S
Ce9     Ce10    9.999   .     S
Ce9     Er14    10.0   .     S
Ce9     Er12    10.0   .     S
Ce9     Ti91    10.0   .     S
Ce10     Er13    10.0   .     S
Ce10     Er11    10.0   .     S
Er11     V17    10.0   .     S
Er11     Er12    9.999   .     S
Er11     Er13    10.0   .     S
Er12     V18    10.0   .     S
Er12     Er14    10.0   .     S
Er13     V15    10.0   .     S
Er13     Er14    9.999   .     S
Er14     V16    10.0   .     S
V15     V25    10.0   .     S
V15     V45    10.0   1_655     S
V15     V75    10.0   1_565     S
V16     V26    10.0   .     S
V16     V48    10.0   1_655     S
V16     V76    10.0   1_565     S
V17     V27    10.0   .     S
V17     V77    10.0   .     S
V17     V46    10.0   .     S
V18     V28    10.0   .     S
V18     V78    10.0   .     S
V18     V47    10.0   .     S
Ce19     Ce20    9.999   1_554     S
Ce19     Er24    10.0   .     S
Ce19     Er22    10.0   .     S
Ce19     Ti93    10.0   .     S
Ce20     Ce19    9.999   1_556     S
Ce20     Er23    10.0   .     S
Ce20     Er21    10.0   .     S
Er21     V27    10.0   .     S
Er21     Er22    9.999   1_556     S
Er21     Er23    10.0   .     S
Er22     V28    10.0   .     S
Er22     Er21    9.999   1_554     S
Er22     Er24    10.0   .     S
Er23     V25    10.0   .     S
Er23     Er24    9.999   1_556     S
Er24     V26    10.0   .     S
Er24     Er23    9.999   1_554     S
V25     V85    10.0   1_565     S
V25     V35    10.0   1_655     S
V26     V88    10.0   1_565     S
V26     V36    10.0   1_655     S
V27     V37    10.0   .     S
V27     V86    10.0   .     S
V28     V38    10.0   .     S
V28     V87    10.0   .     S
Ce29     Ce30    9.999   1_554     S
Ce29     Er34    10.0   .     S
Ce29     Er32    10.0   .     S
Ce29     Ti89    10.0   .     S
Ce30     Ce29    9.999   1_556     S
Ce30     Er33    10.0   .     S
Ce30     Er31    10.0   .     S
Er31     V37    10.0   .     S
Er31     Er32    9.999   1_556     S
Er31     Er33    10.0   .     S
Er32     V38    10.0   .     S
Er32     Er31    9.999   1_554     S
Er32     Er34    10.0   .     S
Er33     V35    10.0   .     S
Er33     Er34    9.999   1_556     S
Er34     V36    10.0   .     S
Er34     Er33    9.999   1_554     S
V35     V45    10.0   .     S
V35     V25    10.0   1_455     S
V35     V65    10.0   1_565     S
V36     V48    10.0   .     S
V36     V68    10.0   1_565     S
V36     V26    10.0   1_455     S
V37     V46    10.0   .     S
V37     V66    10.0   .     S
V38     V47    10.0   .     S
V38     V67    10.0   .     S
Ce39     Ce40    9.999   .     S
Ce39     Er44    10.0   .     S
Ce39     Er42    10.0   .     S
Ce39     Ti94    10.0   .     S
Ce40     Er43    10.0   .     S
Ce40     Er41    10.0   .     S
Er41     V46    10.0   .     S
Er41     Er42    9.999   .     S
Er41     Er43    10.0   .     S
Er42     V47    10.0   .     S
Er42     Er44    10.0   .     S
Er43     V45    10.0   .     S
Er43     Er44    9.999   .     S
Er44     V48    10.0   .     S
V45     V15    10.0   1_455     S
V45     V55    10.0   1_565     S
V46     V56    10.0   .     S
V47     V57    10.0   .     S
V48     V16    10.0   1_455     S
V48     V58    10.0   1_565     S
Ce49     Ce50    9.999   .     S
Ce49     Er54    10.0   .     S
Ce49     Er52    10.0   .     S
Ce49     Ti90    10.0   .     S
Ce50     Er53    10.0   .     S
Ce50     Er51    10.0   .     S
Er51     V56    10.0   .     S
Er51     Er52    9.999   .     S
Er51     Er53    10.0   .     S
Er52     V57    10.0   .     S
Er52     Er54    10.0   .     S
Er53     V55    10.0   .     S
Er53     Er54    9.999   .     S
Er54     V58    10.0   .     S
V55     V45    10.0   1_545     S
V55     V65    10.0   .     S
V55     V75    10.0   1_455     S
V56     V66    10.0   .     S
V56     V77    10.0   .     S
V57     V67    10.0   .     S
V57     V78    10.0   .     S
V58     V48    10.0   1_545     S
V58     V68    10.0   .     S
V58     V76    10.0   1_455     S
Ce59     Ce60    9.999   1_554     S
Ce59     Er64    10.0   .     S
Ce59     Er62    10.0   .     S
Ce59     Ti96    10.0   .     S
Ce60     Ce59    9.999   1_556     S
Ce60     Er63    10.0   .     S
Ce60     Er61    10.0   .     S
Er61     V66    10.0   .     S
Er61     Er62    9.999   1_556     S
Er61     Er63    10.0   .     S
Er62     V67    10.0   .     S
Er62     Er61    9.999   1_554     S
Er62     Er64    10.0   .     S
Er63     V65    10.0   .     S
Er63     Er64    9.999   1_556     S
Er64     V68    10.0   .     S
Er64     Er63    9.999   1_554     S
V65     V85    10.0   1_455     S
V65     V35    10.0   1_545     S
V66     V86    10.0   .     S
V67     V87    10.0   .     S
V68     V88    10.0   1_455     S
V68     V36    10.0   1_545     S
Ce69     Ce70    9.999   .     S
Ce69     Er74    10.0   .     S
Ce69     Er72    10.0   .     S
Ce69     Ti95    10.0   .     S
Ce70     Er73    10.0   .     S
Ce70     Er71    10.0   .     S
Er71     V77    10.0   .     S
Er71     Er72    9.999   .     S
Er71     Er73    10.0   .     S
Er72     V78    10.0   .     S
Er72     Er74    10.0   .     S
Er73     V75    10.0   .     S
Er73     Er74    9.999   .     S
Er74     V76    10.0   .     S
V75     V85    10.0   .     S
V75     V15    10.0   1_545     S
V75     V55    10.0   1_655     S
V76     V88    10.0   .     S
V76     V58    10.0   1_655     S
V76     V16    10.0   1_545     S
V77     V86    10.0   .     S
V78     V87    10.0   .     S
Ce79     Ce80    9.999   1_554     S
Ce79     Er84    10.0   .     S
Ce79     Er82    10.0   .     S
Ce79     Ti92    10.0   .     S
Ce80     Ce79    9.999   1_556     S
Ce80     Er83    10.0   .     S
Ce80     Er81    10.0   .     S
Er81     V86    10.0   .     S
Er81     Er82    9.999   1_556     S
Er81     Er83    10.0   .     S
Er82     V87    10.0   .     S
Er82     Er81    9.999   1_554     S
Er82     Er84    10.0   .     S
Er83     V85    10.0   .     S
Er83     Er84    9.999   1_556     S
Er84     V88    10.0   .     S
Er84     Er83    9.999   1_554     S
V85     V25    10.0   1_545     S
V85     V65    10.0   1_655     S
V88     V26    10.0   1_545     S
V88     V68    10.0   1_655     S
Ti89     Ti90    10.0   1_565     S
Ti89     Ti91    10.0   .     S
Ti89     Ti92    10.0   1_565     S
Ti90     Ti89    10.0   1_545     S
Ti90     Ti91    10.0   1_545     S
Ti90     Ti92    10.0   .     S
Ti91     Ti92    10.0   1_565     S
Ti91     Ti90    10.0   1_565     S
Ti92     Ti91    10.0   1_545     S
Ti92     Ti89    10.0   1_545     S
Ti93     Ti94    10.0   1_655     S
Ti93     Ti95    10.0   .     S
Ti93     Ti96    10.0   1_655     S
Ti94     Ti95    10.0   1_455     S
Ti94     Ti93    10.0   1_455     S
Ti94     Ti96    10.0   .     S
Ti95     Ti94    10.0   1_655     S
Ti95     Ti96    10.0   1_655     S
Ti96     Ti93    10.0   1_455     S
Ti96     Ti95    10.0   1_455     S
