data_cysa
_audit_creation_date              2020-02-04
_audit_creation_method            'Pymatgen'
_symmetry_space_group_name_H-M    'P1'
_symmetry_Int_Tables_number       1
loop_
_symmetry_equiv_pos_as_xyz
  x,y,z
_cell_length_a                    68.8951
_cell_length_b                    68.8951
_cell_length_c                    68.8951
_cell_angle_alpha                 90.0
_cell_angle_beta                 90.0
_cell_angle_gamma                 90.0
loop_
_atom_site_label
_atom_site_type_symbol
_atom_site_fract_x
_atom_site_fract_y
_atom_site_fract_z
V1     V     0.8178   0.4954   0.1822
V2     V     0.0046   0.8178   0.3178
V3     V     0.6822   0.6822   0.5046
Er4     Er     0.7786   0.6718   0.3966
Er5     Er     0.8282   0.6034   0.2786
Er6     Er     0.8966   0.7214   0.3282
V7     V     0.4322   0.0678   0.7546
V8     V     0.5678   0.7454   0.5678
V9     V     0.2454   0.9322   0.4322
Er10     Er     0.3534   0.9218   0.5286
Er11     Er     0.4218   0.9714   0.6466
Er12     Er     0.4714   0.8534   0.5782
V13     V     0.7546   0.4322   0.0678
V14     V     0.5678   0.5678   0.7454
V15     V     0.4322   0.2454   0.9322
Er16     Er     0.5286   0.3534   0.9218
Er17     Er     0.6466   0.4218   0.9714
Er18     Er     0.5782   0.4714   0.8534
V19     V     0.1822   0.9954   0.3178
V20     V     0.9954   0.3178   0.1822
V21     V     0.3178   0.1822   0.9954
Er22     Er     0.2214   0.1718   0.1034
Er23     Er     0.1034   0.2214   0.1718
Er24     Er     0.1718   0.1034   0.2214
V25     V     0.0678   0.7546   0.4322
V26     V     0.7454   0.5678   0.5678
V27     V     0.9322   0.4322   0.2454
Er28     Er     0.9218   0.5286   0.3534
Er29     Er     0.9714   0.6466   0.4218
Er30     Er     0.8534   0.5782   0.4714
V31     V     0.4954   0.1822   0.8178
V32     V     0.8178   0.3178   0.0046
V33     V     0.6822   0.5046   0.6822
Er34     Er     0.6718   0.3966   0.7786
Er35     Er     0.6034   0.2786   0.8282
Er36     Er     0.7214   0.3282   0.8966
V37     V     0.0678   0.9322   0.2546
V38     V     0.9322   0.2546   0.0678
V39     V     0.2546   0.0678   0.9322
Er40     Er     0.1466   0.0782   0.0286
Er41     Er     0.0782   0.0286   0.1466
Er42     Er     0.0286   0.1466   0.0782
V43     V     0.1822   0.8178   0.4954
V44     V     0.3178   0.0046   0.8178
V45     V     0.5046   0.6822   0.6822
Er46     Er     0.3966   0.7786   0.6718
Er47     Er     0.2786   0.8282   0.6034
Er48     Er     0.3282   0.8966   0.7214
loop_
_geom_bond_atom_site_label_1
_geom_bond_atom_site_label_2
_geom_bond_distance
_geom_bond_site_symmetry_2
_ccdc_geom_bond_type
V1     Er5    10.0   .     S
V1     V27    10.001   .     S
V1     V13    10.001   .     S
V2     Er6    10.0   1_455     S
V2     V37    10.001   .     S
V2     V25    10.001   .     S
V3     Er4    10.0   .     S
V3     V26    10.001   .     S
V3     V8    10.001   .     S
Er4     Er5    10.0   .     S
Er4     Er6    10.0   .     S
Er5     Er6    10.0   .     S
Er6     V2    10.0   1_655     S
V7     Er11    10.0   1_545     S
V7     V31    10.001   .     S
V7     V44    10.001   .     S
V8     Er12    10.0   .     S
V8     V45    10.001   .     S
V9     Er10    10.0   .     S
V9     V19    10.001   .     S
V9     V43    10.001   .     S
Er10     Er12    10.0   .     S
Er10     Er11    10.0   .     S
Er11     V7    10.0   1_565     S
Er11     Er12    10.0   .     S
V13     Er17    10.0   1_554     S
V13     V32    10.001   .     S
V14     Er18    10.0   .     S
V14     V33    10.001   .     S
V14     V45    10.001   .     S
V15     Er16    10.0   .     S
V15     V21    10.001   .     S
V15     V31    10.001   .     S
Er16     Er18    10.0   .     S
Er16     Er17    10.0   .     S
Er17     V13    10.0   1_556     S
Er17     Er18    10.0   .     S
V19     Er24    10.0   1_565     S
V19     V37    10.001   .     S
V20     Er23    10.0   1_655     S
V20     V27    10.001   .     S
V20     V38    10.001   .     S
V21     Er22    10.0   1_556     S
V21     V39    10.001   .     S
Er22     V21    10.0   1_554     S
Er22     Er23    10.0   .     S
Er22     Er24    10.0   .     S
Er23     V20    10.0   1_455     S
Er23     Er24    10.0   .     S
Er24     V19    10.0   1_545     S
V25     Er29    10.0   1_455     S
V25     V43    10.001   .     S
V26     Er30    10.0   .     S
V26     V33    10.001   .     S
V27     Er28    10.0   .     S
Er28     Er30    10.0   .     S
Er28     Er29    10.0   .     S
Er29     V25    10.0   1_655     S
Er29     Er30    10.0   .     S
V31     Er35    10.0   .     S
V32     Er36    10.0   1_554     S
V32     V38    10.001   .     S
V33     Er34    10.0   .     S
Er34     Er35    10.0   .     S
Er34     Er36    10.0   .     S
Er35     Er36    10.0   .     S
Er36     V32    10.0   1_556     S
V37     Er41    10.0   1_565     S
V38     Er42    10.0   1_655     S
V39     Er40    10.0   1_556     S
V39     V44    10.001   .     S
Er40     V39    10.0   1_554     S
Er40     Er41    10.0   .     S
Er40     Er42    10.0   .     S
Er41     V37    10.0   1_545     S
Er41     Er42    10.0   .     S
Er42     V38    10.0   1_455     S
V43     Er47    10.0   .     S
V44     Er48    10.0   1_545     S
V45     Er46    10.0   .     S
Er46     Er47    10.0   .     S
Er46     Er48    10.0   .     S
Er47     Er48    10.0   .     S
Er48     V44    10.0   1_565     S
