data_czza
_audit_creation_date              2020-02-04
_audit_creation_method            'Pymatgen'
_symmetry_space_group_name_H-M    'P1'
_symmetry_Int_Tables_number       1
loop_
_symmetry_equiv_pos_as_xyz
  x,y,z
_cell_length_a                    74.5949
_cell_length_b                    74.5949
_cell_length_c                    74.5949
_cell_angle_alpha                 90.0
_cell_angle_beta                 90.0
_cell_angle_gamma                 90.0
loop_
_atom_site_label
_atom_site_type_symbol
_atom_site_fract_x
_atom_site_fract_y
_atom_site_fract_z
Er1     Er     0.625   0.016   0.6566
Ce2     Ce     0.7082   0.03   0.5524
Er3     Er     0.875   0.016   0.3434
Ce4     Ce     0.7918   0.03   0.4476
Er5     Er     0.5934   0.734   0.375
Ce6     Ce     0.6976   0.72   0.4582
Er7     Er     0.9066   0.734   0.625
Ce8     Ce     0.8024   0.72   0.5418
Ti9     Ti     0.75   0.1462   0.5
V10     V     0.75   0.2802   0.5
V11     V     0.75   0.4698   0.5
Ti12     Ti     0.75   0.6038   0.5
Er13     Er     0.375   0.5934   0.734
Ce14     Ce     0.4582   0.6976   0.72
Er15     Er     0.625   0.9066   0.734
Ce16     Ce     0.5418   0.8024   0.72
V17     V     0.5   0.75   0.2802
V18     V     0.5   0.75   0.4698
Ti19     Ti     0.5   0.75   0.6038
Ti20     Ti     0.5   0.75   0.1462
Er21     Er     0.3434   0.875   0.016
Ce22     Ce     0.4476   0.7918   0.03
Er23     Er     0.6566   0.625   0.016
Ce24     Ce     0.5524   0.7082   0.03
Er25     Er     0.375   0.516   0.8434
Ce26     Ce     0.2918   0.53   0.9476
Er27     Er     0.125   0.516   0.1566
Ce28     Ce     0.2082   0.53   0.0524
Er29     Er     0.4066   0.234   0.125
Ce30     Ce     0.3024   0.22   0.0418
Er31     Er     0.0934   0.234   0.875
Ce32     Ce     0.1976   0.22   0.9582
V33     V     0.25   0.9698   0.0
V34     V     0.25   0.7802   0.0
Ti35     Ti     0.25   0.1038   0.0
Ti36     Ti     0.25   0.6462   0.0
Er37     Er     0.766   0.375   0.4066
Ce38     Ce     0.78   0.4582   0.3024
Er39     Er     0.766   0.625   0.0934
Ce40     Ce     0.78   0.5418   0.1976
V41     V     0.0302   0.5   0.25
V42     V     0.2198   0.5   0.25
Ti43     Ti     0.3538   0.5   0.25
Ti44     Ti     0.8962   0.5   0.25
Er45     Er     0.484   0.3434   0.125
Ce46     Ce     0.47   0.4476   0.2082
Er47     Er     0.484   0.6566   0.375
Ce48     Ce     0.47   0.5524   0.2918
Er49     Er     0.8434   0.625   0.984
Ce50     Ce     0.9476   0.7082   0.97
Er51     Er     0.1566   0.875   0.984
Ce52     Ce     0.0524   0.7918   0.97
Ti53     Ti     0.0   0.75   0.3962
V54     V     0.0   0.75   0.5302
V55     V     0.0   0.75   0.7198
Ti56     Ti     0.0   0.75   0.8538
Er57     Er     0.125   0.5934   0.266
Ce58     Ce     0.0418   0.6976   0.28
Er59     Er     0.875   0.9066   0.266
Ce60     Ce     0.9582   0.8024   0.28
Er61     Er     0.8434   0.375   0.516
Ce62     Ce     0.9476   0.2918   0.53
Er63     Er     0.1566   0.125   0.516
Ce64     Ce     0.0524   0.2082   0.53
Er65     Er     0.125   0.4066   0.234
Ce66     Ce     0.0418   0.3024   0.22
Er67     Er     0.875   0.0934   0.234
Ce68     Ce     0.9582   0.1976   0.22
V69     V     0.0   0.25   0.9698
V70     V     0.0   0.25   0.7802
Ti71     Ti     0.0   0.25   0.1038
Ti72     Ti     0.0   0.25   0.6462
Er73     Er     0.125   0.484   0.3434
Ce74     Ce     0.2082   0.47   0.4476
Er75     Er     0.375   0.484   0.6566
Ce76     Ce     0.2918   0.47   0.5524
Er77     Er     0.4066   0.766   0.375
Ce78     Ce     0.3024   0.78   0.4582
Er79     Er     0.0934   0.766   0.625
Ce80     Ce     0.1976   0.78   0.5418
V81     V     0.25   0.0302   0.5
V82     V     0.25   0.2198   0.5
Ti83     Ti     0.25   0.3538   0.5
Ti84     Ti     0.25   0.8962   0.5
Er85     Er     0.984   0.8434   0.625
Ce86     Ce     0.97   0.9476   0.7082
Er87     Er     0.984   0.1566   0.875
Ce88     Ce     0.97   0.0524   0.7918
Ti89     Ti     0.3962   0.0   0.75
V90     V     0.5302   0.0   0.75
V91     V     0.7198   0.0   0.75
Ti92     Ti     0.8538   0.0   0.75
Er93     Er     0.266   0.125   0.5934
Ce94     Ce     0.28   0.0418   0.6976
Er95     Er     0.266   0.875   0.9066
Ce96     Ce     0.28   0.9582   0.8024
Er97     Er     0.516   0.8434   0.375
Ce98     Ce     0.53   0.9476   0.2918
Er99     Er     0.516   0.1566   0.125
Ce100     Ce     0.53   0.0524   0.2082
Er101     Er     0.234   0.125   0.4066
Ce102     Ce     0.22   0.0418   0.3024
Er103     Er     0.234   0.875   0.0934
Ce104     Ce     0.22   0.9582   0.1976
V105     V     0.9698   0.0   0.25
V106     V     0.7802   0.0   0.25
Ti107     Ti     0.1038   0.0   0.25
Ti108     Ti     0.6462   0.0   0.25
Er109     Er     0.625   0.984   0.8434
Ce110     Ce     0.7082   0.97   0.9476
Er111     Er     0.875   0.984   0.1566
Ce112     Ce     0.7918   0.97   0.0524
Ti113     Ti     0.75   0.3962   0.0
V114     V     0.75   0.5302   0.0
V115     V     0.75   0.7198   0.0
Ti116     Ti     0.75   0.8538   0.0
Er117     Er     0.5934   0.266   0.125
Ce118     Ce     0.6976   0.28   0.0418
Er119     Er     0.9066   0.266   0.875
Ce120     Ce     0.8024   0.28   0.9582
Er121     Er     0.734   0.375   0.5934
Ce122     Ce     0.72   0.4582   0.6976
Er123     Er     0.734   0.625   0.9066
Ce124     Ce     0.72   0.5418   0.8024
V125     V     0.2802   0.5   0.75
V126     V     0.4698   0.5   0.75
Ti127     Ti     0.6038   0.5   0.75
Ti128     Ti     0.1462   0.5   0.75
Er129     Er     0.016   0.6566   0.625
Ce130     Ce     0.03   0.5524   0.7082
Er131     Er     0.016   0.3434   0.875
Ce132     Ce     0.03   0.4476   0.7918
Er133     Er     0.3434   0.125   0.484
Ce134     Ce     0.4476   0.2082   0.47
Er135     Er     0.6566   0.375   0.484
Ce136     Ce     0.5524   0.2918   0.47
V137     V     0.5   0.25   0.0302
V138     V     0.5   0.25   0.2198
Ti139     Ti     0.5   0.25   0.3538
Ti140     Ti     0.5   0.25   0.8962
Er141     Er     0.375   0.4066   0.766
Ce142     Ce     0.4582   0.3024   0.78
Er143     Er     0.625   0.0934   0.766
Ce144     Ce     0.5418   0.1976   0.78
loop_
_geom_bond_atom_site_label_1
_geom_bond_atom_site_label_2
_geom_bond_distance
_geom_bond_site_symmetry_2
_ccdc_geom_bond_type
Er1     Ce2    10.0   .     S
Er1     V90    10.0   .     S
Er1     V91    10.0   .     S
Er1     Er143    10.0   .     S
Er1     Er15    10.0   1_545     S
Ce2     Ce4    10.0   .     S
Ce2     Ti9    10.0   .     S
Er3     Ce4    10.0   .     S
Er3     V105    10.0   .     S
Er3     V106    10.0   .     S
Er3     Er59    10.0   1_545     S
Er3     Er67    10.0   .     S
Ce4     Ti9    10.0   .     S
Er5     Ce6    10.0   .     S
Er5     V17    10.0   .     S
Er5     V18    10.0   .     S
Er5     Er47    10.0   .     S
Er5     Er97    10.0   .     S
Ce6     Ce8    10.0   .     S
Ce6     Ti12    10.0   .     S
Er7     Ce8    10.0   .     S
Er7     V54    10.0   1_655     S
Er7     V55    10.0   1_655     S
Er7     Er85    10.0   .     S
Er7     Er129    10.0   1_655     S
Ce8     Ti12    10.0   .     S
Ti9     V10    10.0   .     S
V10     Er37    10.0   .     S
V10     Er121    10.0   .     S
V10     Er135    10.0   .     S
V10     Er61    10.0   .     S
V11     Er37    10.0   .     S
V11     Er135    10.0   .     S
V11     Er61    10.0   .     S
V11     Er121    10.0   .     S
V11     Ti12    10.0   .     S
Er13     Ce14    10.0   .     S
Er13     V125    10.0   .     S
Er13     V126    10.0   .     S
Er13     Er25    10.0   .     S
Er13     Er75    10.0   .     S
Ce14     Ce16    10.0   .     S
Ce14     Ti19    10.0   .     S
Er15     Ce16    10.0   .     S
Er15     V90    10.0   1_565     S
Er15     V91    10.0   1_565     S
Er15     Er109    10.0   .     S
Er15     Er1    10.0   1_565     S
Ce16     Ti19    10.0   .     S
V17     Er77    10.0   .     S
V17     Er97    10.0   .     S
V17     Er47    10.0   .     S
V17     Ti20    10.0   .     S
V18     Er77    10.0   .     S
V18     Er47    10.0   .     S
V18     Er97    10.0   .     S
V18     Ti19    10.0   .     S
Ti20     Ce24    10.0   .     S
Ti20     Ce22    10.0   .     S
Er21     Ce22    10.0   .     S
Er21     V33    10.0   .     S
Er21     V34    10.0   .     S
Er21     Er103    10.0   .     S
Er21     Er95    10.0   1_554     S
Ce22     Ce24    10.0   .     S
Er23     Ce24    10.0   .     S
Er23     V114    10.0   .     S
Er23     V115    10.0   .     S
Er23     Er123    10.0   1_554     S
Er23     Er39    10.0   .     S
Er25     Ce26    10.0   .     S
Er25     V125    10.0   .     S
Er25     V126    10.0   .     S
Er25     Er141    10.0   .     S
Ce26     Ce28    10.0   1_556     S
Ce26     Ti36    10.0   1_556     S
Er27     Ce28    10.0   .     S
Er27     V41    10.0   .     S
Er27     V42    10.0   .     S
Er27     Er57    10.0   .     S
Er27     Er65    10.0   .     S
Ce28     Ce26    10.0   1_554     S
Ce28     Ti36    10.0   .     S
Er29     Ce30    10.0   .     S
Er29     V137    10.0   .     S
Er29     V138    10.0   .     S
Er29     Er45    10.0   .     S
Er29     Er99    10.0   .     S
Ce30     Ce32    10.0   1_554     S
Ce30     Ti35    10.0   .     S
Er31     Ce32    10.0   .     S
Er31     V69    10.0   .     S
Er31     V70    10.0   .     S
Er31     Er131    10.0   .     S
Er31     Er87    10.0   1_455     S
Ce32     Ce30    10.0   1_556     S
Ce32     Ti35    10.0   1_556     S
V33     Er95    10.0   1_554     S
V33     Er51    10.0   1_554     S
V33     Er103    10.0   .     S
V33     Ti35    10.0   1_565     S
V34     Er95    10.0   1_554     S
V34     Er51    10.0   1_554     S
V34     Er103    10.0   .     S
V34     Ti36    10.0   .     S
Ti35     Ce32    10.0   1_554     S
Ti35     V33    10.0   1_545     S
Ti36     Ce26    10.0   1_554     S
Er37     Er135    10.0   .     S
Er37     Er61    10.0   .     S
Er37     Ce38    10.0   .     S
Ce38     Ce40    10.0   .     S
Ce38     Ti44    10.0   .     S
Er39     Ce40    10.0   .     S
Er39     V114    10.0   .     S
Er39     V115    10.0   .     S
Er39     Er49    10.0   1_554     S
Ce40     Ti44    10.0   .     S
V41     Er65    10.0   .     S
V41     Er73    10.0   .     S
V41     Er57    10.0   .     S
V41     Ti44    10.0   1_455     S
V42     Er65    10.0   .     S
V42     Er73    10.0   .     S
V42     Er57    10.0   .     S
V42     Ti43    10.0   .     S
Ti43     Ce48    10.0   .     S
Ti43     Ce46    10.0   .     S
Ti44     V41    10.0   1_655     S
Er45     Ce46    10.0   .     S
Er45     V137    10.0   .     S
Er45     V138    10.0   .     S
Er45     Er117    10.0   .     S
Ce46     Ce48    10.0   .     S
Er47     Er77    10.0   .     S
Er47     Ce48    10.0   .     S
Er49     Ce50    10.0   .     S
Er49     V114    10.0   1_556     S
Er49     V115    10.0   1_556     S
Er49     Er123    10.0   .     S
Er49     Er39    10.0   1_556     S
Ce50     Ce52    10.0   1_655     S
Ce50     Ti56    10.0   1_655     S
Er51     V33    10.0   1_556     S
Er51     V34    10.0   1_556     S
Er51     Er95    10.0   .     S
Er51     Er103    10.0   1_556     S
Er51     Ce52    10.0   .     S
Ce52     Ce50    10.0   1_455     S
Ce52     Ti56    10.0   .     S
Ti53     V54    10.0   .     S
Ti53     Ce58    10.0   .     S
Ti53     Ce60    10.0   1_455     S
V54     Er7    10.0   1_455     S
V54     Er79    10.0   .     S
V54     Er129    10.0   .     S
V54     Er85    10.0   1_455     S
V55     Er7    10.0   1_455     S
V55     Er79    10.0   .     S
V55     Er129    10.0   .     S
V55     Er85    10.0   1_455     S
V55     Ti56    10.0   .     S
Ti56     Ce50    10.0   1_455     S
Er57     Er73    10.0   .     S
Er57     Ce58    10.0   .     S
Ce58     Ce60    10.0   1_455     S
Er59     Ce60    10.0   .     S
Er59     V105    10.0   1_565     S
Er59     V106    10.0   1_565     S
Er59     Er111    10.0   .     S
Er59     Er3    10.0   1_565     S
Ce60     Ce58    10.0   1_655     S
Ce60     Ti53    10.0   1_655     S
Er61     Er121    10.0   .     S
Er61     Ce62    10.0   .     S
Ce62     Ti72    10.0   1_655     S
Ce62     Ce64    10.0   1_655     S
Er63     Ce64    10.0   .     S
Er63     V81    10.0   .     S
Er63     V82    10.0   .     S
Er63     Er93    10.0   .     S
Er63     Er101    10.0   .     S
Ce64     Ti72    10.0   .     S
Ce64     Ce62    10.0   1_455     S
Er65     Er73    10.0   .     S
Er65     Ce66    10.0   .     S
Ce66     Ce68    10.0   1_455     S
Ce66     Ti71    10.0   .     S
Er67     Ce68    10.0   .     S
Er67     V105    10.0   .     S
Er67     V106    10.0   .     S
Er67     Er111    10.0   1_545     S
Ce68     Ce66    10.0   1_655     S
Ce68     Ti71    10.0   1_655     S
V69     Er119    10.0   1_455     S
V69     Er131    10.0   .     S
V69     Er87    10.0   1_455     S
V69     Ti71    10.0   1_556     S
V70     Er119    10.0   1_455     S
V70     Er131    10.0   .     S
V70     Er87    10.0   1_455     S
V70     Ti72    10.0   .     S
Ti71     Ce68    10.0   1_455     S
Ti71     V69    10.0   1_554     S
Ti72     Ce62    10.0   1_455     S
Er73     Ce74    10.0   .     S
Ce74     Ce76    10.0   .     S
Ce74     Ti83    10.0   .     S
Er75     Ce76    10.0   .     S
Er75     V125    10.0   .     S
Er75     V126    10.0   .     S
Er75     Er141    10.0   .     S
Ce76     Ti83    10.0   .     S
Er77     Er97    10.0   .     S
Er77     Ce78    10.0   .     S
Ce78     Ce80    10.0   .     S
Ce78     Ti84    10.0   .     S
Er79     Er85    10.0   1_455     S
Er79     Er129    10.0   .     S
Er79     Ce80    10.0   .     S
Ce80     Ti84    10.0   .     S
V81     Er101    10.0   .     S
V81     Er133    10.0   .     S
V81     Er93    10.0   .     S
V81     Ti84    10.0   1_545     S
V82     Er101    10.0   .     S
V82     Er133    10.0   .     S
V82     Er93    10.0   .     S
V82     Ti83    10.0   .     S
Ti84     V81    10.0   1_565     S
Er85     V54    10.0   1_655     S
Er85     V55    10.0   1_655     S
Er85     Er79    10.0   1_655     S
Er85     Ce86    10.0   .     S
Ce86     Ce88    10.0   1_565     S
Ce86     Ti92    10.0   1_565     S
Er87     V69    10.0   1_655     S
Er87     V70    10.0   1_655     S
Er87     Er119    10.0   .     S
Er87     Er31    10.0   1_655     S
Er87     Ce88    10.0   .     S
Ce88     Ce86    10.0   1_545     S
Ce88     Ti92    10.0   .     S
Ti89     V90    10.0   .     S
Ti89     Ce96    10.0   1_545     S
Ti89     Ce94    10.0   .     S
V90     Er15    10.0   1_545     S
V90     Er143    10.0   .     S
V90     Er109    10.0   1_545     S
V91     Er15    10.0   1_545     S
V91     Er143    10.0   .     S
V91     Er109    10.0   1_545     S
V91     Ti92    10.0   .     S
Ti92     Ce86    10.0   1_545     S
Er93     Er133    10.0   .     S
Er93     Ce94    10.0   .     S
Ce94     Ce96    10.0   1_545     S
Er95     V33    10.0   1_556     S
Er95     V34    10.0   1_556     S
Er95     Er21    10.0   1_556     S
Er95     Ce96    10.0   .     S
Ce96     Ce94    10.0   1_565     S
Ce96     Ti89    10.0   1_565     S
Er97     Ce98    10.0   .     S
Ce98     Ti108    10.0   1_565     S
Ce98     Ce100    10.0   1_565     S
Er99     Ce100    10.0   .     S
Er99     V137    10.0   .     S
Er99     V138    10.0   .     S
Er99     Er117    10.0   .     S
Ce100     Ti108    10.0   .     S
Ce100     Ce98    10.0   1_545     S
Er101     Er133    10.0   .     S
Er101     Ce102    10.0   .     S
Ce102     Ce104    10.0   1_545     S
Ce102     Ti107    10.0   .     S
Er103     Er51    10.0   1_554     S
Er103     Ce104    10.0   .     S
Ce104     Ce102    10.0   1_565     S
Ce104     Ti107    10.0   1_565     S
V105     Er59    10.0   1_545     S
V105     Er111    10.0   1_545     S
V105     Ti107    10.0   1_655     S
V106     Er59    10.0   1_545     S
V106     Er111    10.0   1_545     S
V106     Ti108    10.0   .     S
Ti107     Ce104    10.0   1_545     S
Ti107     V105    10.0   1_455     S
Ti108     Ce98    10.0   1_545     S
Er109     V90    10.0   1_565     S
Er109     V91    10.0   1_565     S
Er109     Er143    10.0   1_565     S
Er109     Ce110    10.0   .     S
Ce110     Ce112    10.0   1_556     S
Ce110     Ti116    10.0   1_556     S
Er111     V105    10.0   1_565     S
Er111     V106    10.0   1_565     S
Er111     Er67    10.0   1_565     S
Er111     Ce112    10.0   .     S
Ce112     Ce110    10.0   1_554     S
Ce112     Ti116    10.0   .     S
Ti113     V114    10.0   .     S
Ti113     Ce120    10.0   1_554     S
Ti113     Ce118    10.0   .     S
V114     Er123    10.0   1_554     S
V114     Er49    10.0   1_554     S
V115     Er123    10.0   1_554     S
V115     Er49    10.0   1_554     S
V115     Ti116    10.0   .     S
Ti116     Ce110    10.0   1_554     S
Er117     Ce118    10.0   .     S
Er117     V137    10.0   .     S
Er117     V138    10.0   .     S
Ce118     Ce120    10.0   1_554     S
Er119     V69    10.0   1_655     S
Er119     V70    10.0   1_655     S
Er119     Er131    10.0   1_655     S
Er119     Ce120    10.0   .     S
Ce120     Ce118    10.0   1_556     S
Ce120     Ti113    10.0   1_556     S
Er121     Er135    10.0   .     S
Er121     Ce122    10.0   .     S
Ce122     Ce124    10.0   .     S
Ce122     Ti127    10.0   .     S
Er123     V114    10.0   1_556     S
Er123     V115    10.0   1_556     S
Er123     Er23    10.0   1_556     S
Er123     Ce124    10.0   .     S
Ce124     Ti127    10.0   .     S
V125     Er141    10.0   .     S
V125     Ti128    10.0   .     S
V126     Er141    10.0   .     S
V126     Ti127    10.0   .     S
Ti128     Ce132    10.0   .     S
Ti128     Ce130    10.0   .     S
Er129     Er7    10.0   1_455     S
Er129     Ce130    10.0   .     S
Ce130     Ce132    10.0   .     S
Er131     Er119    10.0   1_455     S
Er131     Ce132    10.0   .     S
Er133     Ce134    10.0   .     S
Ce134     Ce136    10.0   .     S
Ce134     Ti139    10.0   .     S
Er135     Ce136    10.0   .     S
Ce136     Ti139    10.0   .     S
V137     Ti140    10.0   1_554     S
V138     Ti139    10.0   .     S
Ti140     V137    10.0   1_556     S
Ti140     Ce144    10.0   .     S
Ti140     Ce142    10.0   .     S
Er141     Ce142    10.0   .     S
Ce142     Ce144    10.0   .     S
Er143     Er109    10.0   1_545     S
Er143     Ce144    10.0   .     S
