data_deh
_audit_creation_date              2020-02-04
_audit_creation_method            'Pymatgen'
_symmetry_space_group_name_H-M    'P1'
_symmetry_Int_Tables_number       1
loop_
_symmetry_equiv_pos_as_xyz
  x,y,z
_cell_length_a                    37.0684
_cell_length_b                    37.0684
_cell_length_c                    60.8489
_cell_angle_alpha                 90.0
_cell_angle_beta                 90.0
_cell_angle_gamma                 90.0
loop_
_atom_site_label
_atom_site_type_symbol
_atom_site_fract_x
_atom_site_fract_y
_atom_site_fract_z
V1     V     0.6347   0.3849   0.0428
V2     V     0.6347   0.6151   0.9572
V3     V     0.8651   0.6153   0.7072
V4     V     0.6349   0.6153   0.7928
V5     V     0.8653   0.6151   0.5428
V6     V     0.8653   0.3849   0.4572
V7     V     0.8651   0.3847   0.2928
V8     V     0.6349   0.3847   0.2072
V9     V     0.8653   0.8849   0.5428
V10     V     0.8653   0.1151   0.4572
V11     V     0.6347   0.8849   0.9572
V12     V     0.6347   0.1151   0.0428
V13     V     0.8651   0.1153   0.2928
V14     V     0.6349   0.1153   0.2072
V15     V     0.8651   0.8847   0.7072
V16     V     0.6349   0.8847   0.7928
V17     V     0.1347   0.3849   0.4572
V18     V     0.1347   0.6151   0.5428
V19     V     0.1349   0.6153   0.7072
V20     V     0.3651   0.6153   0.7928
V21     V     0.3653   0.3849   0.0428
V22     V     0.3653   0.6151   0.9572
V23     V     0.1349   0.3847   0.2928
V24     V     0.3651   0.3847   0.2072
V25     V     0.1349   0.1153   0.2928
V26     V     0.3651   0.1153   0.2072
V27     V     0.1347   0.1151   0.4572
V28     V     0.1347   0.8849   0.5428
V29     V     0.3653   0.1151   0.0428
V30     V     0.3653   0.8849   0.9572
V31     V     0.1349   0.8847   0.7072
V32     V     0.3651   0.8847   0.7928
loop_
_geom_bond_atom_site_label_1
_geom_bond_atom_site_label_2
_geom_bond_distance
_geom_bond_site_symmetry_2
_ccdc_geom_bond_type
V1     V2    10.0   1_554     S
V1     V8    10.0   .     S
V1     V12    10.0   .     S
V2     V1    10.0   1_556     S
V2     V4    10.0   .     S
V2     V11    10.0   .     S
V3     V4    10.0   .     S
V3     V5    10.0   .     S
V3     V19    10.0   1_655     S
V4     V20    10.0   .     S
V5     V6    10.0   .     S
V5     V9    10.0   .     S
V6     V7    10.0   .     S
V6     V10    10.0   .     S
V7     V8    10.0   .     S
V7     V23    10.0   1_655     S
V8     V24    10.0   .     S
V9     V10    10.0   1_565     S
V9     V15    10.0   .     S
V10     V9    10.0   1_545     S
V10     V13    10.0   .     S
V11     V12    10.0   1_566     S
V11     V16    10.0   .     S
V12     V11    10.0   1_544     S
V12     V14    10.0   .     S
V13     V14    10.0   .     S
V13     V25    10.0   1_655     S
V14     V26    10.0   .     S
V15     V16    10.0   .     S
V15     V31    10.0   1_655     S
V16     V32    10.0   .     S
V17     V18    10.0   .     S
V17     V23    10.0   .     S
V17     V27    10.0   .     S
V18     V19    10.0   .     S
V18     V28    10.0   .     S
V19     V20    10.0   .     S
V19     V3    10.0   1_455     S
V20     V22    10.0   .     S
V21     V22    10.0   1_554     S
V21     V24    10.0   .     S
V21     V29    10.0   .     S
V22     V21    10.0   1_556     S
V22     V30    10.0   .     S
V23     V24    10.0   .     S
V23     V7    10.0   1_455     S
V25     V26    10.0   .     S
V25     V27    10.0   .     S
V25     V13    10.0   1_455     S
V26     V29    10.0   .     S
V27     V28    10.0   1_545     S
V28     V27    10.0   1_565     S
V28     V31    10.0   .     S
V29     V30    10.0   1_544     S
V30     V29    10.0   1_566     S
V30     V32    10.0   .     S
V31     V32    10.0   .     S
V31     V15    10.0   1_455     S
