data_dgq
_audit_creation_date              2020-02-04
_audit_creation_method            'Pymatgen'
_symmetry_space_group_name_H-M    'P1'
_symmetry_Int_Tables_number       1
loop_
_symmetry_equiv_pos_as_xyz
  x,y,z
_cell_length_a                    34.7509
_cell_length_b                    34.7509
_cell_length_c                    34.7509
_cell_angle_alpha                 90.0
_cell_angle_beta                 90.0
_cell_angle_gamma                 90.0
loop_
_atom_site_label
_atom_site_type_symbol
_atom_site_fract_x
_atom_site_fract_y
_atom_site_fract_z
V1     V     0.4925   0.7425   0.875
V2     V     0.5075   0.7425   0.125
V3     V     0.5075   0.7575   0.375
V4     V     0.4925   0.7575   0.625
V5     V     0.7575   0.625   0.4925
V6     V     0.7575   0.375   0.5075
V7     V     0.7425   0.875   0.4925
V8     V     0.7425   0.125   0.5075
V9     V     0.875   0.4925   0.7425
V10     V     0.125   0.5075   0.7425
V11     V     0.625   0.4925   0.7575
V12     V     0.375   0.5075   0.7575
V13     V     0.4925   0.2425   0.375
V14     V     0.5075   0.2425   0.625
V15     V     0.5075   0.2575   0.875
V16     V     0.4925   0.2575   0.125
V17     V     0.375   0.9925   0.7425
V18     V     0.125   0.9925   0.7575
V19     V     0.625   0.0075   0.7425
V20     V     0.875   0.0075   0.7575
V21     V     0.2425   0.375   0.4925
V22     V     0.2425   0.625   0.5075
V23     V     0.2575   0.875   0.5075
V24     V     0.2575   0.125   0.4925
V25     V     0.875   0.5075   0.2575
V26     V     0.625   0.5075   0.2425
V27     V     0.375   0.4925   0.2425
V28     V     0.125   0.4925   0.2575
V29     V     0.2575   0.625   0.9925
V30     V     0.2425   0.875   0.9925
V31     V     0.2575   0.375   0.0075
V32     V     0.2425   0.125   0.0075
V33     V     0.9925   0.7575   0.125
V34     V     0.9925   0.7425   0.375
V35     V     0.0075   0.7575   0.875
V36     V     0.0075   0.7425   0.625
V37     V     0.125   0.0075   0.2425
V38     V     0.375   0.0075   0.2575
V39     V     0.875   0.9925   0.2425
V40     V     0.625   0.9925   0.2575
V41     V     0.0075   0.2425   0.125
V42     V     0.0075   0.2575   0.375
V43     V     0.9925   0.2575   0.625
V44     V     0.9925   0.2425   0.875
V45     V     0.7575   0.125   0.9925
V46     V     0.7575   0.875   0.0075
V47     V     0.7425   0.625   0.0075
V48     V     0.7425   0.375   0.9925
loop_
_geom_bond_atom_site_label_1
_geom_bond_atom_site_label_2
_geom_bond_distance
_geom_bond_site_symmetry_2
_ccdc_geom_bond_type
V1     V30    10.647   .     S
V1     V17    10.647   .     S
V1     V47    10.647   1_556     S
V1     V11    10.647   .     S
V1     V2    8.703   1_556     S
V1     V4    8.703   .     S
V1     V29    10.004   .     S
V1     V12    10.004   .     S
V2     V40    10.647   .     S
V2     V29    10.647   1_554     S
V2     V27    10.647   .     S
V2     V46    10.647   .     S
V2     V1    8.703   1_554     S
V2     V3    8.703   .     S
V2     V26    10.004   .     S
V2     V47    10.004   .     S
V3     V38    10.647   1_565     S
V3     V23    10.647   .     S
V3     V26    10.647   .     S
V3     V5    10.647   .     S
V3     V4    8.703   .     S
V3     V40    10.004   .     S
V3     V7    10.004   .     S
V4     V22    10.647   .     S
V4     V19    10.647   1_565     S
V4     V7    10.647   .     S
V4     V12    10.647   .     S
V4     V23    10.004   .     S
V4     V17    10.004   .     S
V5     V9    10.647   .     S
V5     V26    10.647   .     S
V5     V36    10.647   1_655     S
V5     V6    8.703   .     S
V5     V7    8.703   .     S
V5     V25    10.004   .     S
V5     V34    10.004   .     S
V6     V42    10.647   1_655     S
V6     V14    10.647   .     S
V6     V11    10.647   .     S
V6     V25    10.647   .     S
V6     V8    8.703   .     S
V6     V43    10.004   .     S
V6     V9    10.004   .     S
V7     V19    10.647   1_565     S
V7     V39    10.647   .     S
V7     V34    10.647   .     S
V7     V8    8.703   1_565     S
V7     V40    10.004   .     S
V8     V20    10.647   .     S
V8     V43    10.647   .     S
V8     V13    10.647   .     S
V8     V40    10.647   1_545     S
V8     V7    8.703   1_545     S
V8     V19    10.004   .     S
V8     V14    10.004   .     S
V9     V36    10.647   1_655     S
V9     V44    10.647   .     S
V9     V48    10.647   .     S
V9     V10    8.703   1_655     S
V9     V11    8.703   .     S
V9     V43    10.004   .     S
V10     V21    10.647   .     S
V10     V35    10.647   .     S
V10     V29    10.647   .     S
V10     V43    10.647   1_455     S
V10     V9    8.703   1_455     S
V10     V12    8.703   .     S
V10     V22    10.004   .     S
V10     V36    10.004   .     S
V11     V14    10.647   .     S
V11     V47    10.647   1_556     S
V11     V12    8.703   .     S
V11     V15    10.004   .     S
V11     V48    10.004   .     S
V12     V22    10.647   .     S
V12     V31    10.647   1_556     S
V12     V15    10.647   .     S
V12     V29    10.004   .     S
V13     V27    10.647   .     S
V13     V21    10.647   .     S
V13     V40    10.647   1_545     S
V13     V14    8.703   .     S
V13     V16    8.703   .     S
V13     V24    10.004   .     S
V13     V38    10.004   .     S
V14     V17    10.647   1_545     S
V14     V24    10.647   .     S
V14     V15    8.703   .     S
V14     V19    10.004   .     S
V15     V19    10.647   .     S
V15     V31    10.647   1_556     S
V15     V45    10.647   .     S
V15     V16    8.703   1_556     S
V15     V48    10.004   .     S
V16     V26    10.647   .     S
V16     V32    10.647   .     S
V16     V48    10.647   1_554     S
V16     V38    10.647   .     S
V16     V15    8.703   1_554     S
V16     V27    10.004   .     S
V16     V31    10.004   .     S
V17     V14    10.647   1_565     S
V17     V30    10.647   .     S
V17     V24    10.647   1_565     S
V17     V18    8.703   .     S
V17     V19    8.703   1_565     S
V17     V23    10.004   .     S
V18     V36    10.647   .     S
V18     V32    10.647   1_566     S
V18     V44    10.647   1_465     S
V18     V23    10.647   .     S
V18     V20    8.703   1_465     S
V18     V35    10.004   .     S
V18     V30    10.004   .     S
V19     V45    10.647   .     S
V19     V7    10.647   1_545     S
V19     V4    10.647   1_545     S
V19     V17    8.703   1_545     S
V19     V20    8.703   .     S
V20     V46    10.647   1_546     S
V20     V35    10.647   1_645     S
V20     V43    10.647   .     S
V20     V18    8.703   1_645     S
V20     V45    10.004   .     S
V20     V44    10.004   .     S
V21     V43    10.647   1_455     S
V21     V27    10.647   .     S
V21     V22    8.703   .     S
V21     V24    8.703   .     S
V21     V42    10.004   .     S
V21     V28    10.004   .     S
V22     V34    10.647   1_455     S
V22     V28    10.647   .     S
V22     V23    8.703   .     S
V22     V36    10.004   .     S
V23     V36    10.647   .     S
V23     V38    10.647   1_565     S
V23     V24    8.703   1_565     S
V24     V42    10.647   .     S
V24     V37    10.647   .     S
V24     V17    10.647   1_545     S
V24     V23    8.703   1_545     S
V24     V38    10.004   .     S
V25     V42    10.647   1_655     S
V25     V47    10.647   .     S
V25     V33    10.647   .     S
V25     V26    8.703   .     S
V25     V28    8.703   1_655     S
V25     V34    10.004   .     S
V26     V48    10.647   1_554     S
V26     V27    8.703   .     S
V26     V47    10.004   .     S
V27     V29    10.647   1_554     S
V27     V28    8.703   .     S
V27     V31    10.004   .     S
V28     V41    10.647   .     S
V28     V31    10.647   .     S
V28     V34    10.647   1_455     S
V28     V25    8.703   1_455     S
V28     V42    10.004   .     S
V29     V2    10.647   1_556     S
V29     V27    10.647   1_556     S
V29     V35    10.647   .     S
V29     V30    8.703   .     S
V29     V31    8.703   1_556     S
V30     V37    10.647   1_566     S
V30     V33    10.647   1_456     S
V30     V32    8.703   1_566     S
V30     V35    10.004   .     S
V31     V12    10.647   1_554     S
V31     V41    10.647   .     S
V31     V15    10.647   1_554     S
V31     V29    8.703   1_554     S
V31     V32    8.703   .     S
V32     V38    10.647   .     S
V32     V44    10.647   1_454     S
V32     V18    10.647   1_544     S
V32     V30    8.703   1_544     S
V32     V37    10.004   .     S
V32     V41    10.004   .     S
V33     V30    10.647   1_654     S
V33     V37    10.647   1_665     S
V33     V47    10.647   .     S
V33     V34    8.703   .     S
V33     V35    8.703   1_654     S
V33     V39    10.004   .     S
V33     V46    10.004   .     S
V34     V22    10.647   1_655     S
V34     V28    10.647   1_655     S
V34     V39    10.647   .     S
V34     V36    8.703   1_655     S
V35     V20    10.647   1_465     S
V35     V46    10.647   1_456     S
V35     V33    8.703   1_456     S
V35     V36    8.703   .     S
V36     V9    10.647   1_455     S
V36     V5    10.647   1_455     S
V36     V34    8.703   1_455     S
V37     V30    10.647   1_544     S
V37     V33    10.647   1_445     S
V37     V42    10.647   .     S
V37     V38    8.703   .     S
V37     V39    8.703   1_445     S
V37     V41    10.004   .     S
V38     V3    10.647   1_545     S
V38     V23    10.647   1_545     S
V38     V40    8.703   1_545     S
V39     V45    10.647   1_564     S
V39     V41    10.647   1_665     S
V39     V37    8.703   1_665     S
V39     V40    8.703   .     S
V39     V46    10.004   .     S
V40     V8    10.647   1_565     S
V40     V13    10.647   1_565     S
V40     V46    10.647   .     S
V40     V38    8.703   1_565     S
V41     V39    10.647   1_445     S
V41     V45    10.647   1_454     S
V41     V42    8.703   .     S
V41     V44    8.703   1_454     S
V42     V6    10.647   1_455     S
V42     V25    10.647   1_455     S
V42     V43    8.703   1_455     S
V43     V10    10.647   1_655     S
V43     V21    10.647   1_655     S
V43     V42    8.703   1_655     S
V43     V44    8.703   .     S
V44     V32    10.647   1_656     S
V44     V18    10.647   1_645     S
V44     V48    10.647   .     S
V44     V41    8.703   1_656     S
V44     V45    10.004   .     S
V45     V39    10.647   1_546     S
V45     V41    10.647   1_656     S
V45     V46    8.703   1_546     S
V45     V48    8.703   .     S
V46     V20    10.647   1_564     S
V46     V35    10.647   1_654     S
V46     V45    8.703   1_564     S
V46     V47    8.703   .     S
V47     V1    10.647   1_554     S
V47     V11    10.647   1_554     S
V47     V48    8.703   1_554     S
V48     V26    10.647   1_556     S
V48     V16    10.647   1_556     S
V48     V47    8.703   1_556     S
