data_diax
_audit_creation_date              2020-02-04
_audit_creation_method            'Pymatgen'
_symmetry_space_group_name_H-M    'P1'
_symmetry_Int_Tables_number       1
loop_
_symmetry_equiv_pos_as_xyz
  x,y,z
_cell_length_a                    15.6597
_cell_length_b                    15.6597
_cell_length_c                    15.6597
_cell_angle_alpha                 90.0
_cell_angle_beta                 90.0
_cell_angle_gamma                 90.0
loop_
_atom_site_label
_atom_site_type_symbol
_atom_site_fract_x
_atom_site_fract_y
_atom_site_fract_z
V1     V     0.125   0.125   0.625
V2     V     0.375   0.375   0.375
V3     V     0.375   0.875   0.875
V4     V     0.625   0.125   0.125
V5     V     0.125   0.625   0.125
V6     V     0.875   0.875   0.375
V7     V     0.875   0.375   0.875
V8     V     0.625   0.625   0.625
loop_
_geom_bond_atom_site_label_1
_geom_bond_atom_site_label_2
_geom_bond_distance
_geom_bond_site_symmetry_2
_ccdc_geom_bond_type
V1     V2    6.781   .     S
V1     V3    6.781   1_545     S
V1     V6    6.781   1_445     S
V1     V7    6.781   1_455     S
V1     V5    11.073   1_545     S
V1     V5    11.073   1_556     S
V1     V4    11.073   1_556     S
V1     V4    11.073   .     S
V1     V8    11.073   1_545     S
V1     V4    11.073   1_455     S
V1     V5    11.073   .     S
V1     V8    11.073   .     S
V1     V8    11.073   1_445     S
V1     V4    11.073   1_456     S
V1     V5    11.073   1_546     S
V1     V8    11.073   1_455     S
V2     V4    6.781   .     S
V2     V5    6.781   .     S
V2     V8    6.781   .     S
V2     V7    11.073   1_455     S
V2     V7    11.073   1_554     S
V2     V6    11.073   .     S
V2     V6    11.073   1_545     S
V2     V3    11.073   1_554     S
V2     V3    11.073   1_545     S
V2     V7    11.073   .     S
V2     V7    11.073   1_454     S
V2     V6    11.073   1_455     S
V2     V6    11.073   1_445     S
V2     V3    11.073   .     S
V2     V3    11.073   1_544     S
V3     V1    6.781   1_565     S
V3     V4    6.781   1_566     S
V3     V8    6.781   .     S
V3     V5    6.781   1_556     S
V3     V6    11.073   1_556     S
V3     V6    11.073   1_455     S
V3     V7    11.073   1_465     S
V3     V2    11.073   1_556     S
V3     V2    11.073   1_565     S
V3     V6    11.073   .     S
V3     V7    11.073   1_455     S
V3     V7    11.073   .     S
V3     V7    11.073   1_565     S
V3     V6    11.073   1_456     S
V3     V2    11.073   1_566     S
V4     V3    6.781   1_544     S
V4     V7    6.781   1_554     S
V4     V6    6.781   1_545     S
V4     V8    11.073   1_554     S
V4     V8    11.073   1_545     S
V4     V1    11.073   1_554     S
V4     V5    11.073   1_655     S
V4     V5    11.073   .     S
V4     V5    11.073   1_545     S
V4     V1    11.073   1_655     S
V4     V5    11.073   1_645     S
V4     V1    11.073   1_654     S
V4     V8    11.073   1_544     S
V4     V8    11.073   .     S
V5     V6    6.781   1_455     S
V5     V7    6.781   1_454     S
V5     V3    6.781   1_554     S
V5     V1    11.073   1_565     S
V5     V1    11.073   1_554     S
V5     V4    11.073   1_455     S
V5     V4    11.073   1_565     S
V5     V8    11.073   1_455     S
V5     V8    11.073   1_554     S
V5     V4    11.073   1_465     S
V5     V8    11.073   .     S
V5     V8    11.073   1_454     S
V5     V1    11.073   1_564     S
V6     V5    6.781   1_655     S
V6     V8    6.781   .     S
V6     V4    6.781   1_565     S
V6     V1    6.781   1_665     S
V6     V3    11.073   1_554     S
V6     V3    11.073   1_655     S
V6     V7    11.073   1_554     S
V6     V7    11.073   .     S
V6     V2    11.073   1_565     S
V6     V7    11.073   1_565     S
V6     V3    11.073   1_654     S
V6     V7    11.073   1_564     S
V6     V2    11.073   1_655     S
V6     V2    11.073   1_665     S
V7     V5    6.781   1_656     S
V7     V8    6.781   .     S
V7     V4    6.781   1_556     S
V7     V1    6.781   1_655     S
V7     V2    11.073   1_655     S
V7     V2    11.073   1_556     S
V7     V6    11.073   1_556     S
V7     V3    11.073   1_645     S
V7     V6    11.073   1_545     S
V7     V3    11.073   1_655     S
V7     V3    11.073   1_545     S
V7     V2    11.073   1_656     S
V7     V6    11.073   1_546     S
V8     V4    11.073   1_556     S
V8     V4    11.073   1_565     S
V8     V1    11.073   1_565     S
V8     V5    11.073   1_655     S
V8     V5    11.073   1_556     S
V8     V1    11.073   1_665     S
V8     V5    11.073   1_656     S
V8     V1    11.073   1_655     S
V8     V4    11.073   1_566     S
