data_dnba
_audit_creation_date              2020-02-04
_audit_creation_method            'Pymatgen'
_symmetry_space_group_name_H-M    'P1'
_symmetry_Int_Tables_number       1
loop_
_symmetry_equiv_pos_as_xyz
  x,y,z
_cell_length_a                    61.2875
_cell_length_b                    61.2875
_cell_length_c                    61.2875
_cell_angle_alpha                 90.0
_cell_angle_beta                 90.0
_cell_angle_gamma                 90.0
loop_
_atom_site_label
_atom_site_type_symbol
_atom_site_fract_x
_atom_site_fract_y
_atom_site_fract_z
V1     V     0.6904   0.3096   0.5747
V2     V     0.5747   0.3096   0.6904
V3     V     0.6904   0.4253   0.6904
V4     V     0.6904   0.5747   0.3096
V5     V     0.5747   0.6904   0.3096
V6     V     0.6904   0.6904   0.4253
V7     V     0.3096   0.5747   0.6904
V8     V     0.3096   0.6904   0.5747
V9     V     0.4253   0.6904   0.6904
V10     V     0.3096   0.4253   0.3096
V11     V     0.3096   0.3096   0.4253
V12     V     0.4253   0.3096   0.3096
V13     V     0.3096   0.0747   0.1904
V14     V     0.3096   0.1904   0.0747
V15     V     0.4253   0.1904   0.1904
V16     V     0.0747   0.3096   0.1904
V17     V     0.1904   0.3096   0.0747
V18     V     0.1904   0.4253   0.1904
V19     V     0.0747   0.1904   0.3096
V20     V     0.1904   0.0747   0.3096
V21     V     0.1904   0.1904   0.4253
V22     V     0.6904   0.8096   0.0747
V23     V     0.5747   0.8096   0.1904
V24     V     0.6904   0.9253   0.1904
V25     V     0.4253   0.8096   0.8096
V26     V     0.3096   0.9253   0.8096
V27     V     0.3096   0.8096   0.9253
V28     V     0.6904   0.0747   0.8096
V29     V     0.5747   0.1904   0.8096
V30     V     0.6904   0.1904   0.9253
V31     V     0.8096   0.0747   0.6904
V32     V     0.8096   0.1904   0.5747
V33     V     0.9253   0.1904   0.6904
V34     V     0.8096   0.8096   0.4253
V35     V     0.9253   0.8096   0.3096
V36     V     0.8096   0.9253   0.3096
V37     V     0.0747   0.8096   0.6904
V38     V     0.1904   0.8096   0.5747
V39     V     0.1904   0.9253   0.6904
V40     V     0.0747   0.6904   0.8096
V41     V     0.1904   0.5747   0.8096
V42     V     0.1904   0.6904   0.9253
V43     V     0.8096   0.4253   0.8096
V44     V     0.9253   0.3096   0.8096
V45     V     0.8096   0.3096   0.9253
V46     V     0.8096   0.6904   0.0747
V47     V     0.8096   0.5747   0.1904
V48     V     0.9253   0.6904   0.1904
Ce49     Ce     0.194   0.694   0.194
Ti50     Ti     0.1069   0.6069   0.1069
Er51     Er     0.0442   0.5736   0.9264
Er52     Er     0.0736   0.5442   0.9264
Er53     Er     0.0736   0.5736   0.9558
Er54     Er     0.9264   0.5736   0.0442
Er55     Er     0.9264   0.5442   0.0736
Er56     Er     0.9558   0.5736   0.0736
Ti57     Ti     0.8931   0.6069   0.8931
Ce58     Ce     0.806   0.694   0.806
Er59     Er     0.9558   0.4264   0.9264
Er60     Er     0.9264   0.4558   0.9264
Er61     Er     0.9264   0.4264   0.9558
Ti62     Ti     0.8931   0.3931   0.1069
Ce63     Ce     0.806   0.306   0.194
Er64     Er     0.0442   0.4264   0.0736
Er65     Er     0.0736   0.4264   0.0442
Er66     Er     0.0736   0.4558   0.0736
Ti67     Ti     0.1069   0.3931   0.8931
Ce68     Ce     0.194   0.306   0.806
Er69     Er     0.5736   0.5442   0.4264
Er70     Er     0.5442   0.5736   0.4264
Er71     Er     0.5736   0.5736   0.4558
Er72     Er     0.4264   0.4558   0.4264
Er73     Er     0.4264   0.4264   0.4558
Er74     Er     0.4558   0.4264   0.4264
Er75     Er     0.5736   0.4264   0.5442
Er76     Er     0.5442   0.4264   0.5736
Er77     Er     0.5736   0.4558   0.5736
Er78     Er     0.4264   0.5442   0.5736
Er79     Er     0.4558   0.5736   0.5736
Er80     Er     0.4264   0.5736   0.5442
Ce81     Ce     0.694   0.694   0.694
Ti82     Ti     0.6069   0.6069   0.6069
Ti83     Ti     0.6069   0.3931   0.3931
Ce84     Ce     0.694   0.306   0.306
Ti85     Ti     0.3931   0.6069   0.3931
Ce86     Ce     0.306   0.694   0.306
Ti87     Ti     0.3931   0.3931   0.6069
Ce88     Ce     0.306   0.306   0.694
Ce89     Ce     0.694   0.194   0.194
Ti90     Ti     0.6069   0.1069   0.1069
Er91     Er     0.5736   0.0442   0.9264
Er92     Er     0.5442   0.0736   0.9264
Er93     Er     0.5736   0.0736   0.9558
Er94     Er     0.5736   0.9264   0.0442
Er95     Er     0.5442   0.9264   0.0736
Er96     Er     0.5736   0.9558   0.0736
Ti97     Ti     0.6069   0.8931   0.8931
Ce98     Ce     0.694   0.806   0.806
Er99     Er     0.4264   0.9558   0.9264
Er100     Er     0.4558   0.9264   0.9264
Er101     Er     0.4264   0.9264   0.9558
Ti102     Ti     0.3931   0.1069   0.8931
Ce103     Ce     0.306   0.194   0.806
Er104     Er     0.4264   0.0442   0.0736
Er105     Er     0.4264   0.0736   0.0442
Er106     Er     0.4558   0.0736   0.0736
Ti107     Ti     0.3931   0.8931   0.1069
Ce108     Ce     0.306   0.806   0.194
Ce109     Ce     0.194   0.194   0.694
Ti110     Ti     0.1069   0.1069   0.6069
Er111     Er     0.0442   0.9264   0.5736
Er112     Er     0.0736   0.9264   0.5442
Er113     Er     0.0736   0.9558   0.5736
Er114     Er     0.9264   0.0442   0.5736
Er115     Er     0.9264   0.0736   0.5442
Er116     Er     0.9558   0.0736   0.5736
Er117     Er     0.9558   0.9264   0.4264
Er118     Er     0.9264   0.9264   0.4558
Er119     Er     0.9264   0.9558   0.4264
Ti120     Ti     0.8931   0.8931   0.6069
Ce121     Ce     0.806   0.806   0.694
Ti122     Ti     0.1069   0.8931   0.3931
Ce123     Ce     0.194   0.806   0.306
Er124     Er     0.0442   0.0736   0.4264
Er125     Er     0.0736   0.0442   0.4264
Er126     Er     0.0736   0.0736   0.4558
Ti127     Ti     0.8931   0.1069   0.3931
Ce128     Ce     0.806   0.194   0.306
loop_
_geom_bond_atom_site_label_1
_geom_bond_atom_site_label_2
_geom_bond_distance
_geom_bond_site_symmetry_2
_ccdc_geom_bond_type
V1     V2    10.031   .     S
V1     V3    10.031   .     S
V1     Er75    10.294   .     S
V1     V32    10.326   .     S
V2     V3    10.031   .     S
V2     Er76    10.294   .     S
V2     V29    10.326   .     S
V3     Er77    10.294   .     S
V3     V43    10.326   .     S
V4     V5    10.031   .     S
V4     V6    10.031   .     S
V4     Er69    10.294   .     S
V4     V47    10.326   .     S
V5     V6    10.031   .     S
V5     Er70    10.294   .     S
V5     V23    10.326   .     S
V6     Er71    10.294   .     S
V6     V34    10.326   .     S
V7     V8    10.031   .     S
V7     V9    10.031   .     S
V7     Er78    10.294   .     S
V7     V41    10.326   .     S
V8     V9    10.031   .     S
V8     Er80    10.294   .     S
V8     V38    10.326   .     S
V9     Er79    10.294   .     S
V9     V25    10.326   .     S
V10     V11    10.031   .     S
V10     V12    10.031   .     S
V10     Er72    10.294   .     S
V10     V18    10.326   .     S
V11     V12    10.031   .     S
V11     Er73    10.294   .     S
V11     V21    10.326   .     S
V12     Er74    10.294   .     S
V12     V15    10.326   .     S
V13     V15    10.031   .     S
V13     V14    10.031   .     S
V13     Er104    10.294   .     S
V13     V20    10.326   .     S
V14     V15    10.031   .     S
V14     Er105    10.294   .     S
V14     V17    10.326   .     S
V15     Er106    10.294   .     S
V16     V18    10.031   .     S
V16     V17    10.031   .     S
V16     Er64    10.294   .     S
V16     V19    10.326   .     S
V17     V18    10.031   .     S
V17     Er65    10.294   .     S
V18     Er66    10.294   .     S
V19     V20    10.031   .     S
V19     V21    10.031   .     S
V19     Er124    10.294   .     S
V20     V21    10.031   .     S
V20     Er125    10.294   .     S
V21     Er126    10.294   .     S
V22     V24    10.031   .     S
V22     V23    10.031   .     S
V22     Er94    10.294   .     S
V22     V46    10.326   .     S
V23     V24    10.031   .     S
V23     Er95    10.294   .     S
V24     Er96    10.294   .     S
V24     V36    10.326   .     S
V25     V26    10.031   .     S
V25     V27    10.031   .     S
V25     Er100    10.294   .     S
V26     V27    10.031   .     S
V26     Er99    10.294   .     S
V26     V39    10.326   .     S
V27     Er101    10.294   .     S
V27     V42    10.326   .     S
V28     V30    10.031   .     S
V28     V29    10.031   .     S
V28     Er91    10.294   .     S
V28     V31    10.326   .     S
V29     V30    10.031   .     S
V29     Er92    10.294   .     S
V30     Er93    10.294   .     S
V30     V45    10.326   .     S
V31     V33    10.031   .     S
V31     V32    10.031   .     S
V31     Er114    10.294   .     S
V32     V33    10.031   .     S
V32     Er115    10.294   .     S
V33     Er116    10.294   .     S
V33     V44    10.326   .     S
V34     V35    10.031   .     S
V34     V36    10.031   .     S
V34     Er118    10.294   .     S
V35     V36    10.031   .     S
V35     Er117    10.294   .     S
V35     V48    10.326   .     S
V36     Er119    10.294   .     S
V37     V39    10.031   .     S
V37     V38    10.031   .     S
V37     Er111    10.294   .     S
V37     V40    10.326   .     S
V38     V39    10.031   .     S
V38     Er112    10.294   .     S
V39     Er113    10.294   .     S
V40     V42    10.031   .     S
V40     V41    10.031   .     S
V40     Er51    10.294   .     S
V41     V42    10.031   .     S
V41     Er52    10.294   .     S
V42     Er53    10.294   .     S
V43     V44    10.031   .     S
V43     V45    10.031   .     S
V43     Er60    10.294   .     S
V44     V45    10.031   .     S
V44     Er59    10.294   .     S
V45     Er61    10.294   .     S
V46     V48    10.031   .     S
V46     V47    10.031   .     S
V46     Er54    10.294   .     S
V47     V48    10.031   .     S
V47     Er55    10.294   .     S
V48     Er56    10.294   .     S
Ce49     Ce86    9.707   .     S
Ce49     Ce108    9.707   .     S
Ce49     Ce123    9.707   .     S
Ce49     Ti50    9.246   .     S
Ti50     Er66    9.698   .     S
Ti50     Er56    9.698   1_455     S
Ti50     Er53    9.698   1_554     S
Er51     Ti57    9.698   1_455     S
Er51     Er54    10.212   1_456     S
Er51     Er60    10.212   1_455     S
Er52     Ti67    9.698   .     S
Er52     Er65    10.212   1_556     S
Er52     Er59    10.212   1_455     S
Er53     Ti50    9.698   1_556     S
Er53     Er56    10.212   1_456     S
Er53     Er66    10.212   1_556     S
Er54     Ti57    9.698   1_554     S
Er54     Er51    10.212   1_654     S
Er54     Er60    10.212   1_554     S
Er55     Ti62    9.698   .     S
Er55     Er64    10.212   1_655     S
Er55     Er61    10.212   1_554     S
Er56     Ti50    9.698   1_655     S
Er56     Er53    10.212   1_654     S
Er56     Er66    10.212   1_655     S
Ti57     Er51    9.698   1_655     S
Ti57     Er54    9.698   1_556     S
Ti57     Er60    9.698   .     S
Ti57     Ce58    9.246   .     S
Ce58     Ce98    9.707   .     S
Ce58     Ce121    9.707   .     S
Ce58     Ce81    9.707   .     S
Er59     Ti67    9.698   1_655     S
Er59     Er52    10.212   1_655     S
Er59     Er65    10.212   1_656     S
Er60     Er54    10.212   1_556     S
Er60     Er51    10.212   1_655     S
Er61     Ti62    9.698   1_556     S
Er61     Er55    10.212   1_556     S
Er61     Er64    10.212   1_656     S
Ti62     Er61    9.698   1_554     S
Ti62     Er64    9.698   1_655     S
Ti62     Ce63    9.246   .     S
Ce63     Ce84    9.707   .     S
Ce63     Ce89    9.707   .     S
Ce63     Ce128    9.707   .     S
Er64     Ti62    9.698   1_455     S
Er64     Er55    10.212   1_455     S
Er64     Er61    10.212   1_454     S
Er65     Ti67    9.698   1_554     S
Er65     Er52    10.212   1_554     S
Er65     Er59    10.212   1_454     S
Er66     Er53    10.212   1_554     S
Er66     Er56    10.212   1_455     S
Ti67     Er59    9.698   1_455     S
Ti67     Er65    9.698   1_556     S
Ti67     Ce68    9.246   .     S
Ce68     Ce88    9.707   .     S
Ce68     Ce103    9.707   .     S
Ce68     Ce109    9.707   .     S
Er69     Ti83    9.698   .     S
Er69     Er74    10.212   .     S
Er69     Er75    10.212   .     S
Er70     Ti85    9.698   .     S
Er70     Er72    10.212   .     S
Er70     Er80    10.212   .     S
Er71     Ti82    9.698   .     S
Er71     Er77    10.212   .     S
Er71     Er79    10.212   .     S
Er72     Ti85    9.698   .     S
Er72     Er80    10.212   .     S
Er73     Ti87    9.698   .     S
Er73     Er78    10.212   .     S
Er73     Er76    10.212   .     S
Er74     Ti83    9.698   .     S
Er74     Er75    10.212   .     S
Er75     Ti83    9.698   .     S
Er76     Ti87    9.698   .     S
Er76     Er78    10.212   .     S
Er77     Ti82    9.698   .     S
Er77     Er79    10.212   .     S
Er78     Ti87    9.698   .     S
Er79     Ti82    9.698   .     S
Er80     Ti85    9.698   .     S
Ce81     Ce98    9.707   .     S
Ce81     Ce121    9.707   .     S
Ce81     Ti82    9.246   .     S
Ti83     Ce84    9.246   .     S
Ce84     Ce89    9.707   .     S
Ce84     Ce128    9.707   .     S
Ti85     Ce86    9.246   .     S
Ce86     Ce108    9.707   .     S
Ce86     Ce123    9.707   .     S
Ti87     Ce88    9.246   .     S
Ce88     Ce103    9.707   .     S
Ce88     Ce109    9.707   .     S
Ce89     Ce128    9.707   .     S
Ce89     Ti90    9.246   .     S
Ti90     Er106    9.698   .     S
Ti90     Er96    9.698   1_545     S
Ti90     Er93    9.698   1_554     S
Er91     Ti97    9.698   1_545     S
Er91     Er94    10.212   1_546     S
Er91     Er100    10.212   1_545     S
Er92     Ti102    9.698   .     S
Er92     Er105    10.212   1_556     S
Er92     Er99    10.212   1_545     S
Er93     Ti90    9.698   1_556     S
Er93     Er96    10.212   1_546     S
Er93     Er106    10.212   1_556     S
Er94     Ti97    9.698   1_554     S
Er94     Er91    10.212   1_564     S
Er94     Er100    10.212   1_554     S
Er95     Ti107    9.698   .     S
Er95     Er104    10.212   1_565     S
Er95     Er101    10.212   1_554     S
Er96     Ti90    9.698   1_565     S
Er96     Er93    10.212   1_564     S
Er96     Er106    10.212   1_565     S
Ti97     Er91    9.698   1_565     S
Ti97     Er94    9.698   1_556     S
Ti97     Er100    9.698   .     S
Ti97     Ce98    9.246   .     S
Ce98     Ce121    9.707   .     S
Er99     Ti102    9.698   1_565     S
Er99     Er92    10.212   1_565     S
Er99     Er105    10.212   1_566     S
Er100     Er94    10.212   1_556     S
Er100     Er91    10.212   1_565     S
Er101     Ti107    9.698   1_556     S
Er101     Er95    10.212   1_556     S
Er101     Er104    10.212   1_566     S
Ti102     Er99    9.698   1_545     S
Ti102     Er105    9.698   1_556     S
Ti102     Ce103    9.246   .     S
Ce103     Ce109    9.707   .     S
Er104     Ti107    9.698   1_545     S
Er104     Er95    10.212   1_545     S
Er104     Er101    10.212   1_544     S
Er105     Ti102    9.698   1_554     S
Er105     Er92    10.212   1_554     S
Er105     Er99    10.212   1_544     S
Er106     Er96    10.212   1_545     S
Er106     Er93    10.212   1_554     S
Ti107     Er101    9.698   1_554     S
Ti107     Er104    9.698   1_565     S
Ti107     Ce108    9.246   .     S
Ce108     Ce123    9.707   .     S
Ce109     Ti110    9.246   .     S
Ti110     Er126    9.698   .     S
Ti110     Er113    9.698   1_545     S
Ti110     Er116    9.698   1_455     S
Er111     Ti120    9.698   1_455     S
Er111     Er114    10.212   1_465     S
Er111     Er118    10.212   1_455     S
Er112     Ti122    9.698   .     S
Er112     Er125    10.212   1_565     S
Er112     Er117    10.212   1_455     S
Er113     Ti110    9.698   1_565     S
Er113     Er116    10.212   1_465     S
Er113     Er126    10.212   1_565     S
Er114     Ti120    9.698   1_545     S
Er114     Er111    10.212   1_645     S
Er114     Er118    10.212   1_545     S
Er115     Ti127    9.698   .     S
Er115     Er124    10.212   1_655     S
Er115     Er119    10.212   1_545     S
Er116     Ti110    9.698   1_655     S
Er116     Er113    10.212   1_645     S
Er116     Er126    10.212   1_655     S
Er117     Ti122    9.698   1_655     S
Er117     Er125    10.212   1_665     S
Er117     Er112    10.212   1_655     S
Er118     Ti120    9.698   .     S
Er118     Er111    10.212   1_655     S
Er118     Er114    10.212   1_565     S
Er119     Ti127    9.698   1_565     S
Er119     Er124    10.212   1_665     S
Er119     Er115    10.212   1_565     S
Ti120     Er114    9.698   1_565     S
Ti120     Er111    9.698   1_655     S
Ti120     Ce121    9.246   .     S
Ti122     Er117    9.698   1_455     S
Ti122     Er125    9.698   1_565     S
Ti122     Ce123    9.246   .     S
Er124     Ti127    9.698   1_455     S
Er124     Er119    10.212   1_445     S
Er124     Er115    10.212   1_455     S
Er125     Ti122    9.698   1_545     S
Er125     Er112    10.212   1_545     S
Er125     Er117    10.212   1_445     S
Er126     Er113    10.212   1_545     S
Er126     Er116    10.212   1_455     S
Ti127     Er119    9.698   1_545     S
Ti127     Er124    9.698   1_655     S
Ti127     Ce128    9.246   .     S
