data_dne
_audit_creation_date              2020-02-04
_audit_creation_method            'Pymatgen'
_symmetry_space_group_name_H-M    'P1'
_symmetry_Int_Tables_number       1
loop_
_symmetry_equiv_pos_as_xyz
  x,y,z
_cell_length_a                    52.7917
_cell_length_b                    52.7917
_cell_length_c                    52.7917
_cell_angle_alpha                 90.0
_cell_angle_beta                 90.0
_cell_angle_gamma                 90.0
loop_
_atom_site_label
_atom_site_type_symbol
_atom_site_fract_x
_atom_site_fract_y
_atom_site_fract_z
Ti1     Ti     0.0669   0.0669   0.2008
Ti2     Ti     0.9331   0.9331   0.2008
Ti3     Ti     0.0669   0.2008   0.0669
Ti4     Ti     0.9331   0.2008   0.9331
Ti5     Ti     0.7992   0.9331   0.0669
Ti6     Ti     0.7992   0.0669   0.9331
V7     V     0.933   0.067   0.067
Ti8     Ti     0.2008   0.9331   0.9331
Ti9     Ti     0.2008   0.0669   0.0669
Ti10     Ti     0.0669   0.7992   0.9331
Ti11     Ti     0.9331   0.7992   0.0669
V12     V     0.067   0.933   0.067
Ti13     Ti     0.0669   0.9331   0.7992
Ti14     Ti     0.9331   0.0669   0.7992
V15     V     0.067   0.067   0.933
V16     V     0.933   0.933   0.933
Ti17     Ti     0.2992   0.5669   0.9331
Ti18     Ti     0.2992   0.4331   0.0669
Ti19     Ti     0.4331   0.2992   0.0669
Ti20     Ti     0.5669   0.2992   0.9331
Ti21     Ti     0.5669   0.5669   0.2008
Ti22     Ti     0.4331   0.4331   0.2008
Ti23     Ti     0.7008   0.5669   0.0669
Ti24     Ti     0.7008   0.4331   0.9331
Ti25     Ti     0.5669   0.7008   0.0669
Ti26     Ti     0.4331   0.7008   0.9331
Ti27     Ti     0.4331   0.5669   0.7992
Ti28     Ti     0.5669   0.4331   0.7992
V29     V     0.433   0.433   0.933
V30     V     0.567   0.567   0.933
V31     V     0.433   0.567   0.067
V32     V     0.567   0.433   0.067
Er33     Er     0.6444   0.3556   0.6444
Ti34     Ti     0.4331   0.2008   0.4331
Ti35     Ti     0.5669   0.2008   0.5669
Ti36     Ti     0.4331   0.0669   0.2992
Ti37     Ti     0.5669   0.9331   0.2992
Ti38     Ti     0.2992   0.0669   0.4331
Ti39     Ti     0.2992   0.9331   0.5669
Ti40     Ti     0.7008   0.0669   0.5669
Ti41     Ti     0.7008   0.9331   0.4331
Ti42     Ti     0.5669   0.0669   0.7008
Ti43     Ti     0.4331   0.9331   0.7008
Ti44     Ti     0.5669   0.7992   0.4331
Ti45     Ti     0.4331   0.7992   0.5669
V46     V     0.433   0.933   0.433
V47     V     0.567   0.933   0.567
V48     V     0.433   0.067   0.567
V49     V     0.567   0.067   0.433
Er50     Er     0.6444   0.6444   0.3556
Er51     Er     0.3556   0.6444   0.6444
Ti52     Ti     0.9331   0.2992   0.5669
Ti53     Ti     0.0669   0.2992   0.4331
Ti54     Ti     0.2008   0.5669   0.5669
Ti55     Ti     0.2008   0.4331   0.4331
Ti56     Ti     0.9331   0.5669   0.2992
Ti57     Ti     0.0669   0.4331   0.2992
Ti58     Ti     0.7992   0.4331   0.5669
Ti59     Ti     0.7992   0.5669   0.4331
Ti60     Ti     0.0669   0.7008   0.5669
Ti61     Ti     0.9331   0.7008   0.4331
Ti62     Ti     0.9331   0.4331   0.7008
Ti63     Ti     0.0669   0.5669   0.7008
V64     V     0.067   0.433   0.567
V65     V     0.933   0.567   0.567
V66     V     0.067   0.567   0.433
V67     V     0.933   0.433   0.433
Er68     Er     0.1444   0.1444   0.3556
Er69     Er     0.1444   0.3556   0.1444
Er70     Er     0.3556   0.1444   0.1444
Er71     Er     0.1444   0.8556   0.6444
Er72     Er     0.8556   0.1444   0.6444
Er73     Er     0.1444   0.6444   0.8556
Er74     Er     0.6444   0.8556   0.1444
Er75     Er     0.8556   0.6444   0.1444
Er76     Er     0.6444   0.1444   0.8556
Er77     Er     0.3556   0.3556   0.3556
Er78     Er     0.8556   0.8556   0.3556
Er79     Er     0.8556   0.3556   0.8556
Er80     Er     0.3556   0.8556   0.8556
loop_
_geom_bond_atom_site_label_1
_geom_bond_atom_site_label_2
_geom_bond_distance
_geom_bond_site_symmetry_2
_ccdc_geom_bond_type
Ti1     V7    9.994   1_455     S
Ti1     V12    9.994   1_545     S
Ti1     Er68    10.012   .     S
Ti2     V7    9.994   1_565     S
Ti2     V12    9.994   1_655     S
Ti2     Er78    10.012   .     S
Ti3     V15    9.994   1_554     S
Ti3     V7    9.994   1_455     S
Ti3     Er69    10.012   .     S
Ti4     V15    9.994   1_655     S
Ti4     V7    9.994   1_556     S
Ti4     Er79    10.012   .     S
Ti5     V16    9.994   1_554     S
Ti5     V7    9.994   1_565     S
Ti5     Er74    10.012   .     S
Ti6     V16    9.994   1_545     S
Ti6     V7    9.994   1_556     S
Ti6     Er76    10.012   .     S
V7     Ti2    9.994   1_545     S
V7     Ti1    9.994   1_655     S
V7     Ti4    9.994   1_554     S
V7     Ti3    9.994   1_655     S
V7     Ti6    9.994   1_554     S
V7     Ti5    9.994   1_545     S
Ti8     V12    9.994   1_556     S
Ti8     V15    9.994   1_565     S
Ti8     Er80    10.012   .     S
Ti9     V12    9.994   1_545     S
Ti9     V15    9.994   1_554     S
Ti9     Er70    10.012   .     S
Ti10     V16    9.994   1_455     S
Ti10     V12    9.994   1_556     S
Ti10     Er73    10.012   .     S
Ti11     V16    9.994   1_554     S
Ti11     V12    9.994   1_655     S
Ti11     Er75    10.012   .     S
V12     Ti1    9.994   1_565     S
V12     Ti2    9.994   1_455     S
V12     Ti8    9.994   1_554     S
V12     Ti9    9.994   1_565     S
V12     Ti10    9.994   1_554     S
V12     Ti11    9.994   1_455     S
Ti13     V16    9.994   1_455     S
Ti13     V15    9.994   1_565     S
Ti13     Er71    10.012   .     S
Ti14     V16    9.994   1_545     S
Ti14     V15    9.994   1_655     S
Ti14     Er72    10.012   .     S
V15     Ti3    9.994   1_556     S
V15     Ti4    9.994   1_455     S
V15     Ti9    9.994   1_556     S
V15     Ti8    9.994   1_545     S
V15     Ti14    9.994   1_455     S
V15     Ti13    9.994   1_545     S
V16     Ti5    9.994   1_556     S
V16     Ti6    9.994   1_565     S
V16     Ti11    9.994   1_556     S
V16     Ti10    9.994   1_655     S
V16     Ti13    9.994   1_655     S
V16     Ti14    9.994   1_565     S
Ti17     V31    9.994   1_556     S
Ti17     V29    9.994   .     S
Ti17     Er73    10.012   .     S
Ti18     V31    9.994   .     S
Ti18     V29    9.994   1_554     S
Ti18     Er69    10.012   .     S
Ti19     V29    9.994   1_554     S
Ti19     V32    9.994   .     S
Ti19     Er70    10.012   .     S
Ti20     V29    9.994   .     S
Ti20     V32    9.994   1_556     S
Ti20     Er76    10.012   .     S
Ti21     V31    9.994   .     S
Ti21     V32    9.994   .     S
Ti21     Er50    10.012   .     S
Ti22     V31    9.994   .     S
Ti22     V32    9.994   .     S
Ti22     Er77    10.012   .     S
Ti23     V30    9.994   1_554     S
Ti23     V32    9.994   .     S
Ti23     Er75    10.012   .     S
Ti24     V30    9.994   .     S
Ti24     V32    9.994   1_556     S
Ti24     Er79    10.012   .     S
Ti25     V30    9.994   1_554     S
Ti25     V31    9.994   .     S
Ti25     Er74    10.012   .     S
Ti26     V30    9.994   .     S
Ti26     V31    9.994   1_556     S
Ti26     Er80    10.012   .     S
Ti27     V29    9.994   .     S
Ti27     V30    9.994   .     S
Ti27     Er51    10.012   .     S
Ti28     V29    9.994   .     S
Ti28     V30    9.994   .     S
Ti28     Er33    10.012   .     S
V29     Ti18    9.994   1_556     S
V29     Ti19    9.994   1_556     S
V30     Ti23    9.994   1_556     S
V30     Ti25    9.994   1_556     S
V31     Ti17    9.994   1_554     S
V31     Ti26    9.994   1_554     S
V32     Ti20    9.994   1_554     S
V32     Ti24    9.994   1_554     S
Er33     Ti35    10.012   .     S
Er33     Ti58    10.012   .     S
Ti34     V48    9.994   .     S
Ti34     V49    9.994   .     S
Ti34     Er77    10.012   .     S
Ti35     V48    9.994   .     S
Ti35     V49    9.994   .     S
Ti36     V46    9.994   1_545     S
Ti36     V49    9.994   .     S
Ti36     Er70    10.012   .     S
Ti37     V46    9.994   .     S
Ti37     V49    9.994   1_565     S
Ti37     Er74    10.012   .     S
Ti38     V46    9.994   1_545     S
Ti38     V48    9.994   .     S
Ti38     Er68    10.012   .     S
Ti39     V46    9.994   .     S
Ti39     V48    9.994   1_565     S
Ti39     Er71    10.012   .     S
Ti40     V47    9.994   1_545     S
Ti40     V49    9.994   .     S
Ti40     Er72    10.012   .     S
Ti41     V47    9.994   .     S
Ti41     V49    9.994   1_565     S
Ti41     Er78    10.012   .     S
Ti42     V47    9.994   1_545     S
Ti42     V48    9.994   .     S
Ti42     Er76    10.012   .     S
Ti43     V47    9.994   .     S
Ti43     V48    9.994   1_565     S
Ti43     Er80    10.012   .     S
Ti44     V47    9.994   .     S
Ti44     V46    9.994   .     S
Ti44     Er50    10.012   .     S
Ti45     V47    9.994   .     S
Ti45     V46    9.994   .     S
Ti45     Er51    10.012   .     S
V46     Ti36    9.994   1_565     S
V46     Ti38    9.994   1_565     S
V47     Ti40    9.994   1_565     S
V47     Ti42    9.994   1_565     S
V48     Ti39    9.994   1_545     S
V48     Ti43    9.994   1_545     S
V49     Ti37    9.994   1_545     S
V49     Ti41    9.994   1_545     S
Er50     Ti59    10.012   .     S
Er51     Ti54    10.012   .     S
Ti52     V64    9.994   1_655     S
Ti52     V67    9.994   .     S
Ti52     Er72    10.012   .     S
Ti53     V64    9.994   .     S
Ti53     V67    9.994   1_455     S
Ti53     Er68    10.012   .     S
Ti54     V66    9.994   .     S
Ti54     V64    9.994   .     S
Ti55     V66    9.994   .     S
Ti55     V64    9.994   .     S
Ti55     Er77    10.012   .     S
Ti56     V66    9.994   1_655     S
Ti56     V67    9.994   .     S
Ti56     Er75    10.012   .     S
Ti57     V66    9.994   .     S
Ti57     V67    9.994   1_455     S
Ti57     Er69    10.012   .     S
Ti58     V67    9.994   .     S
Ti58     V65    9.994   .     S
Ti59     V67    9.994   .     S
Ti59     V65    9.994   .     S
Ti60     V65    9.994   1_455     S
Ti60     V66    9.994   .     S
Ti60     Er71    10.012   .     S
Ti61     V65    9.994   .     S
Ti61     V66    9.994   1_655     S
Ti61     Er78    10.012   .     S
Ti62     V64    9.994   1_655     S
Ti62     V65    9.994   .     S
Ti62     Er79    10.012   .     S
Ti63     V64    9.994   .     S
Ti63     V65    9.994   1_455     S
Ti63     Er73    10.012   .     S
V64     Ti52    9.994   1_455     S
V64     Ti62    9.994   1_455     S
V65     Ti60    9.994   1_655     S
V65     Ti63    9.994   1_655     S
V66     Ti56    9.994   1_455     S
V66     Ti61    9.994   1_455     S
V67     Ti53    9.994   1_655     S
V67     Ti57    9.994   1_655     S
