data_dnea
_audit_creation_date              2020-02-04
_audit_creation_method            'Pymatgen'
_symmetry_space_group_name_H-M    'P1'
_symmetry_Int_Tables_number       1
loop_
_symmetry_equiv_pos_as_xyz
  x,y,z
_cell_length_a                    123.4975
_cell_length_b                    123.4975
_cell_length_c                    123.4975
_cell_angle_alpha                 90.0
_cell_angle_beta                 90.0
_cell_angle_gamma                 90.0
loop_
_atom_site_label
_atom_site_type_symbol
_atom_site_fract_x
_atom_site_fract_y
_atom_site_fract_z
Er1     Er     0.9504   0.7214   0.6642
Er2     Er     0.9504   0.6642   0.7214
V3     V     0.0072   0.6636   0.6636
Er4     Er     0.9504   0.8358   0.7786
Er5     Er     0.9504   0.7786   0.8358
V6     V     0.0072   0.8364   0.8364
Er7     Er     0.7214   0.6642   0.9504
Er8     Er     0.6642   0.7214   0.9504
V9     V     0.6636   0.6636   0.0072
Er10     Er     0.7214   0.5496   0.8358
Er11     Er     0.6642   0.5496   0.7786
V12     V     0.6636   0.4928   0.8364
Er13     Er     0.8358   0.5496   0.7214
Er14     Er     0.7786   0.5496   0.6642
V15     V     0.8364   0.4928   0.6636
Ce16     Ce     0.835   0.6077   0.7778
Ce17     Ce     0.7778   0.6077   0.835
Ce18     Ce     0.8923   0.7222   0.835
Ce19     Ce     0.8923   0.665   0.7778
Ce20     Ce     0.835   0.7222   0.8923
Ce21     Ce     0.7778   0.665   0.8923
Er22     Er     0.7786   0.8358   0.9504
Er23     Er     0.8358   0.7786   0.9504
V24     V     0.8364   0.8364   0.0072
Er25     Er     0.7214   0.9504   0.6642
Er26     Er     0.6642   0.9504   0.7214
V27     V     0.6636   0.0072   0.6636
Er28     Er     0.5496   0.7214   0.8358
Er29     Er     0.5496   0.6642   0.7786
V30     V     0.4928   0.6636   0.8364
Er31     Er     0.5496   0.8358   0.7214
Er32     Er     0.5496   0.7786   0.6642
V33     V     0.4928   0.8364   0.6636
Er34     Er     0.7214   0.8358   0.5496
Er35     Er     0.6642   0.7786   0.5496
V36     V     0.6636   0.8364   0.4928
Ce37     Ce     0.665   0.6077   0.7222
Ce38     Ce     0.7222   0.6077   0.665
Ce39     Ce     0.6077   0.7222   0.665
Ce40     Ce     0.6077   0.665   0.7222
Ce41     Ce     0.7222   0.665   0.6077
Ce42     Ce     0.665   0.7222   0.6077
Er43     Er     0.8358   0.7214   0.5496
Er44     Er     0.7786   0.6642   0.5496
V45     V     0.8364   0.6636   0.4928
Ce46     Ce     0.6077   0.835   0.7778
Ce47     Ce     0.6077   0.7778   0.835
Ce48     Ce     0.7222   0.835   0.8923
Ce49     Ce     0.665   0.7778   0.8923
Ce50     Ce     0.7222   0.8923   0.835
Ce51     Ce     0.665   0.8923   0.7778
Ce52     Ce     0.835   0.7778   0.6077
Ce53     Ce     0.7778   0.835   0.6077
Ce54     Ce     0.8923   0.835   0.7222
Ce55     Ce     0.8923   0.7778   0.665
Ce56     Ce     0.835   0.8923   0.7222
Ce57     Ce     0.7778   0.8923   0.665
Er58     Er     0.8358   0.9504   0.7786
Er59     Er     0.7786   0.9504   0.8358
V60     V     0.8364   0.0072   0.8364
Ti61     Ti     0.3694   0.3694   0.0733
Ti62     Ti     0.3694   0.4267   0.1306
Ti63     Ti     0.4267   0.3694   0.1306
Ti64     Ti     0.3694   0.1306   0.4267
Ti65     Ti     0.3694   0.0733   0.3694
Ti66     Ti     0.4267   0.1306   0.3694
Ti67     Ti     0.1306   0.3694   0.4267
Ti68     Ti     0.0733   0.3694   0.3694
Ti69     Ti     0.1306   0.4267   0.3694
Ti70     Ti     0.1306   0.1306   0.0733
Ti71     Ti     0.1306   0.0733   0.1306
Ti72     Ti     0.0733   0.1306   0.1306
Er73     Er     0.2786   0.3358   0.9504
Er74     Er     0.3358   0.2786   0.9504
V75     V     0.3364   0.3364   0.0072
Er76     Er     0.4504   0.1642   0.7214
Er77     Er     0.4504   0.2214   0.6642
V78     V     0.5072   0.1636   0.6636
Er79     Er     0.1642   0.4504   0.7214
Er80     Er     0.2214   0.4504   0.6642
V81     V     0.1636   0.5072   0.6636
Er82     Er     0.1642   0.2214   0.9504
Er83     Er     0.2214   0.1642   0.9504
V84     V     0.1636   0.1636   0.0072
Ce85     Ce     0.1077   0.2778   0.835
Ce86     Ce     0.1077   0.335   0.7778
Ce87     Ce     0.2222   0.3923   0.835
Ce88     Ce     0.165   0.3923   0.7778
Ce89     Ce     0.2222   0.335   0.8923
Ce90     Ce     0.165   0.2778   0.8923
Er91     Er     0.0496   0.3358   0.7214
Er92     Er     0.0496   0.2786   0.6642
V93     V     0.9928   0.3364   0.6636
Er94     Er     0.0496   0.1642   0.7786
Er95     Er     0.0496   0.2214   0.8358
V96     V     0.9928   0.1636   0.8364
Ce97     Ce     0.165   0.2222   0.6077
Ce98     Ce     0.2222   0.165   0.6077
Ce99     Ce     0.2222   0.1077   0.665
Ce100     Ce     0.165   0.1077   0.7222
Ce101     Ce     0.1077   0.2222   0.665
Ce102     Ce     0.1077   0.165   0.7222
Er103     Er     0.1642   0.0496   0.7786
Er104     Er     0.2214   0.0496   0.8358
V105     V     0.1636   0.9928   0.8364
Ce106     Ce     0.2778   0.1077   0.835
Ce107     Ce     0.335   0.1077   0.7778
Ce108     Ce     0.3923   0.2222   0.835
Ce109     Ce     0.3923   0.165   0.7778
Ce110     Ce     0.335   0.2222   0.8923
Ce111     Ce     0.2778   0.165   0.8923
Er112     Er     0.3358   0.0496   0.7214
Er113     Er     0.2786   0.0496   0.6642
V114     V     0.3364   0.9928   0.6636
Er115     Er     0.3358   0.4504   0.7786
Er116     Er     0.2786   0.4504   0.8358
V117     V     0.3364   0.5072   0.8364
Er118     Er     0.4504   0.3358   0.7786
Er119     Er     0.4504   0.2786   0.8358
V120     V     0.5072   0.3364   0.8364
Er121     Er     0.3358   0.2214   0.5496
Er122     Er     0.2786   0.1642   0.5496
V123     V     0.3364   0.1636   0.4928
Ce124     Ce     0.2778   0.335   0.6077
Ce125     Ce     0.335   0.2778   0.6077
Ce126     Ce     0.335   0.3923   0.7222
Ce127     Ce     0.2778   0.3923   0.665
Ce128     Ce     0.3923   0.2778   0.665
Ce129     Ce     0.3923   0.335   0.7222
Er130     Er     0.2214   0.3358   0.5496
Er131     Er     0.1642   0.2786   0.5496
V132     V     0.1636   0.3364   0.4928
Ti133     Ti     0.3694   0.5733   0.8694
Ti134     Ti     0.4267   0.6306   0.8694
Ti135     Ti     0.3694   0.6306   0.9267
Ti136     Ti     0.4267   0.8694   0.6306
Ti137     Ti     0.3694   0.8694   0.5733
Ti138     Ti     0.3694   0.9267   0.6306
Ti139     Ti     0.1306   0.6306   0.5733
Ti140     Ti     0.0733   0.6306   0.6306
Ti141     Ti     0.1306   0.5733   0.6306
Ti142     Ti     0.0733   0.8694   0.8694
Ti143     Ti     0.1306   0.8694   0.9267
Ti144     Ti     0.1306   0.9267   0.8694
Er145     Er     0.2786   0.9504   0.3358
Er146     Er     0.3358   0.9504   0.2786
V147     V     0.3364   0.0072   0.3364
Er148     Er     0.4504   0.7214   0.1642
Er149     Er     0.4504   0.6642   0.2214
V150     V     0.5072   0.6636   0.1636
Er151     Er     0.1642   0.7214   0.4504
Er152     Er     0.2214   0.6642   0.4504
V153     V     0.1636   0.6636   0.5072
Er154     Er     0.1642   0.9504   0.2214
Er155     Er     0.2214   0.9504   0.1642
V156     V     0.1636   0.0072   0.1636
Ce157     Ce     0.1077   0.835   0.2778
Ce158     Ce     0.1077   0.7778   0.335
Ce159     Ce     0.2222   0.835   0.3923
Ce160     Ce     0.165   0.7778   0.3923
Ce161     Ce     0.2222   0.8923   0.335
Ce162     Ce     0.165   0.8923   0.2778
Er163     Er     0.0496   0.7214   0.3358
Er164     Er     0.0496   0.6642   0.2786
V165     V     0.9928   0.6636   0.3364
Er166     Er     0.1642   0.7786   0.0496
Er167     Er     0.2214   0.8358   0.0496
V168     V     0.1636   0.8364   0.9928
Ce169     Ce     0.165   0.6077   0.2222
Ce170     Ce     0.2222   0.6077   0.165
Ce171     Ce     0.2222   0.665   0.1077
Ce172     Ce     0.165   0.7222   0.1077
Ce173     Ce     0.1077   0.665   0.2222
Ce174     Ce     0.1077   0.7222   0.165
Er175     Er     0.0496   0.8358   0.2214
Er176     Er     0.0496   0.7786   0.1642
V177     V     0.9928   0.8364   0.1636
Ce178     Ce     0.2778   0.835   0.1077
Ce179     Ce     0.335   0.7778   0.1077
Ce180     Ce     0.3923   0.835   0.2222
Ce181     Ce     0.3923   0.7778   0.165
Ce182     Ce     0.335   0.8923   0.2222
Ce183     Ce     0.2778   0.8923   0.165
Er184     Er     0.3358   0.7214   0.0496
Er185     Er     0.2786   0.6642   0.0496
V186     V     0.3364   0.6636   0.9928
Er187     Er     0.3358   0.7786   0.4504
Er188     Er     0.2786   0.8358   0.4504
V189     V     0.3364   0.8364   0.5072
Er190     Er     0.4504   0.7786   0.3358
Er191     Er     0.4504   0.8358   0.2786
V192     V     0.5072   0.8364   0.3364
Er193     Er     0.3358   0.5496   0.2214
Er194     Er     0.2786   0.5496   0.1642
V195     V     0.3364   0.4928   0.1636
Ce196     Ce     0.2778   0.6077   0.335
Ce197     Ce     0.335   0.6077   0.2778
Ce198     Ce     0.335   0.7222   0.3923
Ce199     Ce     0.2778   0.665   0.3923
Ce200     Ce     0.3923   0.665   0.2778
Ce201     Ce     0.3923   0.7222   0.335
Er202     Er     0.2214   0.5496   0.3358
Er203     Er     0.1642   0.5496   0.2786
V204     V     0.1636   0.4928   0.3364
Ti205     Ti     0.6306   0.5733   0.1306
Ti206     Ti     0.6306   0.6306   0.0733
Ti207     Ti     0.5733   0.6306   0.1306
Ti208     Ti     0.6306   0.8694   0.4267
Ti209     Ti     0.5733   0.8694   0.3694
Ti210     Ti     0.6306   0.9267   0.3694
Ti211     Ti     0.8694   0.6306   0.4267
Ti212     Ti     0.8694   0.5733   0.3694
Ti213     Ti     0.9267   0.6306   0.3694
Ti214     Ti     0.8694   0.8694   0.0733
Ti215     Ti     0.8694   0.9267   0.1306
Ti216     Ti     0.9267   0.8694   0.1306
Ti217     Ti     0.6306   0.4267   0.8694
Ti218     Ti     0.5733   0.3694   0.8694
Ti219     Ti     0.6306   0.3694   0.9267
Ti220     Ti     0.6306   0.1306   0.5733
Ti221     Ti     0.6306   0.0733   0.6306
Ti222     Ti     0.5733   0.1306   0.6306
Ti223     Ti     0.8694   0.4267   0.6306
Ti224     Ti     0.8694   0.3694   0.5733
Ti225     Ti     0.9267   0.3694   0.6306
Ti226     Ti     0.8694   0.0733   0.8694
Ti227     Ti     0.8694   0.1306   0.9267
Ti228     Ti     0.9267   0.1306   0.8694
Er229     Er     0.9504   0.2786   0.3358
Er230     Er     0.9504   0.3358   0.2786
V231     V     0.0072   0.3364   0.3364
Er232     Er     0.7214   0.4504   0.1642
Er233     Er     0.6642   0.4504   0.2214
V234     V     0.6636   0.5072   0.1636
Er235     Er     0.7214   0.1642   0.4504
Er236     Er     0.6642   0.2214   0.4504
V237     V     0.6636   0.1636   0.5072
Er238     Er     0.9504   0.1642   0.2214
Er239     Er     0.9504   0.2214   0.1642
V240     V     0.0072   0.1636   0.1636
Ce241     Ce     0.835   0.2778   0.1077
Ce242     Ce     0.7778   0.335   0.1077
Ce243     Ce     0.835   0.3923   0.2222
Ce244     Ce     0.7778   0.3923   0.165
Ce245     Ce     0.8923   0.335   0.2222
Ce246     Ce     0.8923   0.2778   0.165
Er247     Er     0.7214   0.3358   0.0496
Er248     Er     0.6642   0.2786   0.0496
V249     V     0.6636   0.3364   0.9928
Ce250     Ce     0.7778   0.1077   0.335
Ce251     Ce     0.835   0.1077   0.2778
Ce252     Ce     0.8923   0.2222   0.335
Ce253     Ce     0.8923   0.165   0.2778
Ce254     Ce     0.835   0.2222   0.3923
Ce255     Ce     0.7778   0.165   0.3923
Er256     Er     0.7214   0.0496   0.3358
Er257     Er     0.6642   0.0496   0.2786
V258     V     0.6636   0.9928   0.3364
Er259     Er     0.7786   0.1642   0.0496
Er260     Er     0.8358   0.2214   0.0496
V261     V     0.8364   0.1636   0.9928
Ce262     Ce     0.6077   0.165   0.2222
Ce263     Ce     0.6077   0.2222   0.165
Ce264     Ce     0.665   0.2222   0.1077
Ce265     Ce     0.7222   0.165   0.1077
Ce266     Ce     0.665   0.1077   0.2222
Ce267     Ce     0.7222   0.1077   0.165
Er268     Er     0.8358   0.0496   0.2214
Er269     Er     0.7786   0.0496   0.1642
V270     V     0.8364   0.9928   0.1636
Er271     Er     0.7786   0.3358   0.4504
Er272     Er     0.8358   0.2786   0.4504
V273     V     0.8364   0.3364   0.5072
Er274     Er     0.7786   0.4504   0.3358
Er275     Er     0.8358   0.4504   0.2786
V276     V     0.8364   0.5072   0.3364
Er277     Er     0.5496   0.3358   0.2214
Er278     Er     0.5496   0.2786   0.1642
V279     V     0.4928   0.3364   0.1636
Ce280     Ce     0.6077   0.2778   0.335
Ce281     Ce     0.6077   0.335   0.2778
Ce282     Ce     0.7222   0.335   0.3923
Ce283     Ce     0.665   0.2778   0.3923
Ce284     Ce     0.665   0.3923   0.2778
Ce285     Ce     0.7222   0.3923   0.335
Er286     Er     0.5496   0.2214   0.3358
Er287     Er     0.5496   0.1642   0.2786
V288     V     0.4928   0.1636   0.3364
loop_
_geom_bond_atom_site_label_1
_geom_bond_atom_site_label_2
_geom_bond_distance
_geom_bond_site_symmetry_2
_ccdc_geom_bond_type
Er1     Er2    9.994   .     S
Er1     V3    10.0   1_655     S
Er1     Ce55    10.001   .     S
Er2     V3    10.0   1_655     S
Er2     Ce19    10.001   .     S
V3     Er2    10.0   1_455     S
V3     Er1    10.0   1_455     S
V3     Ti140    10.006   .     S
Er4     V6    10.0   1_655     S
Er4     Er5    9.994   .     S
Er4     Ce54    10.001   .     S
Er5     V6    10.0   1_655     S
Er5     Ce18    10.001   .     S
V6     Er4    10.0   1_455     S
V6     Er5    10.0   1_455     S
V6     Ti142    10.006   .     S
Er7     Er8    9.994   .     S
Er7     V9    10.0   1_556     S
Er7     Ce21    10.001   .     S
Er8     V9    10.0   1_556     S
Er8     Ce49    10.001   .     S
V9     Er8    10.0   1_554     S
V9     Er7    10.0   1_554     S
V9     Ti206    10.006   .     S
Er10     V12    10.0   .     S
Er10     Er11    9.994   .     S
Er10     Ce17    10.001   .     S
Er11     V12    10.0   .     S
Er11     Ce37    10.001   .     S
V12     Ti217    10.006   .     S
Er13     V15    10.0   .     S
Er13     Er14    9.994   .     S
Er13     Ce16    10.001   .     S
Er14     V15    10.0   .     S
Er14     Ce38    10.001   .     S
V15     Ti223    10.006   .     S
Ce16     Ce17    9.999   .     S
Ce16     Ce19    10.001   .     S
Ce17     Ce21    10.001   .     S
Ce18     Ce19    9.999   .     S
Ce18     Ce20    10.001   .     S
Ce20     Ce21    9.999   .     S
Ce20     Er23    10.001   .     S
Er22     V24    10.0   1_556     S
Er22     Er23    9.994   .     S
Er22     Ce48    10.001   .     S
Er23     V24    10.0   1_556     S
V24     Er22    10.0   1_554     S
V24     Er23    10.0   1_554     S
V24     Ti214    10.006   .     S
Er25     Er26    9.994   .     S
Er25     V27    10.0   1_565     S
Er25     Ce57    10.001   .     S
Er26     V27    10.0   1_565     S
Er26     Ce51    10.001   .     S
V27     Er26    10.0   1_545     S
V27     Er25    10.0   1_545     S
V27     Ti221    10.006   .     S
Er28     V30    10.0   .     S
Er28     Er29    9.994   .     S
Er28     Ce47    10.001   .     S
Er29     V30    10.0   .     S
Er29     Ce40    10.001   .     S
V30     Ti134    10.006   .     S
Er31     V33    10.0   .     S
Er31     Er32    9.994   .     S
Er31     Ce46    10.001   .     S
Er32     V33    10.0   .     S
Er32     Ce39    10.001   .     S
V33     Ti136    10.006   .     S
Er34     V36    10.0   .     S
Er34     Er35    9.994   .     S
Er34     Ce53    10.001   .     S
Er35     V36    10.0   .     S
Er35     Ce42    10.001   .     S
V36     Ti208    10.006   .     S
Ce37     Ce38    9.999   .     S
Ce37     Ce40    10.001   .     S
Ce38     Ce41    10.001   .     S
Ce39     Ce40    9.999   .     S
Ce39     Ce42    10.001   .     S
Ce41     Ce42    9.999   .     S
Ce41     Er44    10.001   .     S
Er43     V45    10.0   .     S
Er43     Er44    9.994   .     S
Er43     Ce52    10.001   .     S
Er44     V45    10.0   .     S
V45     Ti211    10.006   .     S
Ce46     Ce47    9.999   .     S
Ce46     Ce51    10.001   .     S
Ce47     Ce49    10.001   .     S
Ce48     Ce49    9.999   .     S
Ce48     Ce50    10.001   .     S
Ce50     Ce51    9.999   .     S
Ce50     Er59    10.001   .     S
Ce52     Ce53    9.999   .     S
Ce52     Ce55    10.001   .     S
Ce53     Ce57    10.001   .     S
Ce54     Ce55    9.999   .     S
Ce54     Ce56    10.001   .     S
Ce56     Ce57    9.999   .     S
Ce56     Er58    10.001   .     S
Er58     V60    10.0   1_565     S
Er58     Er59    9.994   .     S
Er59     V60    10.0   1_565     S
V60     Er58    10.0   1_545     S
V60     Er59    10.0   1_545     S
V60     Ti226    10.006   .     S
Ti61     Ti62    9.999   .     S
Ti61     Ti63    9.999   .     S
Ti61     V75    10.006   .     S
Ti62     Ti63    9.999   .     S
Ti62     V195    10.006   .     S
Ti63     V279    10.006   .     S
Ti64     Ti65    9.999   .     S
Ti64     Ti66    9.999   .     S
Ti64     V123    10.006   .     S
Ti65     Ti66    9.999   .     S
Ti65     V147    10.006   .     S
Ti66     V288    10.006   .     S
Ti67     Ti68    9.999   .     S
Ti67     Ti69    9.999   .     S
Ti67     V132    10.006   .     S
Ti68     Ti69    9.999   .     S
Ti68     V231    10.006   .     S
Ti69     V204    10.006   .     S
Ti70     Ti71    9.999   .     S
Ti70     Ti72    9.999   .     S
Ti70     V84    10.006   .     S
Ti71     Ti72    9.999   .     S
Ti71     V156    10.006   .     S
Ti72     V240    10.006   .     S
Er73     V75    10.0   1_556     S
Er73     Er74    9.994   .     S
Er73     Ce89    10.001   .     S
Er74     V75    10.0   1_556     S
Er74     Ce110    10.001   .     S
V75     Er73    10.0   1_554     S
V75     Er74    10.0   1_554     S
Er76     Er77    9.994   .     S
Er76     V78    10.0   .     S
Er76     Ce109    10.001   .     S
Er77     V78    10.0   .     S
Er77     Ce128    10.001   .     S
V78     Ti222    10.006   .     S
Er79     Er80    9.994   .     S
Er79     V81    10.0   .     S
Er79     Ce88    10.001   .     S
Er80     V81    10.0   .     S
Er80     Ce127    10.001   .     S
V81     Ti141    10.006   .     S
Er82     Er83    9.994   .     S
Er82     V84    10.0   1_556     S
Er82     Ce90    10.001   .     S
Er83     V84    10.0   1_556     S
Er83     Ce111    10.001   .     S
V84     Er82    10.0   1_554     S
V84     Er83    10.0   1_554     S
Ce85     Ce86    9.999   .     S
Ce85     Ce90    10.001   .     S
Ce85     Er95    10.001   .     S
Ce86     Ce88    10.001   .     S
Ce86     Er91    10.001   .     S
Ce87     Ce88    9.999   .     S
Ce87     Ce89    10.001   .     S
Ce87     Er116    10.001   .     S
Ce89     Ce90    9.999   .     S
Er91     V93    10.0   1_455     S
Er91     Er92    9.994   .     S
Er92     V93    10.0   1_455     S
Er92     Ce101    10.001   .     S
V93     Er91    10.0   1_655     S
V93     Er92    10.0   1_655     S
V93     Ti225    10.006   .     S
Er94     V96    10.0   1_455     S
Er94     Er95    9.994   .     S
Er94     Ce102    10.001   .     S
Er95     V96    10.0   1_455     S
V96     Er94    10.0   1_655     S
V96     Er95    10.0   1_655     S
V96     Ti228    10.006   .     S
Ce97     Ce98    9.999   .     S
Ce97     Ce101    10.001   .     S
Ce97     Er131    10.001   .     S
Ce98     Ce99    10.001   .     S
Ce98     Er122    10.001   .     S
Ce99     Ce100    9.999   .     S
Ce99     Er113    10.001   .     S
Ce100     Ce102    10.001   .     S
Ce100     Er103    10.001   .     S
Ce101     Ce102    9.999   .     S
Er103     V105    10.0   1_545     S
Er103     Er104    9.994   .     S
Er104     V105    10.0   1_545     S
Er104     Ce106    10.001   .     S
V105     Er103    10.0   1_565     S
V105     Er104    10.0   1_565     S
V105     Ti144    10.006   .     S
Ce106     Ce107    9.999   .     S
Ce106     Ce111    10.001   .     S
Ce107     Ce109    10.001   .     S
Ce107     Er112    10.001   .     S
Ce108     Ce109    9.999   .     S
Ce108     Ce110    10.001   .     S
Ce108     Er119    10.001   .     S
Ce110     Ce111    9.999   .     S
Er112     V114    10.0   1_545     S
Er112     Er113    9.994   .     S
Er113     V114    10.0   1_545     S
V114     Er112    10.0   1_565     S
V114     Er113    10.0   1_565     S
V114     Ti138    10.006   .     S
Er115     V117    10.0   .     S
Er115     Er116    9.994   .     S
Er115     Ce126    10.001   .     S
Er116     V117    10.0   .     S
V117     Ti133    10.006   .     S
Er118     V120    10.0   .     S
Er118     Er119    9.994   .     S
Er118     Ce129    10.001   .     S
Er119     V120    10.0   .     S
V120     Ti218    10.006   .     S
Er121     V123    10.0   .     S
Er121     Er122    9.994   .     S
Er121     Ce125    10.001   .     S
Er122     V123    10.0   .     S
Ce124     Ce125    9.999   .     S
Ce124     Ce127    10.001   .     S
Ce124     Er130    10.001   .     S
Ce125     Ce128    10.001   .     S
Ce126     Ce127    9.999   .     S
Ce126     Ce129    10.001   .     S
Ce128     Ce129    9.999   .     S
Er130     V132    10.0   .     S
Er130     Er131    9.994   .     S
Er131     V132    10.0   .     S
Ti133     Ti135    9.999   .     S
Ti133     Ti134    9.999   .     S
Ti134     Ti135    9.999   .     S
Ti135     V186    10.006   .     S
Ti136     Ti138    9.999   .     S
Ti136     Ti137    9.999   .     S
Ti137     Ti138    9.999   .     S
Ti137     V189    10.006   .     S
Ti139     Ti140    9.999   .     S
Ti139     Ti141    9.999   .     S
Ti139     V153    10.006   .     S
Ti140     Ti141    9.999   .     S
Ti142     Ti144    9.999   .     S
Ti142     Ti143    9.999   .     S
Ti143     Ti144    9.999   .     S
Ti143     V168    10.006   .     S
Er145     V147    10.0   1_565     S
Er145     Er146    9.994   .     S
Er145     Ce161    10.001   .     S
Er146     V147    10.0   1_565     S
Er146     Ce182    10.001   .     S
V147     Er146    10.0   1_545     S
V147     Er145    10.0   1_545     S
Er148     Er149    9.994   .     S
Er148     V150    10.0   .     S
Er148     Ce181    10.001   .     S
Er149     V150    10.0   .     S
Er149     Ce200    10.001   .     S
V150     Ti207    10.006   .     S
Er151     Er152    9.994   .     S
Er151     V153    10.0   .     S
Er151     Ce160    10.001   .     S
Er152     V153    10.0   .     S
Er152     Ce199    10.001   .     S
Er154     Er155    9.994   .     S
Er154     V156    10.0   1_565     S
Er154     Ce162    10.001   .     S
Er155     V156    10.0   1_565     S
Er155     Ce183    10.001   .     S
V156     Er154    10.0   1_545     S
V156     Er155    10.0   1_545     S
Ce157     Ce158    9.999   .     S
Ce157     Ce162    10.001   .     S
Ce157     Er175    10.001   .     S
Ce158     Ce160    10.001   .     S
Ce158     Er163    10.001   .     S
Ce159     Ce160    9.999   .     S
Ce159     Ce161    10.001   .     S
Ce159     Er188    10.001   .     S
Ce161     Ce162    9.999   .     S
Er163     V165    10.0   1_455     S
Er163     Er164    9.994   .     S
Er164     V165    10.0   1_455     S
Er164     Ce173    10.001   .     S
V165     Er164    10.0   1_655     S
V165     Er163    10.0   1_655     S
V165     Ti213    10.006   .     S
Er166     V168    10.0   1_554     S
Er166     Er167    9.994   .     S
Er166     Ce172    10.001   .     S
Er167     V168    10.0   1_554     S
Er167     Ce178    10.001   .     S
V168     Er166    10.0   1_556     S
V168     Er167    10.0   1_556     S
Ce169     Ce170    9.999   .     S
Ce169     Ce173    10.001   .     S
Ce169     Er203    10.001   .     S
Ce170     Ce171    10.001   .     S
Ce170     Er194    10.001   .     S
Ce171     Ce172    9.999   .     S
Ce171     Er185    10.001   .     S
Ce172     Ce174    10.001   .     S
Ce173     Ce174    9.999   .     S
Ce174     Er176    10.001   .     S
Er175     V177    10.0   1_455     S
Er175     Er176    9.994   .     S
Er176     V177    10.0   1_455     S
V177     Er175    10.0   1_655     S
V177     Er176    10.0   1_655     S
V177     Ti216    10.006   .     S
Ce178     Ce179    9.999   .     S
Ce178     Ce183    10.001   .     S
Ce179     Ce181    10.001   .     S
Ce179     Er184    10.001   .     S
Ce180     Ce181    9.999   .     S
Ce180     Ce182    10.001   .     S
Ce180     Er191    10.001   .     S
Ce182     Ce183    9.999   .     S
Er184     V186    10.0   1_554     S
Er184     Er185    9.994   .     S
Er185     V186    10.0   1_554     S
V186     Er184    10.0   1_556     S
V186     Er185    10.0   1_556     S
Er187     V189    10.0   .     S
Er187     Er188    9.994   .     S
Er187     Ce198    10.001   .     S
Er188     V189    10.0   .     S
Er190     V192    10.0   .     S
Er190     Er191    9.994   .     S
Er190     Ce201    10.001   .     S
Er191     V192    10.0   .     S
V192     Ti209    10.006   .     S
Er193     V195    10.0   .     S
Er193     Er194    9.994   .     S
Er193     Ce197    10.001   .     S
Er194     V195    10.0   .     S
Ce196     Ce197    9.999   .     S
Ce196     Ce199    10.001   .     S
Ce196     Er202    10.001   .     S
Ce197     Ce200    10.001   .     S
Ce198     Ce199    9.999   .     S
Ce198     Ce201    10.001   .     S
Ce200     Ce201    9.999   .     S
Er202     V204    10.0   .     S
Er202     Er203    9.994   .     S
Er203     V204    10.0   .     S
Ti205     Ti206    9.999   .     S
Ti205     Ti207    9.999   .     S
Ti205     V234    10.006   .     S
Ti206     Ti207    9.999   .     S
Ti208     Ti210    9.999   .     S
Ti208     Ti209    9.999   .     S
Ti209     Ti210    9.999   .     S
Ti210     V258    10.006   .     S
Ti211     Ti213    9.999   .     S
Ti211     Ti212    9.999   .     S
Ti212     Ti213    9.999   .     S
Ti212     V276    10.006   .     S
Ti214     Ti215    9.999   .     S
Ti214     Ti216    9.999   .     S
Ti215     Ti216    9.999   .     S
Ti215     V270    10.006   .     S
Ti217     Ti219    9.999   .     S
Ti217     Ti218    9.999   .     S
Ti218     Ti219    9.999   .     S
Ti219     V249    10.006   .     S
Ti220     Ti221    9.999   .     S
Ti220     Ti222    9.999   .     S
Ti220     V237    10.006   .     S
Ti221     Ti222    9.999   .     S
Ti223     Ti225    9.999   .     S
Ti223     Ti224    9.999   .     S
Ti224     Ti225    9.999   .     S
Ti224     V273    10.006   .     S
Ti226     Ti228    9.999   .     S
Ti226     Ti227    9.999   .     S
Ti227     Ti228    9.999   .     S
Ti227     V261    10.006   .     S
Er229     V231    10.0   1_655     S
Er229     Er230    9.994   .     S
Er229     Ce252    10.001   .     S
Er230     V231    10.0   1_655     S
Er230     Ce245    10.001   .     S
V231     Er230    10.0   1_455     S
V231     Er229    10.0   1_455     S
Er232     Er233    9.994   .     S
Er232     V234    10.0   .     S
Er232     Ce244    10.001   .     S
Er233     V234    10.0   .     S
Er233     Ce284    10.001   .     S
Er235     Er236    9.994   .     S
Er235     V237    10.0   .     S
Er235     Ce255    10.001   .     S
Er236     V237    10.0   .     S
Er236     Ce283    10.001   .     S
Er238     V240    10.0   1_655     S
Er238     Er239    9.994   .     S
Er238     Ce253    10.001   .     S
Er239     V240    10.0   1_655     S
Er239     Ce246    10.001   .     S
V240     Er238    10.0   1_455     S
V240     Er239    10.0   1_455     S
Ce241     Ce242    9.999   .     S
Ce241     Ce246    10.001   .     S
Ce241     Er260    10.001   .     S
Ce242     Ce244    10.001   .     S
Ce242     Er247    10.001   .     S
Ce243     Ce244    9.999   .     S
Ce243     Ce245    10.001   .     S
Ce243     Er275    10.001   .     S
Ce245     Ce246    9.999   .     S
Er247     V249    10.0   1_554     S
Er247     Er248    9.994   .     S
Er248     V249    10.0   1_554     S
Er248     Ce264    10.001   .     S
V249     Er248    10.0   1_556     S
V249     Er247    10.0   1_556     S
Ce250     Ce251    9.999   .     S
Ce250     Ce255    10.001   .     S
Ce250     Er256    10.001   .     S
Ce251     Ce253    10.001   .     S
Ce251     Er268    10.001   .     S
Ce252     Ce253    9.999   .     S
Ce252     Ce254    10.001   .     S
Ce254     Ce255    9.999   .     S
Ce254     Er272    10.001   .     S
Er256     V258    10.0   1_545     S
Er256     Er257    9.994   .     S
Er257     V258    10.0   1_545     S
Er257     Ce266    10.001   .     S
V258     Er257    10.0   1_565     S
V258     Er256    10.0   1_565     S
Er259     V261    10.0   1_554     S
Er259     Er260    9.994   .     S
Er259     Ce265    10.001   .     S
Er260     V261    10.0   1_554     S
V261     Er260    10.0   1_556     S
V261     Er259    10.0   1_556     S
Ce262     Ce263    9.999   .     S
Ce262     Ce266    10.001   .     S
Ce262     Er287    10.001   .     S
Ce263     Ce264    10.001   .     S
Ce263     Er278    10.001   .     S
Ce264     Ce265    9.999   .     S
Ce265     Ce267    10.001   .     S
Ce266     Ce267    9.999   .     S
Ce267     Er269    10.001   .     S
Er268     V270    10.0   1_545     S
Er268     Er269    9.994   .     S
Er269     V270    10.0   1_545     S
V270     Er268    10.0   1_565     S
V270     Er269    10.0   1_565     S
Er271     V273    10.0   .     S
Er271     Er272    9.994   .     S
Er271     Ce282    10.001   .     S
Er272     V273    10.0   .     S
Er274     V276    10.0   .     S
Er274     Er275    9.994   .     S
Er274     Ce285    10.001   .     S
Er275     V276    10.0   .     S
Er277     V279    10.0   .     S
Er277     Er278    9.994   .     S
Er277     Ce281    10.001   .     S
Er278     V279    10.0   .     S
Ce280     Ce281    9.999   .     S
Ce280     Ce283    10.001   .     S
Ce280     Er286    10.001   .     S
Ce281     Ce284    10.001   .     S
Ce282     Ce283    9.999   .     S
Ce282     Ce285    10.001   .     S
Ce284     Ce285    9.999   .     S
Er286     V288    10.0   .     S
Er286     Er287    9.994   .     S
Er287     V288    10.0   .     S
