data_dnf
_audit_creation_date              2020-02-04
_audit_creation_method            'Pymatgen'
_symmetry_space_group_name_H-M    'P1'
_symmetry_Int_Tables_number       1
loop_
_symmetry_equiv_pos_as_xyz
  x,y,z
_cell_length_a                    56.7333
_cell_length_b                    56.7333
_cell_length_c                    56.7333
_cell_angle_alpha                 90.0
_cell_angle_beta                 90.0
_cell_angle_gamma                 90.0
loop_
_atom_site_label
_atom_site_type_symbol
_atom_site_fract_x
_atom_site_fract_y
_atom_site_fract_z
V1     V     0.9992   0.2507   0.9992
V2     V     0.9992   0.9992   0.2507
Er3     Er     0.5   0.5   0.5
Ti4     Ti     0.6239   0.3761   0.5
Ti5     Ti     0.3761   0.6239   0.5
Ti6     Ti     0.3761   0.5   0.6239
Ti7     Ti     0.6239   0.5   0.3761
Ti8     Ti     0.5   0.6239   0.3761
Ti9     Ti     0.5   0.3761   0.6239
V10     V     0.0008   0.2492   0.5008
Er11     Er     0.0   0.0   0.5
Ti12     Ti     0.1239   0.0   0.3761
Ti13     Ti     0.0   0.1239   0.3761
Ti14     Ti     0.1239   0.8761   0.5
Ti15     Ti     0.8761   0.1239   0.5
Ti16     Ti     0.8761   0.0   0.6239
Ti17     Ti     0.0   0.8761   0.6239
V18     V     0.2492   0.0008   0.5008
Er19     Er     0.0   0.5   0.0
Ti20     Ti     0.1239   0.3761   0.0
Ti21     Ti     0.0   0.3761   0.1239
Ti22     Ti     0.8761   0.5   0.1239
Ti23     Ti     0.1239   0.5   0.8761
Ti24     Ti     0.0   0.6239   0.8761
Ti25     Ti     0.8761   0.6239   0.0
V26     V     0.0008   0.5008   0.2492
V27     V     0.2492   0.5008   0.0008
Er28     Er     0.5   0.0   0.0
Ti29     Ti     0.3761   0.1239   0.0
Ti30     Ti     0.3761   0.0   0.1239
Ti31     Ti     0.5   0.1239   0.8761
Ti32     Ti     0.5   0.8761   0.1239
Ti33     Ti     0.6239   0.0   0.8761
Ti34     Ti     0.6239   0.8761   0.0
V35     V     0.5008   0.0008   0.2492
V36     V     0.5008   0.2492   0.0008
V37     V     0.4992   0.4992   0.2508
Er38     Er     0.25   0.5   0.25
Ti39     Ti     0.25   0.3761   0.1261
Ti40     Ti     0.3739   0.5   0.1261
Ti41     Ti     0.1261   0.3761   0.25
Ti42     Ti     0.1261   0.5   0.3739
Ti43     Ti     0.3739   0.6239   0.25
Ti44     Ti     0.25   0.6239   0.3739
V45     V     0.2507   0.4992   0.4992
Er46     Er     0.5   0.25   0.25
Ti47     Ti     0.3761   0.25   0.1261
Ti48     Ti     0.5   0.1261   0.3739
Ti49     Ti     0.3761   0.1261   0.25
Ti50     Ti     0.6239   0.3739   0.25
Ti51     Ti     0.6239   0.25   0.3739
Ti52     Ti     0.5   0.3739   0.1261
V53     V     0.4992   0.2507   0.4992
Er54     Er     0.25   0.25   0.5
Ti55     Ti     0.1261   0.3739   0.5
Ti56     Ti     0.1261   0.25   0.3761
Ti57     Ti     0.3739   0.25   0.6239
Ti58     Ti     0.25   0.1261   0.3761
Ti59     Ti     0.3739   0.1261   0.5
Ti60     Ti     0.25   0.3739   0.6239
V61     V     0.2507   0.2507   0.2507
V62     V     0.2507   0.9992   0.9992
V63     V     0.7492   0.5008   0.5008
V64     V     0.5008   0.5008   0.7492
V65     V     0.5008   0.7492   0.5008
V66     V     0.7492   0.7492   0.7492
V67     V     0.9992   0.4992   0.7508
V68     V     0.9992   0.7508   0.4992
Er69     Er     0.75   0.75   0.5
Ti70     Ti     0.6261   0.8739   0.5
Ti71     Ti     0.75   0.6261   0.3761
Ti72     Ti     0.8739   0.6261   0.5
Ti73     Ti     0.6261   0.75   0.3761
Ti74     Ti     0.8739   0.75   0.6239
Ti75     Ti     0.75   0.8739   0.6239
V76     V     0.7508   0.7508   0.2507
V77     V     0.7492   0.0008   0.0008
V78     V     0.7508   0.4992   0.9992
Er79     Er     0.75   0.25   0.0
Ti80     Ti     0.6261   0.25   0.8761
Ti81     Ti     0.75   0.1261   0.8761
Ti82     Ti     0.8739   0.1261   0.0
Ti83     Ti     0.8739   0.25   0.1239
Ti84     Ti     0.6261   0.3739   0.0
Ti85     Ti     0.75   0.3739   0.1239
V86     V     0.7492   0.2492   0.2492
Er87     Er     0.75   0.0   0.25
Ti88     Ti     0.6261   0.8761   0.25
Ti89     Ti     0.75   0.8761   0.1261
Ti90     Ti     0.75   0.1239   0.3739
Ti91     Ti     0.8739   0.0   0.1261
Ti92     Ti     0.8739   0.1239   0.25
Ti93     Ti     0.6261   0.0   0.3739
V94     V     0.7508   0.9992   0.4992
Er95     Er     0.75   0.5   0.75
Ti96     Ti     0.6261   0.3761   0.75
Ti97     Ti     0.8739   0.5   0.6261
Ti98     Ti     0.6261   0.5   0.8739
Ti99     Ti     0.75   0.3761   0.6261
Ti100     Ti     0.75   0.6239   0.8739
Ti101     Ti     0.8739   0.6239   0.75
V102     V     0.7508   0.2507   0.7508
V103     V     0.0008   0.0008   0.7492
Er104     Er     0.0   0.25   0.75
Ti105     Ti     0.8761   0.25   0.6261
Ti106     Ti     0.0   0.1261   0.8739
Ti107     Ti     0.8761   0.1261   0.75
Ti108     Ti     0.1239   0.25   0.8739
Ti109     Ti     0.1239   0.3739   0.75
Ti110     Ti     0.0   0.3739   0.6261
V111     V     0.2492   0.2492   0.7492
Er112     Er     0.25   0.0   0.75
Ti113     Ti     0.25   0.8761   0.6261
Ti114     Ti     0.3739   0.0   0.6261
Ti115     Ti     0.1261   0.8761   0.75
Ti116     Ti     0.25   0.1239   0.8739
Ti117     Ti     0.1261   0.0   0.8739
Ti118     Ti     0.3739   0.1239   0.75
V119     V     0.4992   0.9992   0.7508
Er120     Er     0.5   0.75   0.75
Ti121     Ti     0.5   0.6261   0.8739
Ti122     Ti     0.3761   0.75   0.6261
Ti123     Ti     0.5   0.8739   0.6261
Ti124     Ti     0.6239   0.75   0.8739
Ti125     Ti     0.3761   0.6261   0.75
Ti126     Ti     0.6239   0.8739   0.75
V127     V     0.2507   0.7508   0.7508
Er128     Er     0.25   0.75   0.0
Ti129     Ti     0.1261   0.8739   0.0
Ti130     Ti     0.25   0.6261   0.8761
Ti131     Ti     0.25   0.8739   0.1239
Ti132     Ti     0.1261   0.75   0.8761
Ti133     Ti     0.3739   0.75   0.1239
Ti134     Ti     0.3739   0.6261   0.0
V135     V     0.4992   0.7508   0.9992
V136     V     0.0008   0.7492   0.0008
Er137     Er     0.0   0.75   0.25
Ti138     Ti     0.0   0.6261   0.3739
Ti139     Ti     0.0   0.8739   0.1261
Ti140     Ti     0.8761   0.6261   0.25
Ti141     Ti     0.1239   0.8739   0.25
Ti142     Ti     0.8761   0.75   0.1261
Ti143     Ti     0.1239   0.75   0.3739
V144     V     0.2492   0.7492   0.2492
loop_
_geom_bond_atom_site_label_1
_geom_bond_atom_site_label_2
_geom_bond_distance
_geom_bond_site_symmetry_2
_ccdc_geom_bond_type
V1     Ti21    10.029   1_656     S
V1     Ti20    10.029   1_656     S
V1     Ti83    10.029   1_556     S
V1     Ti82    10.029   1_556     S
V1     Ti106    10.029   1_655     S
V1     Ti108    10.029   1_655     S
V2     Ti13    10.029   1_665     S
V2     Ti12    10.029   1_665     S
V2     Ti139    10.029   1_655     S
V2     Ti141    10.029   1_655     S
V2     Ti91    10.029   1_565     S
V2     Ti92    10.029   1_565     S
Er3     Ti7    9.942   .     S
Er3     Ti8    9.942   .     S
Er3     Ti5    9.942   .     S
Er3     Ti6    9.942   .     S
Er3     Ti4    9.942   .     S
Er3     Ti9    9.942   .     S
Ti4     V53    10.029   .     S
Ti4     V63    10.029   .     S
Ti5     V45    10.029   .     S
Ti5     V65    10.029   .     S
Ti6     V45    10.029   .     S
Ti6     V64    10.029   .     S
Ti7     V37    10.029   .     S
Ti7     V63    10.029   .     S
Ti8     V37    10.029   .     S
Ti8     V65    10.029   .     S
Ti9     V53    10.029   .     S
Ti9     V64    10.029   .     S
V10     Ti55    10.029   .     S
V10     Ti56    10.029   .     S
V10     Ti110    10.029   .     S
V10     Ti105    10.029   1_455     S
V10     Ti13    10.029   .     S
V10     Ti15    10.029   1_455     S
Er11     Ti16    9.942   1_455     S
Er11     Ti17    9.942   1_545     S
Er11     Ti14    9.942   1_545     S
Er11     Ti15    9.942   1_455     S
Er11     Ti12    9.942   .     S
Er11     Ti13    9.942   .     S
Ti12     V2    10.029   1_445     S
Ti12     V18    10.029   .     S
Ti13     V2    10.029   1_445     S
Ti14     V18    10.029   1_565     S
Ti14     V68    10.029   1_455     S
Ti14     Er11    9.942   1_565     S
Ti15     V10    10.029   1_655     S
Ti15     V94    10.029   1_545     S
Ti15     Er11    9.942   1_655     S
Ti16     V94    10.029   1_545     S
Ti16     V103    10.029   1_655     S
Ti16     Er11    9.942   1_655     S
Ti17     V68    10.029   1_455     S
Ti17     V103    10.029   1_565     S
Ti17     Er11    9.942   1_565     S
V18     Ti114    10.029   .     S
V18     Ti113    10.029   1_545     S
V18     Ti59    10.029   .     S
V18     Ti58    10.029   .     S
V18     Ti14    10.029   1_545     S
Er19     Ti24    9.942   1_554     S
Er19     Ti25    9.942   1_455     S
Er19     Ti22    9.942   1_455     S
Er19     Ti23    9.942   1_554     S
Er19     Ti20    9.942   .     S
Er19     Ti21    9.942   .     S
Ti20     V1    10.029   1_454     S
Ti20     V27    10.029   .     S
Ti21     V1    10.029   1_454     S
Ti21     V26    10.029   .     S
Ti22     V26    10.029   1_655     S
Ti22     V78    10.029   1_554     S
Ti22     Er19    9.942   1_655     S
Ti23     V27    10.029   1_556     S
Ti23     V67    10.029   1_455     S
Ti23     Er19    9.942   1_556     S
Ti24     V67    10.029   1_455     S
Ti24     V136    10.029   1_556     S
Ti24     Er19    9.942   1_556     S
Ti25     V78    10.029   1_554     S
Ti25     V136    10.029   1_655     S
Ti25     Er19    9.942   1_655     S
V26     Ti41    10.029   .     S
V26     Ti42    10.029   .     S
V26     Ti140    10.029   1_455     S
V26     Ti138    10.029   .     S
V26     Ti22    10.029   1_455     S
V27     Ti39    10.029   .     S
V27     Ti40    10.029   .     S
V27     Ti134    10.029   .     S
V27     Ti130    10.029   1_554     S
V27     Ti23    10.029   1_554     S
Er28     Ti33    9.942   1_554     S
Er28     Ti34    9.942   1_545     S
Er28     Ti31    9.942   1_554     S
Er28     Ti32    9.942   1_545     S
Er28     Ti29    9.942   .     S
Er28     Ti30    9.942   .     S
Ti29     V36    10.029   .     S
Ti29     V62    10.029   1_544     S
Ti30     V35    10.029   .     S
Ti30     V62    10.029   1_544     S
Ti31     V36    10.029   1_556     S
Ti31     V119    10.029   1_545     S
Ti31     Er28    9.942   1_556     S
Ti32     V35    10.029   1_565     S
Ti32     V135    10.029   1_554     S
Ti32     Er28    9.942   1_565     S
Ti33     V77    10.029   1_556     S
Ti33     V119    10.029   1_545     S
Ti33     Er28    9.942   1_556     S
Ti34     V77    10.029   1_565     S
Ti34     V135    10.029   1_554     S
Ti34     Er28    9.942   1_565     S
V35     Ti88    10.029   1_545     S
V35     Ti93    10.029   .     S
V35     Ti48    10.029   .     S
V35     Ti49    10.029   .     S
V35     Ti32    10.029   1_545     S
V36     Ti84    10.029   .     S
V36     Ti80    10.029   1_554     S
V36     Ti47    10.029   .     S
V36     Ti52    10.029   .     S
V36     Ti31    10.029   1_554     S
V37     Ti50    10.029   .     S
V37     Ti52    10.029   .     S
V37     Ti40    10.029   .     S
V37     Ti43    10.029   .     S
Er38     Ti42    9.942   .     S
Er38     Ti41    9.942   .     S
Er38     Ti43    9.942   .     S
Er38     Ti40    9.942   .     S
Er38     Ti44    9.942   .     S
Er38     Ti39    9.942   .     S
Ti39     V61    10.029   .     S
Ti41     V61    10.029   .     S
Ti42     V45    10.029   .     S
Ti43     V144    10.029   .     S
Ti44     V45    10.029   .     S
Ti44     V144    10.029   .     S
V45     Ti60    10.029   .     S
V45     Ti55    10.029   .     S
Er46     Ti49    9.942   .     S
Er46     Ti50    9.942   .     S
Er46     Ti51    9.942   .     S
Er46     Ti48    9.942   .     S
Er46     Ti52    9.942   .     S
Er46     Ti47    9.942   .     S
Ti47     V61    10.029   .     S
Ti48     V53    10.029   .     S
Ti49     V61    10.029   .     S
Ti50     V86    10.029   .     S
Ti51     V53    10.029   .     S
Ti51     V86    10.029   .     S
V53     Ti57    10.029   .     S
V53     Ti59    10.029   .     S
Er54     Ti60    9.942   .     S
Er54     Ti59    9.942   .     S
Er54     Ti57    9.942   .     S
Er54     Ti58    9.942   .     S
Er54     Ti56    9.942   .     S
Er54     Ti55    9.942   .     S
Ti56     V61    10.029   .     S
Ti57     V111    10.029   .     S
Ti58     V61    10.029   .     S
Ti60     V111    10.029   .     S
V62     Ti30    10.029   1_566     S
V62     Ti29    10.029   1_566     S
V62     Ti117    10.029   1_565     S
V62     Ti116    10.029   1_565     S
V62     Ti131    10.029   1_556     S
V62     Ti129    10.029   1_556     S
V63     Ti71    10.029   .     S
V63     Ti72    10.029   .     S
V63     Ti99    10.029   .     S
V63     Ti97    10.029   .     S
V64     Ti96    10.029   .     S
V64     Ti98    10.029   .     S
V64     Ti125    10.029   .     S
V64     Ti121    10.029   .     S
V65     Ti122    10.029   .     S
V65     Ti123    10.029   .     S
V65     Ti70    10.029   .     S
V65     Ti73    10.029   .     S
V66     Ti74    10.029   .     S
V66     Ti75    10.029   .     S
V66     Ti126    10.029   .     S
V66     Ti124    10.029   .     S
V66     Ti100    10.029   .     S
V66     Ti101    10.029   .     S
V67     Ti109    10.029   1_655     S
V67     Ti110    10.029   1_655     S
V67     Ti97    10.029   .     S
V67     Ti101    10.029   .     S
V67     Ti24    10.029   1_655     S
V67     Ti23    10.029   1_655     S
V68     Ti74    10.029   .     S
V68     Ti72    10.029   .     S
V68     Ti138    10.029   1_655     S
V68     Ti143    10.029   1_655     S
V68     Ti17    10.029   1_655     S
V68     Ti14    10.029   1_655     S
Er69     Ti70    9.942   .     S
Er69     Ti73    9.942   .     S
Er69     Ti74    9.942   .     S
Er69     Ti75    9.942   .     S
Er69     Ti72    9.942   .     S
Er69     Ti71    9.942   .     S
Ti70     V94    10.029   .     S
Ti71     V76    10.029   .     S
Ti73     V76    10.029   .     S
Ti75     V94    10.029   .     S
V76     Ti88    10.029   .     S
V76     Ti89    10.029   .     S
V76     Ti142    10.029   .     S
V76     Ti140    10.029   .     S
V77     Ti91    10.029   .     S
V77     Ti89    10.029   1_545     S
V77     Ti81    10.029   1_554     S
V77     Ti82    10.029   .     S
V77     Ti33    10.029   1_554     S
V77     Ti34    10.029   1_545     S
V78     Ti100    10.029   .     S
V78     Ti98    10.029   .     S
V78     Ti25    10.029   1_556     S
V78     Ti22    10.029   1_556     S
V78     Ti84    10.029   1_556     S
V78     Ti85    10.029   1_556     S
Er79     Ti83    9.942   .     S
Er79     Ti85    9.942   .     S
Er79     Ti82    9.942   .     S
Er79     Ti81    9.942   1_554     S
Er79     Ti84    9.942   .     S
Er79     Ti80    9.942   1_554     S
Ti80     V36    10.029   1_556     S
Ti80     V102    10.029   .     S
Ti80     Er79    9.942   1_556     S
Ti81     V77    10.029   1_556     S
Ti81     V102    10.029   .     S
Ti81     Er79    9.942   1_556     S
Ti82     V1    10.029   1_554     S
Ti83     V1    10.029   1_554     S
Ti83     V86    10.029   .     S
Ti84     V78    10.029   1_554     S
Ti85     V78    10.029   1_554     S
Ti85     V86    10.029   .     S
V86     Ti90    10.029   .     S
V86     Ti92    10.029   .     S
Er87     Ti91    9.942   .     S
Er87     Ti92    9.942   .     S
Er87     Ti90    9.942   .     S
Er87     Ti89    9.942   1_545     S
Er87     Ti93    9.942   .     S
Er87     Ti88    9.942   1_545     S
Ti88     V35    10.029   1_565     S
Ti88     Er87    9.942   1_565     S
Ti89     V77    10.029   1_565     S
Ti89     Er87    9.942   1_565     S
Ti90     V94    10.029   1_545     S
Ti91     V2    10.029   1_545     S
Ti92     V2    10.029   1_545     S
Ti93     V94    10.029   1_545     S
V94     Ti93    10.029   1_565     S
V94     Ti90    10.029   1_565     S
V94     Ti16    10.029   1_565     S
V94     Ti15    10.029   1_565     S
Er95     Ti100    9.942   .     S
Er95     Ti101    9.942   .     S
Er95     Ti96    9.942   .     S
Er95     Ti98    9.942   .     S
Er95     Ti97    9.942   .     S
Er95     Ti99    9.942   .     S
Ti96     V102    10.029   .     S
Ti99     V102    10.029   .     S
V102     Ti105    10.029   .     S
V102     Ti107    10.029   .     S
V103     Ti115    10.029   1_545     S
V103     Ti117    10.029   .     S
V103     Ti106    10.029   .     S
V103     Ti107    10.029   1_455     S
V103     Ti17    10.029   1_545     S
V103     Ti16    10.029   1_455     S
Er104     Ti108    9.942   .     S
Er104     Ti106    9.942   .     S
Er104     Ti109    9.942   .     S
Er104     Ti107    9.942   1_455     S
Er104     Ti110    9.942   .     S
Er104     Ti105    9.942   1_455     S
Ti105     V10    10.029   1_655     S
Ti105     Er104    9.942   1_655     S
Ti106     V1    10.029   1_455     S
Ti107     V103    10.029   1_655     S
Ti107     Er104    9.942   1_655     S
Ti108     V1    10.029   1_455     S
Ti108     V111    10.029   .     S
Ti109     V67    10.029   1_455     S
Ti109     V111    10.029   .     S
Ti110     V67    10.029   1_455     S
V111     Ti118    10.029   .     S
V111     Ti116    10.029   .     S
Er112     Ti118    9.942   .     S
Er112     Ti116    9.942   .     S
Er112     Ti117    9.942   .     S
Er112     Ti115    9.942   1_545     S
Er112     Ti113    9.942   1_545     S
Er112     Ti114    9.942   .     S
Ti113     V18    10.029   1_565     S
Ti113     V127    10.029   .     S
Ti113     Er112    9.942   1_565     S
Ti114     V119    10.029   1_545     S
Ti115     V103    10.029   1_565     S
Ti115     V127    10.029   .     S
Ti115     Er112    9.942   1_565     S
Ti116     V62    10.029   1_545     S
Ti117     V62    10.029   1_545     S
Ti118     V119    10.029   1_545     S
V119     Ti123    10.029   .     S
V119     Ti126    10.029   .     S
V119     Ti33    10.029   1_565     S
V119     Ti31    10.029   1_565     S
V119     Ti114    10.029   1_565     S
V119     Ti118    10.029   1_565     S
Er120     Ti125    9.942   .     S
Er120     Ti121    9.942   .     S
Er120     Ti124    9.942   .     S
Er120     Ti126    9.942   .     S
Er120     Ti123    9.942   .     S
Er120     Ti122    9.942   .     S
Ti121     V135    10.029   .     S
Ti122     V127    10.029   .     S
Ti124     V135    10.029   .     S
Ti125     V127    10.029   .     S
V127     Ti130    10.029   .     S
V127     Ti132    10.029   .     S
Er128     Ti131    9.942   .     S
Er128     Ti129    9.942   .     S
Er128     Ti132    9.942   1_554     S
Er128     Ti133    9.942   .     S
Er128     Ti134    9.942   .     S
Er128     Ti130    9.942   1_554     S
Ti129     V62    10.029   1_554     S
Ti129     V136    10.029   .     S
Ti130     V27    10.029   1_556     S
Ti130     Er128    9.942   1_556     S
Ti131     V62    10.029   1_554     S
Ti131     V144    10.029   .     S
Ti132     V136    10.029   1_556     S
Ti132     Er128    9.942   1_556     S
Ti133     V135    10.029   1_554     S
Ti133     V144    10.029   .     S
Ti134     V135    10.029   1_554     S
V135     Ti133    10.029   1_556     S
V135     Ti134    10.029   1_556     S
V135     Ti34    10.029   1_556     S
V135     Ti32    10.029   1_556     S
V136     Ti132    10.029   1_554     S
V136     Ti139    10.029   .     S
V136     Ti142    10.029   1_455     S
V136     Ti24    10.029   1_554     S
V136     Ti25    10.029   1_455     S
Er137     Ti143    9.942   .     S
Er137     Ti141    9.942   .     S
Er137     Ti139    9.942   .     S
Er137     Ti142    9.942   1_455     S
Er137     Ti140    9.942   1_455     S
Er137     Ti138    9.942   .     S
Ti138     V68    10.029   1_455     S
Ti139     V2    10.029   1_455     S
Ti140     V26    10.029   1_655     S
Ti140     Er137    9.942   1_655     S
Ti141     V2    10.029   1_455     S
Ti141     V144    10.029   .     S
Ti142     V136    10.029   1_655     S
Ti142     Er137    9.942   1_655     S
Ti143     V68    10.029   1_455     S
Ti143     V144    10.029   .     S
