data_dng
_audit_creation_date              2020-02-04
_audit_creation_method            'Pymatgen'
_symmetry_space_group_name_H-M    'P1'
_symmetry_Int_Tables_number       1
loop_
_symmetry_equiv_pos_as_xyz
  x,y,z
_cell_length_a                    46.1904
_cell_length_b                    46.1904
_cell_length_c                    46.1904
_cell_angle_alpha                 90.0
_cell_angle_beta                 90.0
_cell_angle_gamma                 90.0
loop_
_atom_site_label
_atom_site_type_symbol
_atom_site_fract_x
_atom_site_fract_y
_atom_site_fract_z
Ti1     Ti     0.8382   0.7452   0.9118
Ti2     Ti     0.9118   0.7452   0.8382
Ti3     Ti     0.7452   0.9118   0.8382
Ti4     Ti     0.7452   0.8382   0.9118
Ti5     Ti     0.9118   0.9118   0.0048
Ti6     Ti     0.8382   0.8382   0.0048
Er7     Er     0.7313   0.0187   0.0187
Ti8     Ti     0.9118   0.0048   0.9118
Ti9     Ti     0.8382   0.0048   0.8382
Ti10     Ti     0.8382   0.9118   0.7452
Ti11     Ti     0.9118   0.8382   0.7452
Ti12     Ti     0.0048   0.9118   0.9118
Ti13     Ti     0.0048   0.8382   0.8382
Er14     Er     0.0187   0.0187   0.7313
Er15     Er     0.0187   0.7313   0.0187
Er16     Er     0.7313   0.7313   0.7313
V17     V     0.0   0.0   0.0
Er18     Er     0.2313   0.2313   0.7313
Ti19     Ti     0.2452   0.3382   0.9118
Ti20     Ti     0.2452   0.4118   0.8382
Ti21     Ti     0.4118   0.3382   0.7452
Ti22     Ti     0.3382   0.4118   0.7452
Er23     Er     0.5187   0.5187   0.7313
Ti24     Ti     0.3382   0.5048   0.8382
Ti25     Ti     0.4118   0.5048   0.9118
Er26     Er     0.2313   0.5187   0.0187
Ti27     Ti     0.5048   0.4118   0.9118
Ti28     Ti     0.5048   0.3382   0.8382
Ti29     Ti     0.3382   0.3382   0.0048
Ti30     Ti     0.4118   0.4118   0.0048
Ti31     Ti     0.3382   0.2452   0.9118
Ti32     Ti     0.4118   0.2452   0.8382
Er33     Er     0.5187   0.2313   0.0187
Ti34     Ti     0.1618   0.7548   0.5882
Ti35     Ti     0.0882   0.7548   0.6618
Er36     Er     0.9813   0.7687   0.4813
Ti37     Ti     0.0882   0.6618   0.7548
Ti38     Ti     0.1618   0.5882   0.7548
Ti39     Ti     0.9952   0.6618   0.6618
Ti40     Ti     0.9952   0.5882   0.5882
Er41     Er     0.9813   0.4813   0.7687
Er42     Er     0.2687   0.7687   0.7687
Ti43     Ti     0.0882   0.4952   0.5882
Ti44     Ti     0.1618   0.4952   0.6618
Ti45     Ti     0.2548   0.5882   0.6618
Ti46     Ti     0.2548   0.6618   0.5882
Ti47     Ti     0.0882   0.5882   0.4952
Ti48     Ti     0.1618   0.6618   0.4952
Er49     Er     0.2687   0.4813   0.4813
V50     V     0.0   0.75   0.75
V51     V     0.25   0.75   0.5
V52     V     0.25   0.5   0.75
Er53     Er     0.7687   0.7687   0.2687
Ti54     Ti     0.7548   0.6618   0.0882
Ti55     Ti     0.7548   0.5882   0.1618
Ti56     Ti     0.6618   0.6618   0.9952
Ti57     Ti     0.5882   0.5882   0.9952
Er58     Er     0.7687   0.4813   0.9813
Ti59     Ti     0.6618   0.7548   0.0882
Ti60     Ti     0.5882   0.7548   0.1618
Er61     Er     0.4813   0.7687   0.9813
Ti62     Ti     0.4952   0.5882   0.0882
Ti63     Ti     0.4952   0.6618   0.1618
Ti64     Ti     0.5882   0.6618   0.2548
Ti65     Ti     0.6618   0.5882   0.2548
Ti66     Ti     0.6618   0.4952   0.1618
Ti67     Ti     0.5882   0.4952   0.0882
Er68     Er     0.4813   0.4813   0.2687
V69     V     0.75   0.75   0.0
V70     V     0.5   0.75   0.25
V71     V     0.75   0.5   0.25
Ti72     Ti     0.4118   0.8382   0.2452
Ti73     Ti     0.3382   0.9118   0.2452
Ti74     Ti     0.4118   0.9118   0.5048
Ti75     Ti     0.3382   0.8382   0.5048
Ti76     Ti     0.2452   0.9118   0.3382
Ti77     Ti     0.2452   0.8382   0.4118
Ti78     Ti     0.5048   0.9118   0.4118
Ti79     Ti     0.5048   0.8382   0.3382
Ti80     Ti     0.3382   0.0048   0.3382
Ti81     Ti     0.4118   0.0048   0.4118
Er82     Er     0.5187   0.0187   0.2313
Er83     Er     0.2313   0.0187   0.5187
Ti84     Ti     0.3382   0.7452   0.4118
Ti85     Ti     0.4118   0.7452   0.3382
Er86     Er     0.5187   0.7313   0.5187
Er87     Er     0.2313   0.7313   0.2313
Er88     Er     0.7687   0.9813   0.4813
Ti89     Ti     0.7548   0.1618   0.5882
Ti90     Ti     0.7548   0.0882   0.6618
Er91     Er     0.7687   0.2687   0.7687
Ti92     Ti     0.5882   0.1618   0.7548
Ti93     Ti     0.6618   0.0882   0.7548
Ti94     Ti     0.5882   0.0882   0.4952
Ti95     Ti     0.6618   0.1618   0.4952
Ti96     Ti     0.6618   0.9952   0.6618
Ti97     Ti     0.5882   0.9952   0.5882
Ti98     Ti     0.6618   0.2548   0.5882
Ti99     Ti     0.5882   0.2548   0.6618
Er100     Er     0.4813   0.9813   0.7687
Ti101     Ti     0.4952   0.1618   0.6618
Ti102     Ti     0.4952   0.0882   0.5882
Er103     Er     0.4813   0.2687   0.4813
V104     V     0.75   0.0   0.75
V105     V     0.75   0.25   0.5
V106     V     0.5   0.25   0.75
Ti107     Ti     0.8382   0.2452   0.4118
Ti108     Ti     0.9118   0.2452   0.3382
Ti109     Ti     0.9118   0.3382   0.2452
Ti110     Ti     0.8382   0.4118   0.2452
Ti111     Ti     0.0048   0.3382   0.3382
Ti112     Ti     0.0048   0.4118   0.4118
Ti113     Ti     0.8382   0.5048   0.3382
Ti114     Ti     0.9118   0.5048   0.4118
Er115     Er     0.0187   0.5187   0.2313
Ti116     Ti     0.9118   0.4118   0.5048
Ti117     Ti     0.8382   0.3382   0.5048
Er118     Er     0.0187   0.2313   0.5187
Ti119     Ti     0.7452   0.4118   0.3382
Ti120     Ti     0.7452   0.3382   0.4118
Er121     Er     0.7313   0.5187   0.5187
Er122     Er     0.7313   0.2313   0.2313
Ti123     Ti     0.2548   0.0882   0.1618
Ti124     Ti     0.2548   0.1618   0.0882
Ti125     Ti     0.9952   0.0882   0.0882
Ti126     Ti     0.9952   0.1618   0.1618
Ti127     Ti     0.0882   0.2548   0.1618
Ti128     Ti     0.1618   0.2548   0.0882
Ti129     Ti     0.1618   0.1618   0.9952
Ti130     Ti     0.0882   0.0882   0.9952
Ti131     Ti     0.0882   0.1618   0.2548
Ti132     Ti     0.1618   0.0882   0.2548
Er133     Er     0.9813   0.9813   0.2687
Ti134     Ti     0.0882   0.9952   0.0882
Ti135     Ti     0.1618   0.9952   0.1618
Er136     Er     0.2687   0.9813   0.9813
Er137     Er     0.2687   0.2687   0.2687
Er138     Er     0.9813   0.2687   0.9813
V139     V     0.0   0.25   0.25
V140     V     0.25   0.0   0.25
V141     V     0.0   0.5   0.5
V142     V     0.5   0.0   0.5
V143     V     0.5   0.5   0.0
V144     V     0.25   0.25   0.0
loop_
_geom_bond_atom_site_label_1
_geom_bond_atom_site_label_2
_geom_bond_distance
_geom_bond_site_symmetry_2
_ccdc_geom_bond_type
Ti1     V50    10.574   1_655     S
Ti1     Er15    9.713   1_656     S
Ti1     Er16    9.713   .     S
Ti2     V69    10.574   1_556     S
Ti2     Er15    9.713   1_656     S
Ti2     Er16    9.713   .     S
Ti3     V69    10.574   1_556     S
Ti3     Er7    9.713   1_566     S
Ti3     Er16    9.713   .     S
Ti4     V104    10.574   1_565     S
Ti4     Er7    9.713   1_566     S
Ti4     Er16    9.713   .     S
Ti5     V69    10.574   .     S
Ti5     Er15    9.713   1_655     S
Ti5     Er7    9.713   1_565     S
Ti6     V17    10.574   1_665     S
Ti6     Er15    9.713   1_655     S
Ti6     Er7    9.713   1_565     S
Er7     Ti5    9.713   1_545     S
Er7     Ti6    9.713   1_545     S
Er7     Ti4    9.713   1_544     S
Er7     Ti3    9.713   1_544     S
Er7     Ti8    9.713   1_554     S
Er7     Ti9    9.713   1_554     S
Ti8     V104    10.574   .     S
Ti8     Er7    9.713   1_556     S
Ti8     Er14    9.713   1_655     S
Ti9     V17    10.574   1_656     S
Ti9     Er7    9.713   1_556     S
Ti9     Er14    9.713   1_655     S
Ti10     V50    10.574   1_655     S
Ti10     Er14    9.713   1_665     S
Ti10     Er16    9.713   .     S
Ti11     V104    10.574   1_565     S
Ti11     Er14    9.713   1_665     S
Ti11     Er16    9.713   .     S
Ti12     V50    10.574   .     S
Ti12     Er15    9.713   1_556     S
Ti12     Er14    9.713   1_565     S
Ti13     V17    10.574   1_566     S
Ti13     Er15    9.713   1_556     S
Ti13     Er14    9.713   1_565     S
Er14     Ti8    9.713   1_455     S
Er14     Ti9    9.713   1_455     S
Er14     Ti11    9.713   1_445     S
Er14     Ti10    9.713   1_445     S
Er14     Ti12    9.713   1_545     S
Er14     Ti13    9.713   1_545     S
Er15     Ti13    9.713   1_554     S
Er15     Ti12    9.713   1_554     S
Er15     Ti1    9.713   1_454     S
Er15     Ti2    9.713   1_454     S
Er15     Ti5    9.713   1_455     S
Er15     Ti6    9.713   1_455     S
V17     Ti6    10.574   1_445     S
V17     Ti9    10.574   1_454     S
V17     Ti13    10.574   1_544     S
V17     Ti126    10.574   1_455     S
V17     Ti129    10.574   1_554     S
V17     Ti135    10.574   1_545     S
Er18     Ti19    9.713   .     S
Er18     Ti20    9.713   .     S
Er18     Ti22    9.713   .     S
Er18     Ti21    9.713   .     S
Er18     Ti32    9.713   .     S
Er18     Ti31    9.713   .     S
Ti19     V52    10.574   .     S
Ti19     Er26    9.713   1_556     S
Ti20     V144    10.574   1_556     S
Ti20     Er26    9.713   1_556     S
Ti21     V52    10.574   .     S
Ti21     Er23    9.713   .     S
Ti22     V106    10.574   .     S
Ti22     Er23    9.713   .     S
Er23     Ti27    9.713   .     S
Er23     Ti28    9.713   .     S
Er23     Ti24    9.713   .     S
Er23     Ti25    9.713   .     S
Ti24     V143    10.574   1_556     S
Ti24     Er26    9.713   1_556     S
Ti25     V52    10.574   .     S
Ti25     Er26    9.713   1_556     S
Er26     Ti20    9.713   1_554     S
Er26     Ti19    9.713   1_554     S
Er26     Ti24    9.713   1_554     S
Er26     Ti25    9.713   1_554     S
Er26     Ti29    9.713   .     S
Er26     Ti30    9.713   .     S
Ti27     V106    10.574   .     S
Ti27     Er33    9.713   1_556     S
Ti28     V143    10.574   1_556     S
Ti28     Er33    9.713   1_556     S
Ti29     V143    10.574   .     S
Ti29     Er33    9.713   .     S
Ti30     V144    10.574   .     S
Ti30     Er33    9.713   .     S
Ti31     V106    10.574   .     S
Ti31     Er33    9.713   1_556     S
Ti32     V144    10.574   1_556     S
Ti32     Er33    9.713   1_556     S
Er33     Ti28    9.713   1_554     S
Er33     Ti27    9.713   1_554     S
Er33     Ti32    9.713   1_554     S
Er33     Ti31    9.713   1_554     S
Ti34     V50    10.574   .     S
Ti34     Er36    9.713   1_455     S
Ti34     Er42    9.713   .     S
Ti35     V51    10.574   .     S
Ti35     Er36    9.713   1_455     S
Ti35     Er42    9.713   .     S
Er36     Ti40    9.713   .     S
Er36     Ti39    9.713   .     S
Er36     Ti35    9.713   1_655     S
Er36     Ti34    9.713   1_655     S
Er36     Ti47    9.713   1_655     S
Er36     Ti48    9.713   1_655     S
Ti37     V52    10.574   .     S
Ti37     Er41    9.713   1_455     S
Ti37     Er42    9.713   .     S
Ti38     V50    10.574   .     S
Ti38     Er41    9.713   1_455     S
Ti38     Er42    9.713   .     S
Ti39     V141    10.574   1_655     S
Ti39     Er41    9.713   .     S
Ti40     V50    10.574   1_655     S
Ti40     Er41    9.713   .     S
Er41     Ti44    9.713   1_655     S
Er41     Ti43    9.713   1_655     S
Er41     Ti37    9.713   1_655     S
Er41     Ti38    9.713   1_655     S
Er42     Ti46    9.713   .     S
Er42     Ti45    9.713   .     S
Ti43     V52    10.574   .     S
Ti43     Er41    9.713   1_455     S
Ti43     Er49    9.713   .     S
Ti44     V141    10.574   .     S
Ti44     Er41    9.713   1_455     S
Ti44     Er49    9.713   .     S
Ti45     V51    10.574   .     S
Ti45     Er49    9.713   .     S
Ti46     V52    10.574   .     S
Ti46     Er49    9.713   .     S
Ti47     V51    10.574   .     S
Ti47     Er36    9.713   1_455     S
Ti47     Er49    9.713   .     S
Ti48     V141    10.574   .     S
Ti48     Er36    9.713   1_455     S
Ti48     Er49    9.713   .     S
V50     Ti1    10.574   1_455     S
V50     Ti10    10.574   1_455     S
V50     Ti40    10.574   1_455     S
V51     Ti74    10.574   .     S
V51     Ti76    10.574   .     S
V51     Ti85    10.574   .     S
Er53     Ti64    9.713   .     S
Er53     Ti65    9.713   .     S
Er53     Ti54    9.713   .     S
Er53     Ti55    9.713   .     S
Er53     Ti59    9.713   .     S
Er53     Ti60    9.713   .     S
Ti54     V71    10.574   .     S
Ti54     Er58    9.713   1_554     S
Ti55     V69    10.574   .     S
Ti55     Er58    9.713   1_554     S
Ti56     V143    10.574   1_556     S
Ti56     Er58    9.713   .     S
Ti56     Er61    9.713   .     S
Ti57     V69    10.574   1_556     S
Ti57     Er58    9.713   .     S
Ti57     Er61    9.713   .     S
Er58     Ti66    9.713   1_556     S
Er58     Ti67    9.713   1_556     S
Er58     Ti55    9.713   1_556     S
Er58     Ti54    9.713   1_556     S
Ti59     V70    10.574   .     S
Ti59     Er61    9.713   1_554     S
Ti60     V69    10.574   .     S
Ti60     Er61    9.713   1_554     S
Er61     Ti62    9.713   1_556     S
Er61     Ti63    9.713   1_556     S
Er61     Ti60    9.713   1_556     S
Er61     Ti59    9.713   1_556     S
Ti62     V70    10.574   .     S
Ti62     Er61    9.713   1_554     S
Ti62     Er68    9.713   .     S
Ti63     V143    10.574   .     S
Ti63     Er61    9.713   1_554     S
Ti63     Er68    9.713   .     S
Ti64     V71    10.574   .     S
Ti64     Er68    9.713   .     S
Ti65     V70    10.574   .     S
Ti65     Er68    9.713   .     S
Ti66     V143    10.574   .     S
Ti66     Er58    9.713   1_554     S
Ti66     Er68    9.713   .     S
Ti67     V71    10.574   .     S
Ti67     Er58    9.713   1_554     S
Ti67     Er68    9.713   .     S
V69     Ti2    10.574   1_554     S
V69     Ti3    10.574   1_554     S
V69     Ti57    10.574   1_554     S
V70     Ti73    10.574   .     S
V70     Ti78    10.574   .     S
V70     Ti84    10.574   .     S
V71     Ti109    10.574   .     S
V71     Ti114    10.574   .     S
V71     Ti120    10.574   .     S
Ti72     V140    10.574   1_565     S
Ti72     Er82    9.713   1_565     S
Ti72     Er87    9.713   .     S
Ti73     Er82    9.713   1_565     S
Ti73     Er87    9.713   .     S
Ti74     Er83    9.713   1_565     S
Ti74     Er86    9.713   .     S
Ti75     V142    10.574   1_565     S
Ti75     Er83    9.713   1_565     S
Ti75     Er86    9.713   .     S
Ti76     Er83    9.713   1_565     S
Ti76     Er87    9.713   .     S
Ti77     V140    10.574   1_565     S
Ti77     Er83    9.713   1_565     S
Ti77     Er87    9.713   .     S
Ti78     Er82    9.713   1_565     S
Ti78     Er86    9.713   .     S
Ti79     V142    10.574   1_565     S
Ti79     Er82    9.713   1_565     S
Ti79     Er86    9.713   .     S
Ti80     V142    10.574   .     S
Ti80     Er83    9.713   .     S
Ti80     Er82    9.713   .     S
Ti81     V140    10.574   .     S
Ti81     Er83    9.713   .     S
Ti81     Er82    9.713   .     S
Er82     Ti73    9.713   1_545     S
Er82     Ti72    9.713   1_545     S
Er82     Ti78    9.713   1_545     S
Er82     Ti79    9.713   1_545     S
Er83     Ti76    9.713   1_545     S
Er83     Ti77    9.713   1_545     S
Er83     Ti74    9.713   1_545     S
Er83     Ti75    9.713   1_545     S
Ti84     Er86    9.713   .     S
Ti84     Er87    9.713   .     S
Ti85     Er86    9.713   .     S
Ti85     Er87    9.713   .     S
Er88     Ti96    9.713   .     S
Er88     Ti97    9.713   .     S
Er88     Ti94    9.713   1_565     S
Er88     Ti95    9.713   1_565     S
Er88     Ti90    9.713   1_565     S
Er88     Ti89    9.713   1_565     S
Ti89     V104    10.574   .     S
Ti89     Er88    9.713   1_545     S
Ti89     Er91    9.713   .     S
Ti90     V105    10.574   .     S
Ti90     Er88    9.713   1_545     S
Ti90     Er91    9.713   .     S
Er91     Ti98    9.713   .     S
Er91     Ti99    9.713   .     S
Er91     Ti92    9.713   .     S
Er91     Ti93    9.713   .     S
Ti92     V104    10.574   .     S
Ti92     Er100    9.713   1_545     S
Ti93     V106    10.574   .     S
Ti93     Er100    9.713   1_545     S
Ti94     V105    10.574   .     S
Ti94     Er88    9.713   1_545     S
Ti94     Er103    9.713   .     S
Ti95     V142    10.574   .     S
Ti95     Er88    9.713   1_545     S
Ti95     Er103    9.713   .     S
Ti96     V142    10.574   1_565     S
Ti96     Er100    9.713   .     S
Ti97     V104    10.574   1_565     S
Ti97     Er100    9.713   .     S
Ti98     V106    10.574   .     S
Ti98     Er103    9.713   .     S
Ti99     V105    10.574   .     S
Ti99     Er103    9.713   .     S
Er100     Ti101    9.713   1_565     S
Er100     Ti102    9.713   1_565     S
Er100     Ti93    9.713   1_565     S
Er100     Ti92    9.713   1_565     S
Ti101     V142    10.574   .     S
Ti101     Er100    9.713   1_545     S
Ti101     Er103    9.713   .     S
Ti102     V106    10.574   .     S
Ti102     Er100    9.713   1_545     S
Ti102     Er103    9.713   .     S
V104     Ti4    10.574   1_545     S
V104     Ti11    10.574   1_545     S
V104     Ti97    10.574   1_545     S
V105     Ti108    10.574   .     S
V105     Ti116    10.574   .     S
V105     Ti119    10.574   .     S
Ti107     V139    10.574   1_655     S
Ti107     Er118    9.713   1_655     S
Ti107     Er122    9.713   .     S
Ti108     Er118    9.713   1_655     S
Ti108     Er122    9.713   .     S
Ti109     Er115    9.713   1_655     S
Ti109     Er122    9.713   .     S
Ti110     V139    10.574   1_655     S
Ti110     Er115    9.713   1_655     S
Ti110     Er122    9.713   .     S
Ti111     V141    10.574   .     S
Ti111     Er115    9.713   .     S
Ti111     Er118    9.713   .     S
Ti112     V139    10.574   .     S
Ti112     Er115    9.713   .     S
Ti112     Er118    9.713   .     S
Ti113     V141    10.574   1_655     S
Ti113     Er115    9.713   1_655     S
Ti113     Er121    9.713   .     S
Ti114     Er115    9.713   1_655     S
Ti114     Er121    9.713   .     S
Er115     Ti109    9.713   1_455     S
Er115     Ti110    9.713   1_455     S
Er115     Ti113    9.713   1_455     S
Er115     Ti114    9.713   1_455     S
Ti116     Er118    9.713   1_655     S
Ti116     Er121    9.713   .     S
Ti117     V141    10.574   1_655     S
Ti117     Er118    9.713   1_655     S
Ti117     Er121    9.713   .     S
Er118     Ti116    9.713   1_455     S
Er118     Ti117    9.713   1_455     S
Er118     Ti108    9.713   1_455     S
Er118     Ti107    9.713   1_455     S
Ti119     Er121    9.713   .     S
Ti119     Er122    9.713   .     S
Ti120     Er121    9.713   .     S
Ti120     Er122    9.713   .     S
Ti123     V144    10.574   .     S
Ti123     Er137    9.713   .     S
Ti123     Er136    9.713   1_544     S
Ti124     V140    10.574   .     S
Ti124     Er137    9.713   .     S
Ti124     Er136    9.713   1_544     S
Ti125     V139    10.574   1_655     S
Ti125     Er138    9.713   1_554     S
Ti125     Er133    9.713   1_545     S
Ti126     V17    10.574   1_655     S
Ti126     Er138    9.713   1_554     S
Ti126     Er133    9.713   1_545     S
Ti127     V144    10.574   .     S
Ti127     Er137    9.713   .     S
Ti127     Er138    9.713   1_454     S
Ti128     V139    10.574   .     S
Ti128     Er137    9.713   .     S
Ti128     Er138    9.713   1_454     S
Ti129     V17    10.574   1_556     S
Ti129     Er138    9.713   1_455     S
Ti129     Er136    9.713   1_545     S
Ti130     V144    10.574   1_556     S
Ti130     Er138    9.713   1_455     S
Ti130     Er136    9.713   1_545     S
Ti131     V140    10.574   .     S
Ti131     Er137    9.713   .     S
Ti131     Er133    9.713   1_445     S
Ti132     V139    10.574   .     S
Ti132     Er137    9.713   .     S
Ti132     Er133    9.713   1_445     S
Er133     Ti131    9.713   1_665     S
Er133     Ti132    9.713   1_665     S
Er133     Ti126    9.713   1_565     S
Er133     Ti125    9.713   1_565     S
Er133     Ti134    9.713   1_655     S
Er133     Ti135    9.713   1_655     S
Ti134     V140    10.574   1_565     S
Ti134     Er133    9.713   1_455     S
Ti134     Er136    9.713   1_554     S
Ti135     V17    10.574   1_565     S
Ti135     Er133    9.713   1_455     S
Ti135     Er136    9.713   1_554     S
Er136     Ti124    9.713   1_566     S
Er136     Ti123    9.713   1_566     S
Er136     Ti134    9.713   1_556     S
Er136     Ti135    9.713   1_556     S
Er136     Ti130    9.713   1_565     S
Er136     Ti129    9.713   1_565     S
Er138     Ti125    9.713   1_556     S
Er138     Ti126    9.713   1_556     S
Er138     Ti128    9.713   1_656     S
Er138     Ti127    9.713   1_656     S
Er138     Ti130    9.713   1_655     S
Er138     Ti129    9.713   1_655     S
V139     Ti107    10.574   1_455     S
V139     Ti110    10.574   1_455     S
V139     Ti125    10.574   1_455     S
V140     Ti72    10.574   1_545     S
V140     Ti77    10.574   1_545     S
V140     Ti134    10.574   1_545     S
V141     Ti39    10.574   1_455     S
V141     Ti113    10.574   1_455     S
V141     Ti117    10.574   1_455     S
V142     Ti75    10.574   1_545     S
V142     Ti79    10.574   1_545     S
V142     Ti96    10.574   1_545     S
V143     Ti24    10.574   1_554     S
V143     Ti28    10.574   1_554     S
V143     Ti56    10.574   1_554     S
V144     Ti20    10.574   1_554     S
V144     Ti32    10.574   1_554     S
V144     Ti130    10.574   1_554     S
