data_dnja
_audit_creation_date              2020-02-04
_audit_creation_method            'Pymatgen'
_symmetry_space_group_name_H-M    'P1'
_symmetry_Int_Tables_number       1
loop_
_symmetry_equiv_pos_as_xyz
  x,y,z
_cell_length_a                    103.8855
_cell_length_b                    103.8855
_cell_length_c                    103.8855
_cell_angle_alpha                 90.0
_cell_angle_beta                 90.0
_cell_angle_gamma                 90.0
loop_
_atom_site_label
_atom_site_type_symbol
_atom_site_fract_x
_atom_site_fract_y
_atom_site_fract_z
Ce1     Ce     0.7955   0.2343   0.6364
Ce2     Ce     0.7045   0.2657   0.6364
Ce3     Ce     0.7955   0.2657   0.8636
Ce4     Ce     0.7045   0.2343   0.8636
Ce5     Ce     0.2343   0.6364   0.7955
Ce6     Ce     0.2657   0.6364   0.7045
Ce7     Ce     0.2657   0.8636   0.7955
Ce8     Ce     0.2343   0.8636   0.7045
Ce9     Ce     0.6364   0.7955   0.2343
Ce10     Ce     0.6364   0.7045   0.2657
Ce11     Ce     0.8636   0.7955   0.2657
Ce12     Ce     0.8636   0.7045   0.2343
Ce13     Ce     0.2343   0.7955   0.6364
Ce14     Ce     0.2657   0.7045   0.6364
Ce15     Ce     0.2657   0.7955   0.8636
Ce16     Ce     0.2343   0.7045   0.8636
Ce17     Ce     0.6364   0.2343   0.7955
Ce18     Ce     0.6364   0.2657   0.7045
Ce19     Ce     0.8636   0.2657   0.7955
Ce20     Ce     0.8636   0.2343   0.7045
Ce21     Ce     0.7955   0.8636   0.2657
Ce22     Ce     0.7045   0.8636   0.2343
Ce23     Ce     0.7955   0.6364   0.2343
Ce24     Ce     0.7045   0.6364   0.2657
Ti25     Ti     0.6998   0.3097   0.4523
Ti26     Ti     0.6903   0.3002   0.5477
Er27     Er     0.6361   0.3639   0.5
Ti28     Ti     0.3097   0.4523   0.6998
Ti29     Ti     0.3002   0.5477   0.6903
Er30     Er     0.3639   0.5   0.6361
Ti31     Ti     0.4523   0.6998   0.3097
Ti32     Ti     0.5477   0.6903   0.3002
Er33     Er     0.5   0.6361   0.3639
Ti34     Ti     0.6998   0.4523   0.3097
Ti35     Ti     0.6903   0.5477   0.3002
Er36     Er     0.6361   0.5   0.3639
Ti37     Ti     0.3097   0.6998   0.4523
Ti38     Ti     0.3002   0.6903   0.5477
Er39     Er     0.3639   0.6361   0.5
V40     V     0.432   0.5681   0.5
V41     V     0.5   0.568   0.4319
V42     V     0.568   0.4319   0.5
V43     V     0.5   0.432   0.5681
V44     V     0.4319   0.5   0.5681
V45     V     0.5681   0.5   0.4319
Ti46     Ti     0.4523   0.3097   0.6998
Ti47     Ti     0.5477   0.3002   0.6903
Er48     Er     0.5   0.3639   0.6361
Ce49     Ce     0.7657   0.2045   0.3636
Ce50     Ce     0.7343   0.2955   0.3636
Ce51     Ce     0.3636   0.7657   0.2045
Ce52     Ce     0.3636   0.7343   0.2955
Ce53     Ce     0.2045   0.3636   0.7657
Ce54     Ce     0.2955   0.3636   0.7343
Ce55     Ce     0.2045   0.7657   0.3636
Ce56     Ce     0.2955   0.7343   0.3636
Ce57     Ce     0.7657   0.3636   0.2045
Ce58     Ce     0.7343   0.3636   0.2955
Ce59     Ce     0.3636   0.2045   0.7657
Ce60     Ce     0.3636   0.2955   0.7343
Ce61     Ce     0.7657   0.2955   0.1364
Ce62     Ce     0.7343   0.2045   0.1364
Ti63     Ti     0.3002   0.9523   0.8097
Ti64     Ti     0.3097   0.0477   0.8002
Er65     Er     0.3639   0.0   0.8639
Ti66     Ti     0.3097   0.8002   0.0477
Ti67     Ti     0.3002   0.8097   0.9523
Er68     Er     0.3639   0.8639   0.0
Ti69     Ti     0.4523   0.8002   0.1903
Ti70     Ti     0.5477   0.8097   0.1998
Er71     Er     0.5   0.8639   0.1361
Ti72     Ti     0.4523   0.1903   0.8002
Ti73     Ti     0.5477   0.1998   0.8097
Er74     Er     0.5   0.1361   0.8639
Ti75     Ti     0.6903   0.1998   0.9523
Ti76     Ti     0.6998   0.1903   0.0477
Er77     Er     0.6361   0.1361   0.0
Ti78     Ti     0.6903   0.9523   0.1998
Ti79     Ti     0.6998   0.0477   0.1903
Er80     Er     0.6361   0.0   0.1361
V81     V     0.5681   0.0   0.068
V82     V     0.5681   0.068   0.0
V83     V     0.5   0.932   0.068
V84     V     0.4319   0.0   0.932
V85     V     0.4319   0.932   0.0
V86     V     0.5   0.068   0.932
Ce87     Ce     0.1364   0.7657   0.2955
Ce88     Ce     0.1364   0.7343   0.2045
Ce89     Ce     0.2955   0.7657   0.1364
Ce90     Ce     0.2045   0.7343   0.1364
Ti91     Ti     0.9523   0.6903   0.1998
Ti92     Ti     0.0477   0.6998   0.1903
Er93     Er     0.0   0.6361   0.1361
Ti94     Ti     0.8097   0.3002   0.9523
Ti95     Ti     0.8002   0.3097   0.0477
Er96     Er     0.8639   0.3639   0.0
Ti97     Ti     0.0477   0.3097   0.8002
Ti98     Ti     0.9523   0.3002   0.8097
Er99     Er     0.0   0.3639   0.8639
Ti100     Ti     0.1903   0.4523   0.8002
Ti101     Ti     0.1998   0.5477   0.8097
Er102     Er     0.1361   0.5   0.8639
Ti103     Ti     0.1998   0.6903   0.9523
Ti104     Ti     0.1903   0.6998   0.0477
Er105     Er     0.1361   0.6361   0.0
V106     V     0.0   0.568   0.068
V107     V     0.068   0.5681   0.0
V108     V     0.932   0.5   0.068
V109     V     0.0   0.432   0.932
V110     V     0.932   0.4319   0.0
V111     V     0.068   0.5   0.932
Ti112     Ti     0.8002   0.4523   0.1903
Ti113     Ti     0.8097   0.5477   0.1998
Er114     Er     0.8639   0.5   0.1361
Ce115     Ce     0.2955   0.1364   0.7657
Ce116     Ce     0.2045   0.1364   0.7343
Ce117     Ce     0.7657   0.1364   0.2955
Ce118     Ce     0.7343   0.1364   0.2045
Ti119     Ti     0.9523   0.8097   0.3002
Ti120     Ti     0.0477   0.8002   0.3097
Er121     Er     0.0   0.8639   0.3639
Ti122     Ti     0.8002   0.0477   0.3097
Ti123     Ti     0.8097   0.9523   0.3002
Er124     Er     0.8639   0.0   0.3639
Ti125     Ti     0.8002   0.1903   0.4523
Ti126     Ti     0.8097   0.1998   0.5477
Er127     Er     0.8639   0.1361   0.5
Ti128     Ti     0.1903   0.8002   0.4523
Ti129     Ti     0.1998   0.8097   0.5477
Er130     Er     0.1361   0.8639   0.5
Ti131     Ti     0.1998   0.9523   0.6903
Ti132     Ti     0.1903   0.0477   0.6998
Er133     Er     0.1361   0.0   0.6361
Ti134     Ti     0.9523   0.1998   0.6903
Ti135     Ti     0.0477   0.1903   0.6998
Er136     Er     0.0   0.1361   0.6361
V137     V     0.0   0.068   0.5681
V138     V     0.068   0.0   0.5681
V139     V     0.932   0.068   0.5
V140     V     0.0   0.932   0.4319
V141     V     0.932   0.0   0.4319
V142     V     0.068   0.932   0.5
Ce143     Ce     0.1364   0.2955   0.7657
Ce144     Ce     0.1364   0.2045   0.7343
loop_
_geom_bond_atom_site_label_1
_geom_bond_atom_site_label_2
_geom_bond_distance
_geom_bond_site_symmetry_2
_ccdc_geom_bond_type
Ce1     Ce2    10.002   .     S
Ce1     Ti126    10.002   .     S
Ce1     Ce20    10.004   .     S
Ce2     Ti26    10.002   .     S
Ce2     Ce18    10.004   .     S
Ce3     Ce4    10.002   .     S
Ce3     Ti94    10.002   .     S
Ce3     Ce19    10.004   .     S
Ce4     Ti75    10.002   .     S
Ce4     Ce17    10.004   .     S
Ce5     Ce6    10.002   .     S
Ce5     Ti101    10.002   .     S
Ce5     Ce16    10.004   .     S
Ce6     Ti29    10.002   .     S
Ce6     Ce14    10.004   .     S
Ce7     Ce8    10.002   .     S
Ce7     Ti63    10.002   .     S
Ce7     Ce15    10.004   .     S
Ce8     Ti131    10.002   .     S
Ce8     Ce13    10.004   .     S
Ce9     Ce10    10.002   .     S
Ce9     Ti70    10.002   .     S
Ce9     Ce22    10.004   .     S
Ce10     Ti32    10.002   .     S
Ce10     Ce24    10.004   .     S
Ce11     Ce12    10.002   .     S
Ce11     Ti119    10.002   .     S
Ce11     Ce21    10.004   .     S
Ce12     Ti91    10.002   .     S
Ce12     Ce23    10.004   .     S
Ce13     Ce14    10.002   .     S
Ce13     Ti129    10.002   .     S
Ce14     Ti38    10.002   .     S
Ce15     Ce16    10.002   .     S
Ce15     Ti67    10.002   .     S
Ce16     Ti103    10.002   .     S
Ce17     Ce18    10.002   .     S
Ce17     Ti73    10.002   .     S
Ce18     Ti47    10.002   .     S
Ce19     Ce20    10.002   .     S
Ce19     Ti98    10.002   .     S
Ce20     Ti134    10.002   .     S
Ce21     Ce22    10.002   .     S
Ce21     Ti123    10.002   .     S
Ce22     Ti78    10.002   .     S
Ce23     Ce24    10.002   .     S
Ce23     Ti113    10.002   .     S
Ce24     Ti35    10.002   .     S
Ti25     Er27    9.998   .     S
Ti25     Ti26    9.999   .     S
Ti25     Ce50    10.002   .     S
Ti26     Er27    9.998   .     S
Er27     V42    9.999   .     S
Ti28     Er30    9.998   .     S
Ti28     Ti29    9.999   .     S
Ti28     Ce54    10.002   .     S
Ti29     Er30    9.998   .     S
Er30     V44    9.999   .     S
Ti31     Er33    9.998   .     S
Ti31     Ti32    9.999   .     S
Ti31     Ce52    10.002   .     S
Ti32     Er33    9.998   .     S
Er33     V41    9.999   .     S
Ti34     Ti35    9.999   .     S
Ti34     Er36    9.998   .     S
Ti34     Ce58    10.002   .     S
Ti35     Er36    9.998   .     S
Er36     V45    9.999   .     S
Ti37     Ti38    9.999   .     S
Ti37     Er39    9.998   .     S
Ti37     Ce56    10.002   .     S
Ti38     Er39    9.998   .     S
Er39     V40    9.999   .     S
V40     V41    9.998   .     S
V40     V44    9.998   .     S
V41     V45    9.998   .     S
V42     V43    9.998   .     S
V42     V45    9.998   .     S
V43     V44    9.998   .     S
V43     Er48    9.999   .     S
Ti46     Er48    9.998   .     S
Ti46     Ti47    9.999   .     S
Ti46     Ce60    10.002   .     S
Ti47     Er48    9.998   .     S
Ce49     Ce50    10.002   .     S
Ce49     Ti125    10.002   .     S
Ce49     Ce117    10.004   .     S
Ce50     Ce58    10.004   .     S
Ce51     Ce52    10.002   .     S
Ce51     Ti69    10.002   .     S
Ce51     Ce89    10.004   .     S
Ce52     Ce56    10.004   .     S
Ce53     Ce54    10.002   .     S
Ce53     Ti100    10.002   .     S
Ce53     Ce143    10.004   .     S
Ce54     Ce60    10.004   .     S
Ce55     Ce56    10.002   .     S
Ce55     Ti128    10.002   .     S
Ce55     Ce87    10.004   .     S
Ce57     Ce58    10.002   .     S
Ce57     Ti112    10.002   .     S
Ce57     Ce61    10.004   .     S
Ce59     Ce60    10.002   .     S
Ce59     Ti72    10.002   .     S
Ce59     Ce115    10.004   .     S
Ce61     Ce62    10.002   .     S
Ce61     Ti95    10.002   .     S
Ce62     Ti76    10.002   .     S
Ce62     Ce118    10.004   .     S
Ti63     Er65    9.998   1_565     S
Ti63     Ti64    9.999   1_565     S
Ti64     Er65    9.998   .     S
Ti64     Ti63    9.999   1_545     S
Ti64     Ce115    10.002   .     S
Er65     Ti63    9.998   1_545     S
Er65     V84    9.999   .     S
Ti66     Ti67    9.999   1_554     S
Ti66     Er68    9.998   .     S
Ti66     Ce89    10.002   .     S
Ti67     Ti66    9.999   1_556     S
Ti67     Er68    9.998   1_556     S
Er68     Ti67    9.998   1_554     S
Er68     V85    9.999   .     S
Ti69     Er71    9.998   .     S
Ti69     Ti70    9.999   .     S
Ti70     Er71    9.998   .     S
Er71     V83    9.999   .     S
Ti72     Er74    9.998   .     S
Ti72     Ti73    9.999   .     S
Ti73     Er74    9.998   .     S
Er74     V86    9.999   .     S
Ti75     Er77    9.998   1_556     S
Ti75     Ti76    9.999   1_556     S
Ti76     Er77    9.998   .     S
Ti76     Ti75    9.999   1_554     S
Er77     Ti75    9.998   1_554     S
Er77     V82    9.999   .     S
Ti78     Er80    9.998   1_565     S
Ti78     Ti79    9.999   1_565     S
Ti79     Er80    9.998   .     S
Ti79     Ti78    9.999   1_545     S
Ti79     Ce118    10.002   .     S
Er80     Ti78    9.998   1_545     S
Er80     V81    9.999   .     S
V81     V82    9.998   .     S
V81     V83    9.998   1_545     S
V82     V86    9.998   1_554     S
V83     V81    9.998   1_565     S
V83     V85    9.998   .     S
V84     V85    9.998   1_546     S
V84     V86    9.998   .     S
V85     V84    9.998   1_564     S
V86     V82    9.998   1_556     S
Ce87     Ce88    10.002   .     S
Ce87     Ti120    10.002   .     S
Ce88     Ti92    10.002   .     S
Ce88     Ce90    10.004   .     S
Ce89     Ce90    10.002   .     S
Ce90     Ti104    10.002   .     S
Ti91     Er93    9.998   1_655     S
Ti91     Ti92    9.999   1_655     S
Ti92     Er93    9.998   .     S
Ti92     Ti91    9.999   1_455     S
Er93     Ti91    9.998   1_455     S
Er93     V106    9.999   .     S
Ti94     Er96    9.998   1_556     S
Ti94     Ti95    9.999   1_556     S
Ti95     Er96    9.998   .     S
Ti95     Ti94    9.999   1_554     S
Er96     Ti94    9.998   1_554     S
Er96     V110    9.999   .     S
Ti97     Er99    9.998   .     S
Ti97     Ti98    9.999   1_455     S
Ti97     Ce143    10.002   .     S
Ti98     Ti97    9.999   1_655     S
Ti98     Er99    9.998   1_655     S
Er99     Ti98    9.998   1_455     S
Er99     V109    9.999   .     S
Ti100     Er102    9.998   .     S
Ti100     Ti101    9.999   .     S
Ti101     Er102    9.998   .     S
Er102     V111    9.999   .     S
Ti103     Er105    9.998   1_556     S
Ti103     Ti104    9.999   1_556     S
Ti104     Er105    9.998   .     S
Ti104     Ti103    9.999   1_554     S
Er105     Ti103    9.998   1_554     S
Er105     V107    9.999   .     S
V106     V108    9.998   1_455     S
V106     V107    9.998   .     S
V107     V111    9.998   1_554     S
V108     V106    9.998   1_655     S
V108     V110    9.998   .     S
V108     Er114    9.999   .     S
V109     V111    9.998   .     S
V109     V110    9.998   1_456     S
V110     V109    9.998   1_654     S
V111     V107    9.998   1_556     S
Ti112     Er114    9.998   .     S
Ti112     Ti113    9.999   .     S
Ti113     Er114    9.998   .     S
Ce115     Ce116    10.002   .     S
Ce116     Ti132    10.002   .     S
Ce116     Ce144    10.004   .     S
Ce117     Ce118    10.002   .     S
Ce117     Ti122    10.002   .     S
Ti119     Er121    9.998   1_655     S
Ti119     Ti120    9.999   1_655     S
Ti120     Er121    9.998   .     S
Ti120     Ti119    9.999   1_455     S
Er121     Ti119    9.998   1_455     S
Er121     V140    9.999   .     S
Ti122     Ti123    9.999   1_545     S
Ti122     Er124    9.998   .     S
Ti123     Ti122    9.999   1_565     S
Ti123     Er124    9.998   1_565     S
Er124     Ti123    9.998   1_545     S
Er124     V141    9.999   .     S
Ti125     Er127    9.998   .     S
Ti125     Ti126    9.999   .     S
Ti126     Er127    9.998   .     S
Er127     V139    9.999   .     S
Ti128     Er130    9.998   .     S
Ti128     Ti129    9.999   .     S
Ti129     Er130    9.998   .     S
Er130     V142    9.999   .     S
Ti131     Er133    9.998   1_565     S
Ti131     Ti132    9.999   1_565     S
Ti132     Er133    9.998   .     S
Ti132     Ti131    9.999   1_545     S
Er133     Ti131    9.998   1_545     S
Er133     V138    9.999   .     S
Ti134     Er136    9.998   1_655     S
Ti134     Ti135    9.999   1_655     S
Ti135     Er136    9.998   .     S
Ti135     Ti134    9.999   1_455     S
Ti135     Ce144    10.002   .     S
Er136     Ti134    9.998   1_455     S
Er136     V137    9.999   .     S
V137     V138    9.998   .     S
V137     V139    9.998   1_455     S
V138     V142    9.998   1_545     S
V139     V137    9.998   1_655     S
V139     V141    9.998   .     S
V140     V141    9.998   1_465     S
V140     V142    9.998   .     S
V141     V140    9.998   1_645     S
V142     V138    9.998   1_565     S
Ce143     Ce144    10.002   .     S
