data_dnk
_audit_creation_date              2020-02-04
_audit_creation_method            'Pymatgen'
_symmetry_space_group_name_H-M    'P1'
_symmetry_Int_Tables_number       1
loop_
_symmetry_equiv_pos_as_xyz
  x,y,z
_cell_length_a                    47.3283
_cell_length_b                    47.3283
_cell_length_c                    47.3283
_cell_angle_alpha                 90.0
_cell_angle_beta                 90.0
_cell_angle_gamma                 90.0
loop_
_atom_site_label
_atom_site_type_symbol
_atom_site_fract_x
_atom_site_fract_y
_atom_site_fract_z
V1     V     0.2891   0.0   0.2891
V2     V     0.5   0.2109   0.2891
V3     V     0.5   0.7891   0.2891
V4     V     0.7109   0.0   0.2891
Ti5     Ti     0.5   0.0   0.2892
V6     V     0.5   0.7891   0.7109
V7     V     0.7109   0.0   0.7109
V8     V     0.7109   0.7891   0.5
Ti9     Ti     0.7108   0.0   0.5
Ti10     Ti     0.5   0.7892   0.5
Ti11     Ti     0.5   0.0   0.7108
V12     V     0.7109   0.2109   0.5
V13     V     0.5   0.2109   0.7109
Ti14     Ti     0.5   0.2108   0.5
V15     V     0.2891   0.2109   0.5
V16     V     0.2891   0.7891   0.5
V17     V     0.2891   0.0   0.7109
Ti18     Ti     0.2892   0.0   0.5
V19     V     0.2891   0.2891   0.0
V20     V     0.5   0.2891   0.2109
V21     V     0.7109   0.2891   0.0
V22     V     0.5   0.2891   0.7891
Ti23     Ti     0.5   0.2892   0.0
V24     V     0.7109   0.7109   0.0
V25     V     0.5   0.7109   0.7891
V26     V     0.7109   0.5   0.7891
Ti27     Ti     0.5   0.5   0.7892
Ti28     Ti     0.7108   0.5   0.0
Ti29     Ti     0.5   0.7108   0.0
V30     V     0.5   0.7109   0.2109
V31     V     0.7109   0.5   0.2109
Ti32     Ti     0.5   0.5   0.2108
V33     V     0.2891   0.5   0.2109
V34     V     0.2891   0.7109   0.0
V35     V     0.2891   0.5   0.7891
Ti36     Ti     0.2892   0.5   0.0
V37     V     0.0   0.2891   0.2891
V38     V     0.2109   0.5   0.2891
V39     V     0.7891   0.5   0.2891
V40     V     0.0   0.7109   0.2891
Ti41     Ti     0.0   0.5   0.2892
V42     V     0.7891   0.7109   0.5
V43     V     0.7891   0.5   0.7109
V44     V     0.0   0.7109   0.7109
Ti45     Ti     0.0   0.5   0.7108
Ti46     Ti     0.0   0.7108   0.5
Ti47     Ti     0.7892   0.5   0.5
V48     V     0.2109   0.7109   0.5
V49     V     0.2109   0.5   0.7109
Ti50     Ti     0.2108   0.5   0.5
V51     V     0.2109   0.2891   0.5
V52     V     0.7891   0.2891   0.5
V53     V     0.0   0.2891   0.7109
Ti54     Ti     0.0   0.2892   0.5
V55     V     0.2109   0.2109   0.0
V56     V     0.2109   0.7891   0.0
V57     V     0.2109   0.0   0.7891
Ti58     Ti     0.2108   0.0   0.0
V59     V     0.2109   0.0   0.2109
V60     V     0.7891   0.7891   0.0
V61     V     0.7891   0.0   0.7891
V62     V     0.0   0.7891   0.7891
Ti63     Ti     0.0   0.0   0.7892
Ti64     Ti     0.0   0.7892   0.0
Ti65     Ti     0.7892   0.0   0.0
V66     V     0.7891   0.2109   0.0
V67     V     0.0   0.2109   0.7891
Ti68     Ti     0.0   0.2108   0.0
V69     V     0.0   0.2109   0.2109
V70     V     0.0   0.7891   0.2109
V71     V     0.7891   0.0   0.2109
Ti72     Ti     0.0   0.0   0.2108
Er73     Er     0.1667   0.8333   0.6667
Er74     Er     0.8333   0.1667   0.6667
Er75     Er     0.6667   0.8333   0.1667
Er76     Er     0.8333   0.6667   0.1667
Er77     Er     0.1667   0.1667   0.6667
Er78     Er     0.8333   0.3333   0.1667
Er79     Er     0.1667   0.6667   0.1667
Er80     Er     0.1667   0.3333   0.8333
Er81     Er     0.6667   0.1667   0.8333
Er82     Er     0.1667   0.6667   0.8333
Er83     Er     0.3333   0.1667   0.8333
Er84     Er     0.3333   0.8333   0.1667
Er85     Er     0.6667   0.1667   0.1667
Er86     Er     0.3333   0.6667   0.6667
Er87     Er     0.6667   0.3333   0.6667
Er88     Er     0.6667   0.6667   0.3333
Er89     Er     0.1667   0.1667   0.3333
Er90     Er     0.8333   0.1667   0.3333
Er91     Er     0.1667   0.8333   0.3333
Er92     Er     0.8333   0.8333   0.6667
Er93     Er     0.3333   0.1667   0.1667
Er94     Er     0.8333   0.6667   0.8333
Er95     Er     0.1667   0.3333   0.1667
Er96     Er     0.6667   0.8333   0.8333
Er97     Er     0.3333   0.6667   0.3333
Er98     Er     0.6667   0.3333   0.3333
Er99     Er     0.3333   0.3333   0.6667
Er100     Er     0.8333   0.8333   0.3333
Er101     Er     0.3333   0.8333   0.8333
Er102     Er     0.8333   0.3333   0.8333
Er103     Er     0.3333   0.3333   0.3333
Er104     Er     0.6667   0.6667   0.6667
loop_
_geom_bond_atom_site_label_1
_geom_bond_atom_site_label_2
_geom_bond_distance
_geom_bond_site_symmetry_2
_ccdc_geom_bond_type
V1     Er89    10.009   .     S
V1     Er93    10.009   .     S
V1     Er84    10.009   1_545     S
V1     Er91    10.009   1_545     S
V1     Ti5    9.983   .     S
V1     Ti18    9.983   .     S
V2     Er85    10.009   .     S
V2     Er93    10.009   .     S
V2     Er103    10.009   .     S
V2     Er98    10.009   .     S
V2     Ti14    9.983   .     S
V2     Ti5    9.983   .     S
V3     Er75    10.009   .     S
V3     Er84    10.009   .     S
V3     Er88    10.009   .     S
V3     Er97    10.009   .     S
V3     Ti10    9.983   .     S
V3     Ti5    9.983   1_565     S
V4     Er90    10.009   .     S
V4     Er100    10.009   1_545     S
V4     Er85    10.009   .     S
V4     Er75    10.009   1_545     S
V4     Ti9    9.983   .     S
V4     Ti5    9.983   .     S
Ti5     V3    9.983   1_545     S
V6     Er96    10.009   .     S
V6     Er101    10.009   .     S
V6     Er86    10.009   .     S
V6     Er104    10.009   .     S
V6     Ti10    9.983   .     S
V6     Ti11    9.983   1_565     S
V7     Er74    10.009   .     S
V7     Er81    10.009   .     S
V7     Er92    10.009   1_545     S
V7     Er96    10.009   1_545     S
V7     Ti9    9.983   .     S
V7     Ti11    9.983   .     S
V8     Er92    10.009   .     S
V8     Er100    10.009   .     S
V8     Er88    10.009   .     S
V8     Er104    10.009   .     S
V8     Ti10    9.983   .     S
V8     Ti9    9.983   1_565     S
Ti9     V8    9.983   1_545     S
Ti9     V12    9.983   .     S
Ti10     V16    9.983   .     S
Ti11     V6    9.983   1_545     S
Ti11     V13    9.983   .     S
Ti11     V17    9.983   .     S
V12     Er74    10.009   .     S
V12     Er90    10.009   .     S
V12     Er87    10.009   .     S
V12     Er98    10.009   .     S
V12     Ti14    9.983   .     S
V13     Er83    10.009   .     S
V13     Er81    10.009   .     S
V13     Er99    10.009   .     S
V13     Er87    10.009   .     S
V13     Ti14    9.983   .     S
Ti14     V15    9.983   .     S
V15     Er77    10.009   .     S
V15     Er89    10.009   .     S
V15     Er103    10.009   .     S
V15     Er99    10.009   .     S
V15     Ti18    9.983   .     S
V16     Er91    10.009   .     S
V16     Er73    10.009   .     S
V16     Er97    10.009   .     S
V16     Er86    10.009   .     S
V16     Ti18    9.983   1_565     S
V17     Er101    10.009   1_545     S
V17     Er83    10.009   .     S
V17     Er73    10.009   1_545     S
V17     Er77    10.009   .     S
V17     Ti18    9.983   .     S
Ti18     V16    9.983   1_545     S
V19     Er93    10.009   .     S
V19     Er95    10.009   .     S
V19     Er80    10.009   1_554     S
V19     Er83    10.009   1_554     S
V19     Ti36    9.983   .     S
V19     Ti23    9.983   .     S
V20     Er85    10.009   .     S
V20     Er93    10.009   .     S
V20     Er103    10.009   .     S
V20     Er98    10.009   .     S
V20     Ti32    9.983   .     S
V20     Ti23    9.983   .     S
V21     Er102    10.009   1_554     S
V21     Er78    10.009   .     S
V21     Er81    10.009   1_554     S
V21     Er85    10.009   .     S
V21     Ti28    9.983   .     S
V21     Ti23    9.983   .     S
V22     Er83    10.009   .     S
V22     Er81    10.009   .     S
V22     Er99    10.009   .     S
V22     Er87    10.009   .     S
V22     Ti27    9.983   .     S
V22     Ti23    9.983   1_556     S
Ti23     V22    9.983   1_554     S
V24     Er75    10.009   .     S
V24     Er94    10.009   1_554     S
V24     Er76    10.009   .     S
V24     Er96    10.009   1_554     S
V24     Ti29    9.983   .     S
V24     Ti28    9.983   .     S
V25     Er96    10.009   .     S
V25     Er101    10.009   .     S
V25     Er86    10.009   .     S
V25     Er104    10.009   .     S
V25     Ti27    9.983   .     S
V25     Ti29    9.983   1_556     S
V26     Er102    10.009   .     S
V26     Er94    10.009   .     S
V26     Er104    10.009   .     S
V26     Er87    10.009   .     S
V26     Ti27    9.983   .     S
V26     Ti28    9.983   1_556     S
Ti27     V35    9.983   .     S
Ti28     V26    9.983   1_554     S
Ti28     V31    9.983   .     S
Ti29     V25    9.983   1_554     S
Ti29     V30    9.983   .     S
Ti29     V34    9.983   .     S
V30     Er75    10.009   .     S
V30     Er84    10.009   .     S
V30     Er88    10.009   .     S
V30     Er97    10.009   .     S
V30     Ti32    9.983   .     S
V31     Er78    10.009   .     S
V31     Er76    10.009   .     S
V31     Er98    10.009   .     S
V31     Er88    10.009   .     S
V31     Ti32    9.983   .     S
Ti32     V33    9.983   .     S
V33     Er95    10.009   .     S
V33     Er79    10.009   .     S
V33     Er97    10.009   .     S
V33     Er103    10.009   .     S
V33     Ti36    9.983   .     S
V34     Er84    10.009   .     S
V34     Er101    10.009   1_554     S
V34     Er79    10.009   .     S
V34     Er82    10.009   1_554     S
V34     Ti36    9.983   .     S
V35     Er82    10.009   .     S
V35     Er80    10.009   .     S
V35     Er86    10.009   .     S
V35     Er99    10.009   .     S
V35     Ti36    9.983   1_556     S
Ti36     V35    9.983   1_554     S
V37     Er95    10.009   .     S
V37     Er89    10.009   .     S
V37     Er90    10.009   1_455     S
V37     Er78    10.009   1_455     S
V37     Ti41    9.983   .     S
V37     Ti54    9.983   .     S
V38     Er95    10.009   .     S
V38     Er79    10.009   .     S
V38     Er97    10.009   .     S
V38     Er103    10.009   .     S
V38     Ti50    9.983   .     S
V38     Ti41    9.983   .     S
V39     Er78    10.009   .     S
V39     Er76    10.009   .     S
V39     Er98    10.009   .     S
V39     Er88    10.009   .     S
V39     Ti47    9.983   .     S
V39     Ti41    9.983   1_655     S
V40     Er100    10.009   1_455     S
V40     Er91    10.009   .     S
V40     Er76    10.009   1_455     S
V40     Er79    10.009   .     S
V40     Ti46    9.983   .     S
V40     Ti41    9.983   .     S
Ti41     V39    9.983   1_455     S
V42     Er92    10.009   .     S
V42     Er100    10.009   .     S
V42     Er88    10.009   .     S
V42     Er104    10.009   .     S
V42     Ti47    9.983   .     S
V42     Ti46    9.983   1_655     S
V43     Er102    10.009   .     S
V43     Er94    10.009   .     S
V43     Er104    10.009   .     S
V43     Er87    10.009   .     S
V43     Ti47    9.983   .     S
V43     Ti45    9.983   1_655     S
V44     Er82    10.009   .     S
V44     Er92    10.009   1_455     S
V44     Er73    10.009   .     S
V44     Er94    10.009   1_455     S
V44     Ti45    9.983   .     S
V44     Ti46    9.983   .     S
Ti45     V43    9.983   1_455     S
Ti45     V49    9.983   .     S
Ti45     V53    9.983   .     S
Ti46     V42    9.983   1_455     S
Ti46     V48    9.983   .     S
Ti47     V52    9.983   .     S
V48     Er91    10.009   .     S
V48     Er73    10.009   .     S
V48     Er97    10.009   .     S
V48     Er86    10.009   .     S
V48     Ti50    9.983   .     S
V49     Er82    10.009   .     S
V49     Er80    10.009   .     S
V49     Er86    10.009   .     S
V49     Er99    10.009   .     S
V49     Ti50    9.983   .     S
Ti50     V51    9.983   .     S
V51     Er77    10.009   .     S
V51     Er89    10.009   .     S
V51     Er103    10.009   .     S
V51     Er99    10.009   .     S
V51     Ti54    9.983   .     S
V52     Er74    10.009   .     S
V52     Er90    10.009   .     S
V52     Er87    10.009   .     S
V52     Er98    10.009   .     S
V52     Ti54    9.983   1_655     S
V53     Er80    10.009   .     S
V53     Er102    10.009   1_455     S
V53     Er77    10.009   .     S
V53     Er74    10.009   1_455     S
V53     Ti54    9.983   .     S
Ti54     V52    9.983   1_455     S
V55     Er93    10.009   .     S
V55     Er95    10.009   .     S
V55     Er80    10.009   1_554     S
V55     Er83    10.009   1_554     S
V55     Ti68    9.983   .     S
V55     Ti58    9.983   .     S
V56     Er84    10.009   .     S
V56     Er101    10.009   1_554     S
V56     Er79    10.009   .     S
V56     Er82    10.009   1_554     S
V56     Ti64    9.983   .     S
V56     Ti58    9.983   1_565     S
V57     Er101    10.009   1_545     S
V57     Er83    10.009   .     S
V57     Er73    10.009   1_545     S
V57     Er77    10.009   .     S
V57     Ti63    9.983   .     S
V57     Ti58    9.983   1_556     S
Ti58     V56    9.983   1_545     S
Ti58     V57    9.983   1_554     S
Ti58     V59    9.983   .     S
V59     Er89    10.009   .     S
V59     Er93    10.009   .     S
V59     Er84    10.009   1_545     S
V59     Er91    10.009   1_545     S
V59     Ti72    9.983   .     S
V60     Er75    10.009   .     S
V60     Er94    10.009   1_554     S
V60     Er76    10.009   .     S
V60     Er96    10.009   1_554     S
V60     Ti65    9.983   1_565     S
V60     Ti64    9.983   1_655     S
V61     Er74    10.009   .     S
V61     Er81    10.009   .     S
V61     Er92    10.009   1_545     S
V61     Er96    10.009   1_545     S
V61     Ti63    9.983   1_655     S
V61     Ti65    9.983   1_556     S
V62     Er82    10.009   .     S
V62     Er92    10.009   1_455     S
V62     Er73    10.009   .     S
V62     Er94    10.009   1_455     S
V62     Ti63    9.983   1_565     S
V62     Ti64    9.983   1_556     S
Ti63     V61    9.983   1_455     S
Ti63     V62    9.983   1_545     S
Ti63     V67    9.983   .     S
Ti64     V60    9.983   1_455     S
Ti64     V62    9.983   1_554     S
Ti64     V70    9.983   .     S
Ti65     V60    9.983   1_545     S
Ti65     V61    9.983   1_554     S
Ti65     V66    9.983   .     S
Ti65     V71    9.983   .     S
V66     Er102    10.009   1_554     S
V66     Er78    10.009   .     S
V66     Er81    10.009   1_554     S
V66     Er85    10.009   .     S
V66     Ti68    9.983   1_655     S
V67     Er80    10.009   .     S
V67     Er102    10.009   1_455     S
V67     Er77    10.009   .     S
V67     Er74    10.009   1_455     S
V67     Ti68    9.983   1_556     S
Ti68     V66    9.983   1_455     S
Ti68     V67    9.983   1_554     S
Ti68     V69    9.983   .     S
V69     Er95    10.009   .     S
V69     Er89    10.009   .     S
V69     Er90    10.009   1_455     S
V69     Er78    10.009   1_455     S
V69     Ti72    9.983   .     S
V70     Er100    10.009   1_455     S
V70     Er91    10.009   .     S
V70     Er76    10.009   1_455     S
V70     Er79    10.009   .     S
V70     Ti72    9.983   1_565     S
V71     Er90    10.009   .     S
V71     Er100    10.009   1_545     S
V71     Er85    10.009   .     S
V71     Er75    10.009   1_545     S
V71     Ti72    9.983   1_655     S
Ti72     V70    9.983   1_545     S
Ti72     V71    9.983   1_455     S
Er73     V57    10.009   1_565     S
Er73     V17    10.009   1_565     S
Er74     V67    10.009   1_655     S
Er74     V53    10.009   1_655     S
Er75     V71    10.009   1_565     S
Er75     V4    10.009   1_565     S
Er76     V70    10.009   1_655     S
Er76     V40    10.009   1_655     S
Er78     V69    10.009   1_655     S
Er78     V37    10.009   1_655     S
Er80     V55    10.009   1_556     S
Er80     V19    10.009   1_556     S
Er81     V66    10.009   1_556     S
Er81     V21    10.009   1_556     S
Er82     V56    10.009   1_556     S
Er82     V34    10.009   1_556     S
Er83     V55    10.009   1_556     S
Er83     V19    10.009   1_556     S
Er84     V59    10.009   1_565     S
Er84     V1    10.009   1_565     S
Er90     V69    10.009   1_655     S
Er90     V37    10.009   1_655     S
Er91     V59    10.009   1_565     S
Er91     V1    10.009   1_565     S
Er92     V62    10.009   1_655     S
Er92     V44    10.009   1_655     S
Er92     V61    10.009   1_565     S
Er92     V7    10.009   1_565     S
Er94     V60    10.009   1_556     S
Er94     V24    10.009   1_556     S
Er94     V62    10.009   1_655     S
Er94     V44    10.009   1_655     S
Er96     V60    10.009   1_556     S
Er96     V24    10.009   1_556     S
Er96     V61    10.009   1_565     S
Er96     V7    10.009   1_565     S
Er100     V71    10.009   1_565     S
Er100     V4    10.009   1_565     S
Er100     V70    10.009   1_655     S
Er100     V40    10.009   1_655     S
Er101     V56    10.009   1_556     S
Er101     V34    10.009   1_556     S
Er101     V57    10.009   1_565     S
Er101     V17    10.009   1_565     S
Er102     V66    10.009   1_556     S
Er102     V21    10.009   1_556     S
Er102     V67    10.009   1_655     S
Er102     V53    10.009   1_655     S
