data_dnoa
_audit_creation_date              2020-02-04
_audit_creation_method            'Pymatgen'
_symmetry_space_group_name_H-M    'P1'
_symmetry_Int_Tables_number       1
loop_
_symmetry_equiv_pos_as_xyz
  x,y,z
_cell_length_a                    64.4119
_cell_length_b                    64.4119
_cell_length_c                    65.1394
_cell_angle_alpha                 90.0
_cell_angle_beta                 90.0
_cell_angle_gamma                 120.0
loop_
_atom_site_label
_atom_site_type_symbol
_atom_site_fract_x
_atom_site_fract_y
_atom_site_fract_z
Er1     Er     0.9102   0.665   0.0767
Er2     Er     0.9102   0.665   0.9233
Ce3     Ce     0.877   0.3609   0.8482
Ce4     Ce     0.877   0.5161   0.8482
Ti5     Ti     0.8263   0.4132   0.7226
Ce6     Ce     0.877   0.5161   0.1518
Ce7     Ce     0.877   0.3609   0.1518
Ti8     Ti     0.8263   0.4132   0.2774
Er9     Er     0.9102   0.2452   0.0767
Er10     Er     0.9102   0.2452   0.9233
Er11     Er     0.7548   0.0898   0.0767
Er12     Er     0.7548   0.0898   0.9233
Ce13     Ce     0.4839   0.123   0.8482
Ce14     Ce     0.6391   0.123   0.8482
Ti15     Ti     0.5868   0.1737   0.7226
Ce16     Ce     0.6391   0.123   0.1518
Ce17     Ce     0.4839   0.123   0.1518
Ti18     Ti     0.5868   0.1737   0.2774
Er19     Er     0.335   0.0898   0.0767
Er20     Er     0.335   0.0898   0.9233
Er21     Er     0.335   0.2452   0.0767
Er22     Er     0.335   0.2452   0.9233
Ce23     Ce     0.4839   0.3609   0.8482
Ce24     Ce     0.6391   0.5161   0.8482
Ti25     Ti     0.5868   0.4132   0.7226
Ce26     Ce     0.4839   0.3609   0.1518
Ce27     Ce     0.6391   0.5161   0.1518
Ti28     Ti     0.5868   0.4132   0.2774
Er29     Er     0.7548   0.665   0.0767
Er30     Er     0.7548   0.665   0.9233
V31     V     0.77   0.385   0.5768
V32     V     0.615   0.385   0.5768
V33     V     0.615   0.23   0.5768
V34     V     0.77   0.385   0.4232
V35     V     0.615   0.385   0.4232
V36     V     0.615   0.23   0.4232
Er37     Er     0.665   0.9102   0.0767
Er38     Er     0.665   0.9102   0.9233
Ce39     Ce     0.3609   0.877   0.8482
Ce40     Ce     0.5161   0.877   0.8482
Ti41     Ti     0.4132   0.8263   0.7226
Ce42     Ce     0.3609   0.877   0.1518
Ce43     Ce     0.5161   0.877   0.1518
Ti44     Ti     0.4132   0.8263   0.2774
Er45     Er     0.2452   0.9102   0.0767
Er46     Er     0.2452   0.9102   0.9233
Er47     Er     0.665   0.7548   0.0767
Er48     Er     0.665   0.7548   0.9233
Ce49     Ce     0.5161   0.6391   0.8482
Ce50     Ce     0.3609   0.4839   0.8482
Ti51     Ti     0.4132   0.5868   0.7226
Ce52     Ce     0.5161   0.6391   0.1518
Ce53     Ce     0.3609   0.4839   0.1518
Ti54     Ti     0.4132   0.5868   0.2774
Er55     Er     0.2452   0.335   0.0767
Er56     Er     0.2452   0.335   0.9233
Er57     Er     0.0898   0.7548   0.0767
Er58     Er     0.0898   0.7548   0.9233
Ce59     Ce     0.123   0.6391   0.8482
Ce60     Ce     0.123   0.4839   0.8482
Ti61     Ti     0.1737   0.5868   0.7226
Ce62     Ce     0.123   0.4839   0.1518
Ce63     Ce     0.123   0.6391   0.1518
Ti64     Ti     0.1737   0.5868   0.2774
Er65     Er     0.0898   0.335   0.0767
Er66     Er     0.0898   0.335   0.9233
V67     V     0.385   0.77   0.5768
V68     V     0.385   0.615   0.5768
V69     V     0.23   0.615   0.5768
V70     V     0.385   0.77   0.4232
V71     V     0.385   0.615   0.4232
V72     V     0.23   0.615   0.4232
loop_
_geom_bond_atom_site_label_1
_geom_bond_atom_site_label_2
_geom_bond_distance
_geom_bond_site_symmetry_2
_ccdc_geom_bond_type
Er1     Er2    9.994   1_554     S
Er1     Ce6    10.001   .     S
Er1     Er57    10.013   1_655     S
Er1     Er29    10.015   .     S
Er2     Er1    9.994   1_556     S
Er2     Ce4    10.001   .     S
Er2     Er58    10.013   1_655     S
Er2     Er30    10.015   .     S
Ce3     Ce4    9.995   .     S
Ce3     Ti5    9.995   .     S
Ce3     Er10    10.001   .     S
Ce4     Ti5    9.995   .     S
Ti5     V31    10.002   .     S
Ce6     Ce7    9.995   .     S
Ce6     Ti8    9.995   .     S
Ce7     Ti8    9.995   .     S
Ce7     Er9    10.001   .     S
Ti8     V34    10.002   .     S
Er9     Er10    9.994   1_554     S
Er9     Er65    10.013   1_655     S
Er9     Er11    10.015   .     S
Er10     Er9    9.994   1_556     S
Er10     Er66    10.013   1_655     S
Er10     Er12    10.015   .     S
Er11     Er12    9.994   1_554     S
Er11     Ce16    10.001   .     S
Er11     Er37    10.013   1_545     S
Er12     Er11    9.994   1_556     S
Er12     Ce14    10.001   .     S
Er12     Er38    10.013   1_545     S
Ce13     Ce14    9.995   .     S
Ce13     Ti15    9.995   .     S
Ce13     Er20    10.001   .     S
Ce14     Ti15    9.995   .     S
Ti15     V33    10.002   .     S
Ce16     Ti18    9.995   .     S
Ce16     Ce17    9.995   .     S
Ce17     Ti18    9.995   .     S
Ce17     Er19    10.001   .     S
Ti18     V36    10.002   .     S
Er19     Er20    9.994   1_554     S
Er19     Er45    10.013   1_545     S
Er19     Er21    10.015   .     S
Er20     Er19    9.994   1_556     S
Er20     Er46    10.013   1_545     S
Er20     Er22    10.015   .     S
Er21     Er22    9.994   1_554     S
Er21     Ce26    10.001   .     S
Er21     Er55    10.013   .     S
Er22     Er21    9.994   1_556     S
Er22     Ce23    10.001   .     S
Er22     Er56    10.013   .     S
Ce23     Ti25    9.995   .     S
Ce23     Ce24    9.995   .     S
Ce24     Ti25    9.995   .     S
Ce24     Er30    10.001   .     S
Ti25     V32    10.002   .     S
Ce26     Ti28    9.995   .     S
Ce26     Ce27    9.995   .     S
Ce27     Ti28    9.995   .     S
Ce27     Er29    10.001   .     S
Ti28     V35    10.002   .     S
Er29     Er30    9.994   1_554     S
Er29     Er47    10.013   .     S
Er30     Er29    9.994   1_556     S
Er30     Er48    10.013   .     S
V31     V34    10.002   .     S
V31     V32    9.989   .     S
V31     V33    9.989   .     S
V32     V35    10.002   .     S
V32     V33    9.989   .     S
V33     V36    10.002   .     S
V34     V35    9.989   .     S
V34     V36    9.989   .     S
V35     V36    9.989   .     S
Er37     Er38    9.994   1_554     S
Er37     Ce43    10.001   .     S
Er37     Er11    10.013   1_565     S
Er37     Er47    10.015   .     S
Er38     Er37    9.994   1_556     S
Er38     Ce40    10.001   .     S
Er38     Er12    10.013   1_565     S
Er38     Er48    10.015   .     S
Ce39     Ce40    9.995   .     S
Ce39     Ti41    9.995   .     S
Ce39     Er46    10.001   .     S
Ce40     Ti41    9.995   .     S
Ti41     V67    10.002   .     S
Ce42     Ce43    9.995   .     S
Ce42     Ti44    9.995   .     S
Ce42     Er45    10.001   .     S
Ce43     Ti44    9.995   .     S
Ti44     V70    10.002   .     S
Er45     Er46    9.994   1_554     S
Er45     Er19    10.013   1_565     S
Er45     Er57    10.015   .     S
Er46     Er45    9.994   1_556     S
Er46     Er20    10.013   1_565     S
Er46     Er58    10.015   .     S
Er47     Er48    9.994   1_554     S
Er47     Ce52    10.001   .     S
Er48     Er47    9.994   1_556     S
Er48     Ce49    10.001   .     S
Ce49     Ce50    9.995   .     S
Ce49     Ti51    9.995   .     S
Ce50     Ti51    9.995   .     S
Ce50     Er56    10.001   .     S
Ti51     V68    10.002   .     S
Ce52     Ce53    9.995   .     S
Ce52     Ti54    9.995   .     S
Ce53     Ti54    9.995   .     S
Ce53     Er55    10.001   .     S
Ti54     V71    10.002   .     S
Er55     Er56    9.994   1_554     S
Er55     Er65    10.015   .     S
Er56     Er55    9.994   1_556     S
Er56     Er66    10.015   .     S
Er57     Er58    9.994   1_554     S
Er57     Ce63    10.001   .     S
Er57     Er1    10.013   1_455     S
Er58     Er57    9.994   1_556     S
Er58     Ce59    10.001   .     S
Er58     Er2    10.013   1_455     S
Ce59     Ce60    9.995   .     S
Ce59     Ti61    9.995   .     S
Ce60     Ti61    9.995   .     S
Ce60     Er66    10.001   .     S
Ti61     V69    10.002   .     S
Ce62     Ti64    9.995   .     S
Ce62     Ce63    9.995   .     S
Ce62     Er65    10.001   .     S
Ce63     Ti64    9.995   .     S
Ti64     V72    10.002   .     S
Er65     Er66    9.994   1_554     S
Er65     Er9    10.013   1_455     S
Er66     Er65    9.994   1_556     S
Er66     Er10    10.013   1_455     S
V67     V70    10.002   .     S
V67     V69    9.989   .     S
V67     V68    9.989   .     S
V68     V71    10.002   .     S
V68     V69    9.989   .     S
V69     V72    10.002   .     S
V70     V71    9.989   .     S
V70     V72    9.989   .     S
V71     V72    9.989   .     S
