data_dnt
_audit_creation_date              2020-02-04
_audit_creation_method            'Pymatgen'
_symmetry_space_group_name_H-M    'P1'
_symmetry_Int_Tables_number       1
loop_
_symmetry_equiv_pos_as_xyz
  x,y,z
_cell_length_a                    43.4766
_cell_length_b                    43.4766
_cell_length_c                    43.4766
_cell_angle_alpha                 90.0
_cell_angle_beta                 90.0
_cell_angle_gamma                 90.0
loop_
_atom_site_label
_atom_site_type_symbol
_atom_site_fract_x
_atom_site_fract_y
_atom_site_fract_z
Ti1     Ti     0.2924   0.5991   0.0
Ti2     Ti     0.2924   0.5   0.0991
Ti3     Ti     0.2924   0.5   0.9009
Ti4     Ti     0.2924   0.4009   0.0
Ti5     Ti     0.7076   0.5   0.0991
Ti6     Ti     0.7076   0.5991   0.0
Ti7     Ti     0.7076   0.4009   0.0
Ti8     Ti     0.7076   0.5   0.9009
Ti9     Ti     0.0   0.5991   0.2924
Ti10     Ti     0.0991   0.5   0.2924
Ti11     Ti     0.0   0.4009   0.2924
Ti12     Ti     0.9009   0.5   0.2924
Ti13     Ti     0.0991   0.2076   0.0
Ti14     Ti     0.0   0.2076   0.0991
Ti15     Ti     0.0   0.2076   0.9009
Ti16     Ti     0.9009   0.2076   0.0
Er17     Er     0.8158   0.3157   0.1842
Er18     Er     0.1842   0.3157   0.8158
Ti19     Ti     0.0   0.5991   0.7076
Ti20     Ti     0.0991   0.5   0.7076
Ti21     Ti     0.9009   0.5   0.7076
Ti22     Ti     0.0   0.4009   0.7076
Ti23     Ti     0.0991   0.7924   0.0
Ti24     Ti     0.0   0.7924   0.0991
Ti25     Ti     0.0   0.7924   0.9009
Ti26     Ti     0.9009   0.7924   0.0
Er27     Er     0.8158   0.6842   0.8158
Er28     Er     0.1842   0.6842   0.8158
Er29     Er     0.8158   0.6842   0.1842
Er30     Er     0.8158   0.3157   0.8158
Er31     Er     0.1842   0.3157   0.1842
Er32     Er     0.1842   0.6842   0.1842
Ti33     Ti     0.5991   0.7076   0.0
Ti34     Ti     0.5   0.7076   0.0991
Ti35     Ti     0.5   0.7076   0.9009
Ti36     Ti     0.4009   0.7076   0.0
Ti37     Ti     0.5   0.2924   0.0991
Ti38     Ti     0.5991   0.2924   0.0
Ti39     Ti     0.4009   0.2924   0.0
Ti40     Ti     0.5   0.2924   0.9009
Ti41     Ti     0.5991   0.0   0.2924
Ti42     Ti     0.5   0.0991   0.2924
Ti43     Ti     0.5   0.9009   0.2924
Ti44     Ti     0.4009   0.0   0.2924
Ti45     Ti     0.2076   0.0991   0.0
Ti46     Ti     0.2076   0.0   0.0991
Ti47     Ti     0.2076   0.0   0.9009
Ti48     Ti     0.2076   0.9009   0.0
Er49     Er     0.3157   0.1842   0.8158
Er50     Er     0.3157   0.8158   0.1842
Ti51     Ti     0.5   0.0991   0.7076
Ti52     Ti     0.5991   0.0   0.7076
Ti53     Ti     0.4009   0.0   0.7076
Ti54     Ti     0.5   0.9009   0.7076
Ti55     Ti     0.7924   0.0991   0.0
Ti56     Ti     0.7924   0.0   0.0991
Ti57     Ti     0.7924   0.0   0.9009
Ti58     Ti     0.7924   0.9009   0.0
Er59     Er     0.6842   0.8158   0.1842
Er60     Er     0.6842   0.1842   0.8158
Er61     Er     0.6842   0.8158   0.8158
Er62     Er     0.3157   0.8158   0.8158
Er63     Er     0.3157   0.1842   0.1842
Er64     Er     0.6842   0.1842   0.1842
V65     V     0.0   0.0   0.0
Ti66     Ti     0.7076   0.0   0.5991
Ti67     Ti     0.7076   0.0991   0.5
Ti68     Ti     0.7076   0.0   0.4009
Ti69     Ti     0.7076   0.9009   0.5
Ti70     Ti     0.2924   0.0   0.5991
Ti71     Ti     0.2924   0.0991   0.5
Ti72     Ti     0.2924   0.0   0.4009
Ti73     Ti     0.2924   0.9009   0.5
Ti74     Ti     0.0   0.2924   0.5991
Ti75     Ti     0.0991   0.2924   0.5
Ti76     Ti     0.0   0.2924   0.4009
Ti77     Ti     0.9009   0.2924   0.5
Ti78     Ti     0.0   0.0991   0.2076
Ti79     Ti     0.0991   0.0   0.2076
Ti80     Ti     0.9009   0.0   0.2076
Ti81     Ti     0.0   0.9009   0.2076
Er82     Er     0.8158   0.1842   0.3157
Er83     Er     0.1842   0.8158   0.3157
Ti84     Ti     0.0   0.7076   0.5991
Ti85     Ti     0.0991   0.7076   0.5
Ti86     Ti     0.0   0.7076   0.4009
Ti87     Ti     0.9009   0.7076   0.5
Ti88     Ti     0.0991   0.0   0.7924
Ti89     Ti     0.0   0.0991   0.7924
Ti90     Ti     0.0   0.9009   0.7924
Ti91     Ti     0.9009   0.0   0.7924
Er92     Er     0.1842   0.8158   0.6842
Er93     Er     0.8158   0.1842   0.6842
Er94     Er     0.8158   0.8158   0.6842
Er95     Er     0.8158   0.8158   0.3157
Er96     Er     0.1842   0.1842   0.3157
Er97     Er     0.1842   0.1842   0.6842
V98     V     0.5   0.5   0.0
V99     V     0.5   0.0   0.5
V100     V     0.0   0.5   0.5
Ti101     Ti     0.5   0.4009   0.7924
Ti102     Ti     0.5991   0.5   0.7924
Ti103     Ti     0.5   0.5991   0.7924
Ti104     Ti     0.4009   0.5   0.7924
Ti105     Ti     0.5   0.5991   0.2076
Ti106     Ti     0.5991   0.5   0.2076
Ti107     Ti     0.5   0.4009   0.2076
Ti108     Ti     0.4009   0.5   0.2076
Ti109     Ti     0.5   0.2076   0.5991
Ti110     Ti     0.5991   0.2076   0.5
Ti111     Ti     0.4009   0.2076   0.5
Ti112     Ti     0.5   0.2076   0.4009
Ti113     Ti     0.2076   0.5   0.5991
Ti114     Ti     0.2076   0.5991   0.5
Ti115     Ti     0.2076   0.5   0.4009
Ti116     Ti     0.2076   0.4009   0.5
Ti117     Ti     0.5   0.7924   0.5991
Ti118     Ti     0.5991   0.7924   0.5
Ti119     Ti     0.5   0.7924   0.4009
Ti120     Ti     0.4009   0.7924   0.5
Ti121     Ti     0.7924   0.5   0.4009
Ti122     Ti     0.7924   0.5991   0.5
Ti123     Ti     0.7924   0.5   0.5991
Ti124     Ti     0.7924   0.4009   0.5
Er125     Er     0.6842   0.3157   0.6842
Er126     Er     0.6842   0.6842   0.3157
Er127     Er     0.6842   0.6842   0.6842
Er128     Er     0.3157   0.6842   0.6842
Er129     Er     0.3157   0.6842   0.3157
Er130     Er     0.3157   0.3157   0.6842
Er131     Er     0.6842   0.3157   0.3157
Er132     Er     0.3157   0.3157   0.3157
loop_
_geom_bond_atom_site_label_1
_geom_bond_atom_site_label_2
_geom_bond_distance
_geom_bond_site_symmetry_2
_ccdc_geom_bond_type
Ti1     Er32    10.0   .     S
Ti1     Er28    10.0   1_554     S
Ti1     V98    10.0   .     S
Ti2     Er31    10.0   .     S
Ti2     Er32    10.0   .     S
Ti2     V98    10.0   .     S
Ti3     Er18    10.0   .     S
Ti3     Er28    10.0   .     S
Ti3     V98    10.0   1_556     S
Ti4     Er18    10.0   1_554     S
Ti4     Er31    10.0   .     S
Ti4     V98    10.0   .     S
Ti5     Er17    10.0   .     S
Ti5     Er29    10.0   .     S
Ti5     V98    10.0   .     S
Ti6     Er27    10.0   1_554     S
Ti6     Er29    10.0   .     S
Ti6     V98    10.0   .     S
Ti7     Er30    10.0   1_554     S
Ti7     Er17    10.0   .     S
Ti7     V98    10.0   .     S
Ti8     Er30    10.0   .     S
Ti8     Er27    10.0   .     S
Ti8     V98    10.0   1_556     S
Ti9     Er29    10.0   1_455     S
Ti9     Er32    10.0   .     S
Ti9     V100    10.0   .     S
Ti10     Er31    10.0   .     S
Ti10     Er32    10.0   .     S
Ti10     V100    10.0   .     S
Ti11     Er17    10.0   1_455     S
Ti11     Er31    10.0   .     S
Ti11     V100    10.0   .     S
Ti12     Er17    10.0   .     S
Ti12     Er29    10.0   .     S
Ti12     V100    10.0   1_655     S
Ti13     Er31    10.0   .     S
Ti13     Er18    10.0   1_554     S
Ti13     V65    10.0   .     S
Ti14     Er17    10.0   1_455     S
Ti14     Er31    10.0   .     S
Ti14     V65    10.0   .     S
Ti15     Er30    10.0   1_455     S
Ti15     Er18    10.0   .     S
Ti15     V65    10.0   1_556     S
Ti16     Er30    10.0   1_554     S
Ti16     Er17    10.0   .     S
Ti16     V65    10.0   1_655     S
Er17     Ti11    10.0   1_655     S
Er17     Ti14    10.0   1_655     S
Er18     Ti4    10.0   1_556     S
Er18     Ti13    10.0   1_556     S
Er18     Ti20    10.0   .     S
Er18     Ti22    10.0   .     S
Ti19     Er27    10.0   1_455     S
Ti19     Er28    10.0   .     S
Ti19     V100    10.0   .     S
Ti20     Er28    10.0   .     S
Ti20     V100    10.0   .     S
Ti21     Er30    10.0   .     S
Ti21     Er27    10.0   .     S
Ti21     V100    10.0   1_655     S
Ti22     Er30    10.0   1_455     S
Ti22     V100    10.0   .     S
Ti23     Er32    10.0   .     S
Ti23     Er28    10.0   1_554     S
Ti23     V65    10.0   1_565     S
Ti24     Er29    10.0   1_455     S
Ti24     Er32    10.0   .     S
Ti24     V65    10.0   1_565     S
Ti25     Er27    10.0   1_455     S
Ti25     Er28    10.0   .     S
Ti25     V65    10.0   1_566     S
Ti26     Er27    10.0   1_554     S
Ti26     Er29    10.0   .     S
Ti26     V65    10.0   1_665     S
Er27     Ti6    10.0   1_556     S
Er27     Ti19    10.0   1_655     S
Er27     Ti25    10.0   1_655     S
Er27     Ti26    10.0   1_556     S
Er28     Ti1    10.0   1_556     S
Er28     Ti23    10.0   1_556     S
Er29     Ti9    10.0   1_655     S
Er29     Ti24    10.0   1_655     S
Er30     Ti7    10.0   1_556     S
Er30     Ti16    10.0   1_556     S
Er30     Ti15    10.0   1_655     S
Er30     Ti22    10.0   1_655     S
Ti33     Er59    10.0   .     S
Ti33     Er61    10.0   1_554     S
Ti33     V98    10.0   .     S
Ti34     Er50    10.0   .     S
Ti34     Er59    10.0   .     S
Ti34     V98    10.0   .     S
Ti35     Er62    10.0   .     S
Ti35     Er61    10.0   .     S
Ti35     V98    10.0   1_556     S
Ti36     Er62    10.0   1_554     S
Ti36     Er50    10.0   .     S
Ti36     V98    10.0   .     S
Ti37     Er63    10.0   .     S
Ti37     Er64    10.0   .     S
Ti37     V98    10.0   .     S
Ti38     Er60    10.0   1_554     S
Ti38     Er64    10.0   .     S
Ti38     V98    10.0   .     S
Ti39     Er49    10.0   1_554     S
Ti39     Er63    10.0   .     S
Ti39     V98    10.0   .     S
Ti40     Er49    10.0   .     S
Ti40     Er60    10.0   .     S
Ti40     V98    10.0   1_556     S
Ti41     Er64    10.0   .     S
Ti41     Er59    10.0   1_545     S
Ti41     V99    10.0   .     S
Ti42     Er63    10.0   .     S
Ti42     Er64    10.0   .     S
Ti42     V99    10.0   .     S
Ti43     Er50    10.0   .     S
Ti43     Er59    10.0   .     S
Ti43     V99    10.0   1_565     S
Ti44     Er50    10.0   1_545     S
Ti44     Er63    10.0   .     S
Ti44     V99    10.0   .     S
Ti45     Er63    10.0   .     S
Ti45     Er49    10.0   1_554     S
Ti45     V65    10.0   .     S
Ti46     Er50    10.0   1_545     S
Ti46     Er63    10.0   .     S
Ti46     V65    10.0   .     S
Ti47     Er62    10.0   1_545     S
Ti47     Er49    10.0   .     S
Ti47     V65    10.0   1_556     S
Ti48     Er62    10.0   1_554     S
Ti48     Er50    10.0   .     S
Ti48     V65    10.0   1_565     S
Er49     Ti39    10.0   1_556     S
Er49     Ti45    10.0   1_556     S
Er49     Ti53    10.0   .     S
Er49     Ti51    10.0   .     S
Er50     Ti44    10.0   1_565     S
Er50     Ti46    10.0   1_565     S
Ti51     Er60    10.0   .     S
Ti51     V99    10.0   .     S
Ti52     Er61    10.0   1_545     S
Ti52     Er60    10.0   .     S
Ti52     V99    10.0   .     S
Ti53     Er62    10.0   1_545     S
Ti53     V99    10.0   .     S
Ti54     Er62    10.0   .     S
Ti54     Er61    10.0   .     S
Ti54     V99    10.0   1_565     S
Ti55     Er64    10.0   .     S
Ti55     Er60    10.0   1_554     S
Ti55     V65    10.0   1_655     S
Ti56     Er59    10.0   1_545     S
Ti56     Er64    10.0   .     S
Ti56     V65    10.0   1_655     S
Ti57     Er61    10.0   1_545     S
Ti57     Er60    10.0   .     S
Ti57     V65    10.0   1_656     S
Ti58     Er61    10.0   1_554     S
Ti58     Er59    10.0   .     S
Ti58     V65    10.0   1_665     S
Er59     Ti41    10.0   1_565     S
Er59     Ti56    10.0   1_565     S
Er60     Ti38    10.0   1_556     S
Er60     Ti55    10.0   1_556     S
Er61     Ti33    10.0   1_556     S
Er61     Ti52    10.0   1_565     S
Er61     Ti58    10.0   1_556     S
Er61     Ti57    10.0   1_565     S
Er62     Ti36    10.0   1_556     S
Er62     Ti47    10.0   1_565     S
Er62     Ti48    10.0   1_556     S
Er62     Ti53    10.0   1_565     S
V65     Ti24    10.0   1_545     S
V65     Ti23    10.0   1_545     S
V65     Ti25    10.0   1_544     S
V65     Ti26    10.0   1_445     S
V65     Ti56    10.0   1_455     S
V65     Ti55    10.0   1_455     S
V65     Ti57    10.0   1_454     S
V65     Ti58    10.0   1_445     S
V65     Ti88    10.0   1_554     S
V65     Ti89    10.0   1_554     S
V65     Ti90    10.0   1_544     S
V65     Ti91    10.0   1_454     S
V65     Ti15    10.0   1_554     S
V65     Ti16    10.0   1_455     S
V65     Ti78    10.0   .     S
V65     Ti79    10.0   .     S
V65     Ti80    10.0   1_455     S
V65     Ti81    10.0   1_545     S
V65     Ti47    10.0   1_554     S
V65     Ti48    10.0   1_545     S
Ti66     Er93    10.0   .     S
Ti66     Er94    10.0   1_545     S
Ti66     V99    10.0   .     S
Ti67     Er82    10.0   .     S
Ti67     Er93    10.0   .     S
Ti67     V99    10.0   .     S
Ti68     Er82    10.0   .     S
Ti68     Er95    10.0   1_545     S
Ti68     V99    10.0   .     S
Ti69     Er94    10.0   .     S
Ti69     Er95    10.0   .     S
Ti69     V99    10.0   1_565     S
Ti70     Er92    10.0   1_545     S
Ti70     Er97    10.0   .     S
Ti70     V99    10.0   .     S
Ti71     Er96    10.0   .     S
Ti71     Er97    10.0   .     S
Ti71     V99    10.0   .     S
Ti72     Er83    10.0   1_545     S
Ti72     Er96    10.0   .     S
Ti72     V99    10.0   .     S
Ti73     Er83    10.0   .     S
Ti73     Er92    10.0   .     S
Ti73     V99    10.0   1_565     S
Ti74     Er97    10.0   .     S
Ti74     Er93    10.0   1_455     S
Ti74     V100    10.0   .     S
Ti75     Er96    10.0   .     S
Ti75     Er97    10.0   .     S
Ti75     V100    10.0   .     S
Ti76     Er96    10.0   .     S
Ti76     Er82    10.0   1_455     S
Ti76     V100    10.0   .     S
Ti77     Er93    10.0   .     S
Ti77     Er82    10.0   .     S
Ti77     V100    10.0   1_655     S
Ti78     Er96    10.0   .     S
Ti78     Er82    10.0   1_455     S
Ti79     Er83    10.0   1_545     S
Ti79     Er96    10.0   .     S
Ti80     V65    10.0   1_655     S
Ti80     Er95    10.0   1_545     S
Ti80     Er82    10.0   .     S
Ti81     V65    10.0   1_565     S
Ti81     Er95    10.0   1_455     S
Ti81     Er83    10.0   .     S
Er82     Ti76    10.0   1_655     S
Er82     Ti78    10.0   1_655     S
Er83     Ti72    10.0   1_565     S
Er83     Ti79    10.0   1_565     S
Er83     Ti86    10.0   .     S
Er83     Ti85    10.0   .     S
Ti84     Er94    10.0   1_455     S
Ti84     Er92    10.0   .     S
Ti84     V100    10.0   .     S
Ti85     Er92    10.0   .     S
Ti85     V100    10.0   .     S
Ti86     Er95    10.0   1_455     S
Ti86     V100    10.0   .     S
Ti87     Er95    10.0   .     S
Ti87     Er94    10.0   .     S
Ti87     V100    10.0   1_655     S
Ti88     V65    10.0   1_556     S
Ti88     Er97    10.0   .     S
Ti88     Er92    10.0   1_545     S
Ti89     V65    10.0   1_556     S
Ti89     Er93    10.0   1_455     S
Ti89     Er97    10.0   .     S
Ti90     V65    10.0   1_566     S
Ti90     Er94    10.0   1_455     S
Ti90     Er92    10.0   .     S
Ti91     V65    10.0   1_656     S
Ti91     Er94    10.0   1_545     S
Ti91     Er93    10.0   .     S
Er92     Ti70    10.0   1_565     S
Er92     Ti88    10.0   1_565     S
Er93     Ti74    10.0   1_655     S
Er93     Ti89    10.0   1_655     S
Er94     Ti66    10.0   1_565     S
Er94     Ti84    10.0   1_655     S
Er94     Ti91    10.0   1_565     S
Er94     Ti90    10.0   1_655     S
Er95     Ti68    10.0   1_565     S
Er95     Ti81    10.0   1_655     S
Er95     Ti80    10.0   1_565     S
Er95     Ti86    10.0   1_655     S
V98     Ti8    10.0   1_554     S
V98     Ti35    10.0   1_554     S
V98     Ti102    10.0   1_554     S
V98     Ti103    10.0   1_554     S
V98     Ti101    10.0   1_554     S
V98     Ti104    10.0   1_554     S
V98     Ti105    10.0   .     S
V98     Ti106    10.0   .     S
V98     Ti108    10.0   .     S
V98     Ti107    10.0   .     S
V98     Ti3    10.0   1_554     S
V98     Ti40    10.0   1_554     S
V99     Ti69    10.0   1_545     S
V99     Ti54    10.0   1_545     S
V99     Ti117    10.0   1_545     S
V99     Ti118    10.0   1_545     S
V99     Ti119    10.0   1_545     S
V99     Ti120    10.0   1_545     S
V99     Ti109    10.0   .     S
V99     Ti110    10.0   .     S
V99     Ti112    10.0   .     S
V99     Ti111    10.0   .     S
V99     Ti43    10.0   1_545     S
V99     Ti73    10.0   1_545     S
V100     Ti123    10.0   1_455     S
V100     Ti122    10.0   1_455     S
V100     Ti121    10.0   1_455     S
V100     Ti124    10.0   1_455     S
V100     Ti87    10.0   1_455     S
V100     Ti21    10.0   1_455     S
V100     Ti113    10.0   .     S
V100     Ti114    10.0   .     S
V100     Ti115    10.0   .     S
V100     Ti116    10.0   .     S
V100     Ti77    10.0   1_455     S
V100     Ti12    10.0   1_455     S
Ti101     V98    10.0   1_556     S
Ti101     Er130    10.0   .     S
Ti101     Er125    10.0   .     S
Ti102     V98    10.0   1_556     S
Ti102     Er127    10.0   .     S
Ti102     Er125    10.0   .     S
Ti103     V98    10.0   1_556     S
Ti103     Er128    10.0   .     S
Ti103     Er127    10.0   .     S
Ti104     V98    10.0   1_556     S
Ti104     Er130    10.0   .     S
Ti104     Er128    10.0   .     S
Ti105     Er129    10.0   .     S
Ti105     Er126    10.0   .     S
Ti106     Er131    10.0   .     S
Ti106     Er126    10.0   .     S
Ti107     Er132    10.0   .     S
Ti107     Er131    10.0   .     S
Ti108     Er129    10.0   .     S
Ti108     Er132    10.0   .     S
Ti109     Er130    10.0   .     S
Ti109     Er125    10.0   .     S
Ti110     Er131    10.0   .     S
Ti110     Er125    10.0   .     S
Ti111     Er132    10.0   .     S
Ti111     Er130    10.0   .     S
Ti112     Er131    10.0   .     S
Ti112     Er132    10.0   .     S
Ti113     Er130    10.0   .     S
Ti113     Er128    10.0   .     S
Ti114     Er129    10.0   .     S
Ti114     Er128    10.0   .     S
Ti115     Er132    10.0   .     S
Ti115     Er129    10.0   .     S
Ti116     Er130    10.0   .     S
Ti116     Er132    10.0   .     S
Ti117     V99    10.0   1_565     S
Ti117     Er128    10.0   .     S
Ti117     Er127    10.0   .     S
Ti118     V99    10.0   1_565     S
Ti118     Er126    10.0   .     S
Ti118     Er127    10.0   .     S
Ti119     V99    10.0   1_565     S
Ti119     Er129    10.0   .     S
Ti119     Er126    10.0   .     S
Ti120     V99    10.0   1_565     S
Ti120     Er128    10.0   .     S
Ti120     Er129    10.0   .     S
Ti121     V100    10.0   1_655     S
Ti121     Er131    10.0   .     S
Ti121     Er126    10.0   .     S
Ti122     V100    10.0   1_655     S
Ti122     Er127    10.0   .     S
Ti122     Er126    10.0   .     S
Ti123     V100    10.0   1_655     S
Ti123     Er125    10.0   .     S
Ti123     Er127    10.0   .     S
Ti124     V100    10.0   1_655     S
Ti124     Er131    10.0   .     S
Ti124     Er125    10.0   .     S
