data_dnva
_audit_creation_date              2020-02-04
_audit_creation_method            'Pymatgen'
_symmetry_space_group_name_H-M    'P1'
_symmetry_Int_Tables_number       1
loop_
_symmetry_equiv_pos_as_xyz
  x,y,z
_cell_length_a                    71.9126
_cell_length_b                    71.9126
_cell_length_c                    71.9126
_cell_angle_alpha                 90.0
_cell_angle_beta                 90.0
_cell_angle_gamma                 90.0
loop_
_atom_site_label
_atom_site_type_symbol
_atom_site_fract_x
_atom_site_fract_y
_atom_site_fract_z
Ti1     Ti     0.4016   0.5   0.5
Ti2     Ti     0.5   0.4016   0.5
Ti3     Ti     0.5   0.5   0.4016
Ti4     Ti     0.5   0.5   0.5984
Ti5     Ti     0.5984   0.5   0.5
Ti6     Ti     0.5   0.5984   0.5
Ti7     Ti     0.0   0.0   0.9016
Ti8     Ti     0.0984   0.0   0.0
Ti9     Ti     0.0   0.0   0.0984
Ti10     Ti     0.0   0.0984   0.0
Ti11     Ti     0.9016   0.0   0.0
Ti12     Ti     0.0   0.9016   0.0
Er13     Er     0.4018   0.8366   0.5
Er14     Er     0.5   0.8366   0.4018
Er15     Er     0.5   0.8366   0.5982
Er16     Er     0.5982   0.8366   0.5
V17     V     0.5   0.738   0.5
Er18     Er     0.8366   0.4018   0.5
Er19     Er     0.8366   0.5   0.4018
Er20     Er     0.8366   0.5   0.5982
Er21     Er     0.8366   0.5982   0.5
V22     V     0.738   0.5   0.5
Er23     Er     0.5   0.4018   0.8366
Er24     Er     0.4018   0.5   0.8366
Er25     Er     0.5   0.5982   0.8366
Er26     Er     0.5982   0.5   0.8366
V27     V     0.5   0.5   0.738
Er28     Er     0.6634   0.0   0.9018
Er29     Er     0.6634   0.9018   0.0
Er30     Er     0.6634   0.0   0.0982
Er31     Er     0.6634   0.0982   0.0
V32     V     0.762   0.0   0.0
Ce33     Ce     0.5   0.9306   0.2992
Ce34     Ce     0.5   0.0694   0.2992
Ce35     Ce     0.5694   0.0   0.2008
Ce36     Ce     0.4306   0.0   0.2008
Ce37     Ce     0.5694   0.7992   0.0
Ce38     Ce     0.4306   0.7992   0.0
Ce39     Ce     0.5   0.7008   0.9306
Ce40     Ce     0.5   0.7008   0.0694
Ce41     Ce     0.5694   0.0   0.7992
Ce42     Ce     0.4306   0.0   0.7992
Ce43     Ce     0.5   0.9306   0.7008
Ce44     Ce     0.5   0.0694   0.7008
Er45     Er     0.3366   0.9018   0.0
Er46     Er     0.3366   0.0   0.9018
Er47     Er     0.3366   0.0982   0.0
Er48     Er     0.3366   0.0   0.0982
V49     V     0.238   0.0   0.0
Ce50     Ce     0.5694   0.2008   0.0
Ce51     Ce     0.4306   0.2008   0.0
Ce52     Ce     0.5   0.2992   0.9306
Ce53     Ce     0.5   0.2992   0.0694
Er54     Er     0.9018   0.6634   0.0
Er55     Er     0.0   0.6634   0.9018
Er56     Er     0.0   0.6634   0.0982
Er57     Er     0.0982   0.6634   0.0
V58     V     0.0   0.762   0.0
Er59     Er     0.5   0.4018   0.1634
Er60     Er     0.4018   0.5   0.1634
Er61     Er     0.5982   0.5   0.1634
Er62     Er     0.5   0.5982   0.1634
V63     V     0.5   0.5   0.262
Ce64     Ce     0.2992   0.5   0.9306
Ce65     Ce     0.2992   0.5   0.0694
Ce66     Ce     0.2008   0.5694   0.0
Ce67     Ce     0.2008   0.4306   0.0
Ce68     Ce     0.7992   0.5694   0.0
Ce69     Ce     0.7992   0.4306   0.0
Ce70     Ce     0.7008   0.5   0.9306
Ce71     Ce     0.7008   0.5   0.0694
Ce72     Ce     0.0   0.5694   0.7992
Ce73     Ce     0.0   0.4306   0.7992
Ce74     Ce     0.9306   0.5   0.7008
Ce75     Ce     0.0694   0.5   0.7008
Er76     Er     0.0   0.3366   0.9018
Er77     Er     0.9018   0.3366   0.0
Er78     Er     0.0   0.3366   0.0982
Er79     Er     0.0982   0.3366   0.0
V80     V     0.0   0.238   0.0
Ce81     Ce     0.0   0.5694   0.2008
Ce82     Ce     0.0   0.4306   0.2008
Ce83     Ce     0.9306   0.5   0.2992
Ce84     Ce     0.0694   0.5   0.2992
Er85     Er     0.9018   0.0   0.6634
Er86     Er     0.0   0.9018   0.6634
Er87     Er     0.0982   0.0   0.6634
Er88     Er     0.0   0.0982   0.6634
V89     V     0.0   0.0   0.762
Er90     Er     0.5   0.1634   0.4018
Er91     Er     0.4018   0.1634   0.5
Er92     Er     0.5   0.1634   0.5982
Er93     Er     0.5982   0.1634   0.5
V94     V     0.5   0.262   0.5
Ce95     Ce     0.2992   0.9306   0.5
Ce96     Ce     0.2992   0.0694   0.5
Ce97     Ce     0.2008   0.0   0.5694
Ce98     Ce     0.2008   0.0   0.4306
Er99     Er     0.1634   0.5   0.4018
Er100     Er     0.1634   0.4018   0.5
Er101     Er     0.1634   0.5   0.5982
Er102     Er     0.1634   0.5982   0.5
V103     V     0.262   0.5   0.5
Ce104     Ce     0.9306   0.2992   0.5
Ce105     Ce     0.0694   0.2992   0.5
Ce106     Ce     0.0   0.2008   0.5694
Ce107     Ce     0.0   0.2008   0.4306
Ce108     Ce     0.0   0.7992   0.5694
Ce109     Ce     0.0   0.7992   0.4306
Ce110     Ce     0.9306   0.7008   0.5
Ce111     Ce     0.0694   0.7008   0.5
Ce112     Ce     0.7992   0.0   0.5694
Ce113     Ce     0.7992   0.0   0.4306
Ce114     Ce     0.7008   0.9306   0.5
Ce115     Ce     0.7008   0.0694   0.5
Er116     Er     0.0   0.9018   0.3366
Er117     Er     0.9018   0.0   0.3366
Er118     Er     0.0   0.0982   0.3366
Er119     Er     0.0982   0.0   0.3366
V120     V     0.0   0.0   0.238
loop_
_geom_bond_atom_site_label_1
_geom_bond_atom_site_label_2
_geom_bond_distance
_geom_bond_site_symmetry_2
_ccdc_geom_bond_type
Ti1     Ti4    10.005   .     S
Ti1     Ti6    10.005   .     S
Ti1     Ti3    10.005   .     S
Ti1     Ti2    10.005   .     S
Ti1     V103    10.042   .     S
Ti2     Ti4    10.005   .     S
Ti2     Ti5    10.005   .     S
Ti2     Ti3    10.005   .     S
Ti2     V94    10.042   .     S
Ti3     Ti5    10.005   .     S
Ti3     Ti6    10.005   .     S
Ti3     V63    10.042   .     S
Ti4     Ti6    10.005   .     S
Ti4     Ti5    10.005   .     S
Ti4     V27    10.042   .     S
Ti5     Ti6    10.005   .     S
Ti5     V22    10.042   .     S
Ti6     V17    10.042   .     S
Ti7     Ti8    10.005   1_556     S
Ti7     Ti12    10.005   1_546     S
Ti7     Ti10    10.005   1_556     S
Ti7     Ti11    10.005   1_456     S
Ti7     V89    10.042   .     S
Ti8     Ti7    10.005   1_554     S
Ti8     Ti9    10.005   .     S
Ti8     Ti10    10.005   .     S
Ti8     Ti12    10.005   1_545     S
Ti8     V49    10.042   .     S
Ti9     Ti10    10.005   .     S
Ti9     Ti11    10.005   1_455     S
Ti9     Ti12    10.005   1_545     S
Ti9     V120    10.042   .     S
Ti10     Ti7    10.005   1_554     S
Ti10     Ti11    10.005   1_455     S
Ti10     V80    10.042   .     S
Ti11     Ti9    10.005   1_655     S
Ti11     Ti7    10.005   1_654     S
Ti11     Ti10    10.005   1_655     S
Ti11     Ti12    10.005   1_645     S
Ti11     V32    10.042   .     S
Ti12     Ti9    10.005   1_565     S
Ti12     Ti7    10.005   1_564     S
Ti12     Ti8    10.005   1_565     S
Ti12     Ti11    10.005   1_465     S
Ti12     V58    10.042   .     S
Er13     Er15    9.986   .     S
Er13     Er14    9.986   .     S
Er13     V17    10.006   .     S
Er13     Ce95    10.006   .     S
Er14     Er16    9.986   .     S
Er14     V17    10.006   .     S
Er14     Ce33    10.006   .     S
Er15     Er16    9.986   .     S
Er15     V17    10.006   .     S
Er15     Ce43    10.006   .     S
Er16     V17    10.006   .     S
Er16     Ce114    10.006   .     S
Er18     Er20    9.986   .     S
Er18     Er19    9.986   .     S
Er18     V22    10.006   .     S
Er18     Ce104    10.006   .     S
Er19     Er21    9.986   .     S
Er19     V22    10.006   .     S
Er19     Ce83    10.006   .     S
Er20     Er21    9.986   .     S
Er20     V22    10.006   .     S
Er20     Ce74    10.006   .     S
Er21     V22    10.006   .     S
Er21     Ce110    10.006   .     S
Er23     Er26    9.986   .     S
Er23     Er24    9.986   .     S
Er23     V27    10.006   .     S
Er23     Ce52    10.006   .     S
Er24     Er25    9.986   .     S
Er24     V27    10.006   .     S
Er24     Ce64    10.006   .     S
Er25     Er26    9.986   .     S
Er25     V27    10.006   .     S
Er25     Ce39    10.006   .     S
Er26     V27    10.006   .     S
Er26     Ce70    10.006   .     S
Er28     Er31    9.986   1_556     S
Er28     Er29    9.986   1_546     S
Er28     V32    10.006   1_556     S
Er28     Ce41    10.006   .     S
Er29     Er30    9.986   1_565     S
Er29     Er28    9.986   1_564     S
Er29     V32    10.006   1_565     S
Er29     Ce37    10.006   .     S
Er30     Er29    9.986   1_545     S
Er30     Er31    9.986   .     S
Er30     V32    10.006   .     S
Er30     Ce35    10.006   .     S
Er31     Er28    9.986   1_554     S
Er31     V32    10.006   .     S
Er31     Ce50    10.006   .     S
V32     Er28    10.006   1_554     S
V32     Er29    10.006   1_545     S
Ce33     Ce34    9.987   1_565     S
Ce33     Ce35    9.996   1_565     S
Ce33     Ce36    9.996   1_565     S
Ce34     Ce33    9.987   1_545     S
Ce34     Ce35    9.996   .     S
Ce34     Ce36    9.996   .     S
Ce34     Er90    10.006   .     S
Ce35     Ce33    9.996   1_545     S
Ce35     Ce36    9.987   .     S
Ce36     Ce33    9.996   1_545     S
Ce36     Er48    10.006   .     S
Ce37     Ce38    9.987   .     S
Ce37     Ce39    9.996   1_554     S
Ce37     Ce40    9.996   .     S
Ce38     Ce40    9.996   .     S
Ce38     Ce39    9.996   1_554     S
Ce38     Er45    10.006   .     S
Ce39     Ce37    9.996   1_556     S
Ce39     Ce38    9.996   1_556     S
Ce39     Ce40    9.987   1_556     S
Ce40     Ce39    9.987   1_554     S
Ce40     Er62    10.006   .     S
Ce41     Ce42    9.987   .     S
Ce41     Ce43    9.996   1_545     S
Ce41     Ce44    9.996   .     S
Ce42     Ce43    9.996   1_545     S
Ce42     Ce44    9.996   .     S
Ce42     Er46    10.006   .     S
Ce43     Ce42    9.996   1_565     S
Ce43     Ce41    9.996   1_565     S
Ce43     Ce44    9.987   1_565     S
Ce44     Ce43    9.987   1_545     S
Ce44     Er92    10.006   .     S
Er45     V49    10.006   1_565     S
Er45     Er48    9.986   1_565     S
Er45     Er46    9.986   1_564     S
Er46     V49    10.006   1_556     S
Er46     Er47    9.986   1_556     S
Er46     Er45    9.986   1_546     S
Er47     V49    10.006   .     S
Er47     Er46    9.986   1_554     S
Er47     Er48    9.986   .     S
Er47     Ce51    10.006   .     S
Er48     V49    10.006   .     S
Er48     Er45    9.986   1_545     S
V49     Er46    10.006   1_554     S
V49     Er45    10.006   1_545     S
Ce50     Ce51    9.987   .     S
Ce50     Ce53    9.996   .     S
Ce50     Ce52    9.996   1_554     S
Ce51     Ce52    9.996   1_554     S
Ce51     Ce53    9.996   .     S
Ce52     Ce51    9.996   1_556     S
Ce52     Ce50    9.996   1_556     S
Ce52     Ce53    9.987   1_556     S
Ce53     Ce52    9.987   1_554     S
Ce53     Er59    10.006   .     S
Er54     Er56    9.986   1_655     S
Er54     Er55    9.986   1_654     S
Er54     V58    10.006   1_655     S
Er54     Ce68    10.006   .     S
Er55     Er57    9.986   1_556     S
Er55     Er54    9.986   1_456     S
Er55     V58    10.006   1_556     S
Er55     Ce72    10.006   .     S
Er56     Er54    9.986   1_455     S
Er56     Er57    9.986   .     S
Er56     V58    10.006   .     S
Er56     Ce81    10.006   .     S
Er57     Er55    9.986   1_554     S
Er57     V58    10.006   .     S
Er57     Ce66    10.006   .     S
V58     Er55    10.006   1_554     S
V58     Er54    10.006   1_455     S
Er59     Er61    9.986   .     S
Er59     Er60    9.986   .     S
Er59     V63    10.006   .     S
Er60     Er62    9.986   .     S
Er60     V63    10.006   .     S
Er60     Ce65    10.006   .     S
Er61     Er62    9.986   .     S
Er61     V63    10.006   .     S
Er61     Ce71    10.006   .     S
Er62     V63    10.006   .     S
Ce64     Ce65    9.987   1_556     S
Ce64     Ce66    9.996   1_556     S
Ce64     Ce67    9.996   1_556     S
Ce65     Ce64    9.987   1_554     S
Ce65     Ce66    9.996   .     S
Ce65     Ce67    9.996   .     S
Ce66     Ce64    9.996   1_554     S
Ce66     Ce67    9.987   .     S
Ce67     Ce64    9.996   1_554     S
Ce67     Er79    10.006   .     S
Ce68     Ce69    9.987   .     S
Ce68     Ce70    9.996   1_554     S
Ce68     Ce71    9.996   .     S
Ce69     Ce70    9.996   1_554     S
Ce69     Ce71    9.996   .     S
Ce69     Er77    10.006   .     S
Ce70     Ce69    9.996   1_556     S
Ce70     Ce68    9.996   1_556     S
Ce70     Ce71    9.987   1_556     S
Ce71     Ce70    9.987   1_554     S
Ce72     Ce73    9.987   .     S
Ce72     Ce74    9.996   1_455     S
Ce72     Ce75    9.996   .     S
Ce73     Ce75    9.996   .     S
Ce73     Ce74    9.996   1_455     S
Ce73     Er76    10.006   .     S
Ce74     Ce72    9.996   1_655     S
Ce74     Ce73    9.996   1_655     S
Ce74     Ce75    9.987   1_655     S
Ce75     Ce74    9.987   1_455     S
Ce75     Er101    10.006   .     S
Er76     V80    10.006   1_556     S
Er76     Er79    9.986   1_556     S
Er76     Er77    9.986   1_456     S
Er77     V80    10.006   1_655     S
Er77     Er78    9.986   1_655     S
Er77     Er76    9.986   1_654     S
Er78     V80    10.006   .     S
Er78     Er77    9.986   1_455     S
Er78     Er79    9.986   .     S
Er78     Ce82    10.006   .     S
Er79     V80    10.006   .     S
Er79     Er76    9.986   1_554     S
V80     Er76    10.006   1_554     S
V80     Er77    10.006   1_455     S
Ce81     Ce82    9.987   .     S
Ce81     Ce83    9.996   1_455     S
Ce81     Ce84    9.996   .     S
Ce82     Ce83    9.996   1_455     S
Ce82     Ce84    9.996   .     S
Ce83     Ce82    9.996   1_655     S
Ce83     Ce81    9.996   1_655     S
Ce83     Ce84    9.987   1_655     S
Ce84     Ce83    9.987   1_455     S
Ce84     Er99    10.006   .     S
Er85     Er88    9.986   1_655     S
Er85     Er86    9.986   1_645     S
Er85     V89    10.006   1_655     S
Er85     Ce112    10.006   .     S
Er86     Er87    9.986   1_565     S
Er86     Er85    9.986   1_465     S
Er86     V89    10.006   1_565     S
Er86     Ce108    10.006   .     S
Er87     Er86    9.986   1_545     S
Er87     Er88    9.986   .     S
Er87     V89    10.006   .     S
Er87     Ce97    10.006   .     S
Er88     Er85    9.986   1_455     S
Er88     V89    10.006   .     S
Er88     Ce106    10.006   .     S
V89     Er86    10.006   1_545     S
V89     Er85    10.006   1_455     S
Er90     Er93    9.986   .     S
Er90     Er91    9.986   .     S
Er90     V94    10.006   .     S
Er91     Er92    9.986   .     S
Er91     V94    10.006   .     S
Er91     Ce96    10.006   .     S
Er92     Er93    9.986   .     S
Er92     V94    10.006   .     S
Er93     V94    10.006   .     S
Er93     Ce115    10.006   .     S
Ce95     Ce96    9.987   1_565     S
Ce95     Ce98    9.996   1_565     S
Ce95     Ce97    9.996   1_565     S
Ce96     Ce95    9.987   1_545     S
Ce96     Ce97    9.996   .     S
Ce96     Ce98    9.996   .     S
Ce97     Ce95    9.996   1_545     S
Ce97     Ce98    9.987   .     S
Ce98     Ce95    9.996   1_545     S
Ce98     Er119    10.006   .     S
Er99     Er102    9.986   .     S
Er99     Er100    9.986   .     S
Er99     V103    10.006   .     S
Er100     Er101    9.986   .     S
Er100     V103    10.006   .     S
Er100     Ce105    10.006   .     S
Er101     Er102    9.986   .     S
Er101     V103    10.006   .     S
Er102     V103    10.006   .     S
Er102     Ce111    10.006   .     S
Ce104     Ce105    9.987   1_655     S
Ce104     Ce106    9.996   1_655     S
Ce104     Ce107    9.996   1_655     S
Ce105     Ce104    9.987   1_455     S
Ce105     Ce106    9.996   .     S
Ce105     Ce107    9.996   .     S
Ce106     Ce104    9.996   1_455     S
Ce106     Ce107    9.987   .     S
Ce107     Ce104    9.996   1_455     S
Ce107     Er118    10.006   .     S
Ce108     Ce109    9.987   .     S
Ce108     Ce110    9.996   1_455     S
Ce108     Ce111    9.996   .     S
Ce109     Ce110    9.996   1_455     S
Ce109     Ce111    9.996   .     S
Ce109     Er116    10.006   .     S
Ce110     Ce109    9.996   1_655     S
Ce110     Ce108    9.996   1_655     S
Ce110     Ce111    9.987   1_655     S
Ce111     Ce110    9.987   1_455     S
Ce112     Ce113    9.987   .     S
Ce112     Ce114    9.996   1_545     S
Ce112     Ce115    9.996   .     S
Ce113     Ce115    9.996   .     S
Ce113     Ce114    9.996   1_545     S
Ce113     Er117    10.006   .     S
Ce114     Ce112    9.996   1_565     S
Ce114     Ce113    9.996   1_565     S
Ce114     Ce115    9.987   1_565     S
Ce115     Ce114    9.987   1_545     S
Er116     Er119    9.986   1_565     S
Er116     Er117    9.986   1_465     S
Er116     V120    10.006   1_565     S
Er117     Er118    9.986   1_655     S
Er117     Er116    9.986   1_645     S
Er117     V120    10.006   1_655     S
Er118     Er117    9.986   1_455     S
Er118     Er119    9.986   .     S
Er118     V120    10.006   .     S
Er119     Er116    9.986   1_545     S
Er119     V120    10.006   .     S
V120     Er117    10.006   1_455     S
V120     Er116    10.006   1_545     S
