data_dnz
_audit_creation_date              2020-02-04
_audit_creation_method            'Pymatgen'
_symmetry_space_group_name_H-M    'P1'
_symmetry_Int_Tables_number       1
loop_
_symmetry_equiv_pos_as_xyz
  x,y,z
_cell_length_a                    47.2921
_cell_length_b                    47.2921
_cell_length_c                    47.2921
_cell_angle_alpha                 90.0
_cell_angle_beta                 90.0
_cell_angle_gamma                 90.0
loop_
_atom_site_label
_atom_site_type_symbol
_atom_site_fract_x
_atom_site_fract_y
_atom_site_fract_z
Er1     Er     0.5   0.5   0.5
Er2     Er     0.5   0.25   0.25
Ti3     Ti     0.7888   0.7888   0.9612
Ti4     Ti     0.9612   0.9612   0.9612
Ti5     Ti     0.9612   0.7888   0.7888
V6     V     0.134   0.875   0.875
V7     V     0.875   0.875   0.134
Ti8     Ti     0.7888   0.9612   0.7888
V9     V     0.875   0.875   0.616
V10     V     0.875   0.616   0.875
V11     V     0.616   0.875   0.875
V12     V     0.875   0.134   0.875
Er13     Er     0.25   0.5   0.25
Er14     Er     0.25   0.25   0.5
Er15     Er     0.5   0.75   0.75
Er16     Er     0.25   0.75   0.0
Er17     Er     0.0   0.5   0.0
Er18     Er     0.25   0.0   0.75
Er19     Er     0.75   0.75   0.5
Er20     Er     0.0   0.75   0.25
Er21     Er     0.5   0.0   0.0
Ti22     Ti     0.2888   0.9612   0.2888
Ti23     Ti     0.4612   0.7888   0.2888
V24     V     0.375   0.616   0.375
Ti25     Ti     0.4612   0.9612   0.4612
Ti26     Ti     0.2888   0.7888   0.4612
V27     V     0.375   0.875   0.634
V28     V     0.116   0.875   0.375
V29     V     0.375   0.875   0.116
V30     V     0.634   0.875   0.375
V31     V     0.375   0.134   0.375
Er32     Er     0.75   0.0   0.25
Er33     Er     0.75   0.25   0.0
Ti34     Ti     0.4612   0.4612   0.9612
Ti35     Ti     0.2888   0.4612   0.7888
V36     V     0.375   0.634   0.875
Ti37     Ti     0.4612   0.2888   0.7888
V38     V     0.634   0.375   0.875
V39     V     0.375   0.375   0.616
V40     V     0.375   0.116   0.875
V41     V     0.116   0.375   0.875
Ti42     Ti     0.2888   0.2888   0.9612
V43     V     0.375   0.375   0.134
Ti44     Ti     0.7112   0.5388   0.2112
Ti45     Ti     0.5388   0.7112   0.2112
V46     V     0.625   0.625   0.384
Ti47     Ti     0.5388   0.5388   0.0388
V48     V     0.625   0.366   0.125
V49     V     0.366   0.625   0.125
Ti50     Ti     0.7112   0.7112   0.0388
V51     V     0.625   0.625   0.866
V52     V     0.625   0.884   0.125
V53     V     0.884   0.625   0.125
Er54     Er     0.75   0.5   0.75
Er55     Er     0.0   0.0   0.5
Ti56     Ti     0.7112   0.0388   0.7112
Ti57     Ti     0.5388   0.2112   0.7112
Ti58     Ti     0.5388   0.0388   0.5388
Ti59     Ti     0.7112   0.2112   0.5388
V60     V     0.625   0.125   0.366
V61     V     0.366   0.125   0.625
V62     V     0.625   0.384   0.625
V63     V     0.625   0.866   0.625
V64     V     0.884   0.125   0.625
V65     V     0.625   0.125   0.884
Ti66     Ti     0.0388   0.7112   0.7112
V67     V     0.866   0.625   0.625
Ti68     Ti     0.2112   0.7112   0.5388
Ti69     Ti     0.0388   0.5388   0.5388
Ti70     Ti     0.2112   0.5388   0.7112
V71     V     0.125   0.366   0.625
V72     V     0.125   0.625   0.366
V73     V     0.125   0.625   0.884
V74     V     0.384   0.625   0.625
V75     V     0.125   0.884   0.625
Ti76     Ti     0.7888   0.4612   0.2888
V77     V     0.875   0.634   0.375
V78     V     0.616   0.375   0.375
Ti79     Ti     0.7888   0.2888   0.4612
V80     V     0.875   0.375   0.634
Ti81     Ti     0.9612   0.4612   0.4612
Ti82     Ti     0.9612   0.2888   0.2888
V83     V     0.134   0.375   0.375
V84     V     0.875   0.375   0.116
V85     V     0.875   0.116   0.375
Er86     Er     0.0   0.25   0.75
Ti87     Ti     0.0388   0.0388   0.0388
Ti88     Ti     0.2112   0.2112   0.0388
Ti89     Ti     0.0388   0.2112   0.2112
Ti90     Ti     0.2112   0.0388   0.2112
V91     V     0.125   0.125   0.384
V92     V     0.125   0.384   0.125
V93     V     0.125   0.866   0.125
V94     V     0.125   0.125   0.866
V95     V     0.866   0.125   0.125
V96     V     0.384   0.125   0.125
loop_
_geom_bond_atom_site_label_1
_geom_bond_atom_site_label_2
_geom_bond_distance
_geom_bond_site_symmetry_2
_ccdc_geom_bond_type
Er1     V62    10.0   .     S
Er1     V46    10.0   .     S
Er1     V39    10.0   .     S
Er1     V24    10.0   .     S
Er1     V74    10.0   .     S
Er1     V78    10.0   .     S
Er2     V31    10.0   .     S
Er2     V43    10.0   .     S
Er2     V48    10.0   .     S
Er2     V60    10.0   .     S
Er2     V78    10.0   .     S
Er2     V96    10.0   .     S
Ti3     V10    10.0   .     S
Ti3     V7    10.0   1_556     S
Ti3     V11    10.0   .     S
Ti4     V6    10.0   1_655     S
Ti4     V7    10.0   1_556     S
Ti4     V12    10.0   1_565     S
Ti5     V9    10.0   .     S
Ti5     V6    10.0   1_655     S
Ti5     V10    10.0   .     S
V6     Ti4    10.0   1_455     S
V6     Ti5    10.0   1_455     S
V6     Er16    10.0   1_556     S
V6     Er18    10.0   1_565     S
V7     Ti3    10.0   1_554     S
V7     Ti4    10.0   1_554     S
V7     Er20    10.0   1_655     S
V7     Er32    10.0   1_565     S
Ti8     V12    10.0   1_565     S
Ti8     V9    10.0   .     S
Ti8     V11    10.0   .     S
V9     Er19    10.0   .     S
V9     Er55    10.0   1_665     S
V10     Er17    10.0   1_656     S
V10     Er54    10.0   .     S
V11     Er15    10.0   .     S
V11     Er21    10.0   1_566     S
V12     Ti4    10.0   1_545     S
V12     Ti8    10.0   1_545     S
V12     Er33    10.0   1_556     S
V12     Er86    10.0   1_655     S
Er13     V43    10.0   .     S
Er13     V72    10.0   .     S
Er13     V83    10.0   .     S
Er13     V24    10.0   .     S
Er13     V49    10.0   .     S
Er13     V92    10.0   .     S
Er14     V71    10.0   .     S
Er14     V31    10.0   .     S
Er14     V83    10.0   .     S
Er14     V39    10.0   .     S
Er14     V61    10.0   .     S
Er14     V91    10.0   .     S
Er15     V63    10.0   .     S
Er15     V51    10.0   .     S
Er15     V36    10.0   .     S
Er15     V27    10.0   .     S
Er15     V74    10.0   .     S
Er16     V29    10.0   .     S
Er16     V49    10.0   .     S
Er16     V36    10.0   1_554     S
Er16     V6    10.0   1_554     S
Er16     V73    10.0   1_554     S
Er16     V93    10.0   .     S
Er17     V84    10.0   1_455     S
Er17     V41    10.0   1_554     S
Er17     V53    10.0   1_455     S
Er17     V73    10.0   1_554     S
Er17     V92    10.0   .     S
Er17     V10    10.0   1_454     S
Er18     V40    10.0   .     S
Er18     V27    10.0   1_545     S
Er18     V61    10.0   .     S
Er18     V6    10.0   1_545     S
Er18     V75    10.0   1_545     S
Er18     V94    10.0   .     S
Er19     V67    10.0   .     S
Er19     V46    10.0   .     S
Er19     V63    10.0   .     S
Er19     V30    10.0   .     S
Er19     V77    10.0   .     S
Er20     V72    10.0   .     S
Er20     V28    10.0   .     S
Er20     V53    10.0   1_455     S
Er20     V77    10.0   1_455     S
Er20     V7    10.0   1_455     S
Er20     V93    10.0   .     S
Er21     V40    10.0   1_554     S
Er21     V29    10.0   1_545     S
Er21     V52    10.0   1_545     S
Er21     V65    10.0   1_554     S
Er21     V11    10.0   1_544     S
Er21     V96    10.0   .     S
Ti22     V31    10.0   1_565     S
Ti22     V28    10.0   .     S
Ti22     V29    10.0   .     S
Ti23     V29    10.0   .     S
Ti23     V24    10.0   .     S
Ti23     V30    10.0   .     S
V24     Ti26    10.0   .     S
Ti25     V31    10.0   1_565     S
Ti25     V30    10.0   .     S
Ti25     V27    10.0   .     S
Ti26     V28    10.0   .     S
Ti26     V27    10.0   .     S
V27     Er18    10.0   1_565     S
V28     Er55    10.0   1_565     S
V29     Er21    10.0   1_565     S
V30     Er32    10.0   1_565     S
V31     Ti22    10.0   1_545     S
V31     Ti25    10.0   1_545     S
Er32     V7    10.0   1_545     S
Er32     V85    10.0   .     S
Er32     V52    10.0   1_545     S
Er32     V30    10.0   1_545     S
Er32     V60    10.0   .     S
Er32     V95    10.0   .     S
Er33     V84    10.0   .     S
Er33     V38    10.0   1_554     S
Er33     V48    10.0   .     S
Er33     V65    10.0   1_554     S
Er33     V95    10.0   .     S
Er33     V12    10.0   1_554     S
Ti34     V43    10.0   1_556     S
Ti34     V36    10.0   .     S
Ti34     V38    10.0   .     S
Ti35     V39    10.0   .     S
Ti35     V41    10.0   .     S
Ti35     V36    10.0   .     S
V36     Er16    10.0   1_556     S
Ti37     V39    10.0   .     S
Ti37     V40    10.0   .     S
Ti37     V38    10.0   .     S
V38     Er33    10.0   1_556     S
V38     Er54    10.0   .     S
V40     Er21    10.0   1_556     S
V40     Ti42    10.0   .     S
V41     Er17    10.0   1_556     S
V41     Ti42    10.0   .     S
V41     Er86    10.0   .     S
Ti42     V43    10.0   1_556     S
V43     Ti34    10.0   1_554     S
V43     Ti42    10.0   1_554     S
Ti44     V46    10.0   .     S
Ti44     V53    10.0   .     S
Ti44     V48    10.0   .     S
Ti45     V52    10.0   .     S
Ti45     V46    10.0   .     S
Ti45     V49    10.0   .     S
Ti47     V48    10.0   .     S
Ti47     V51    10.0   1_554     S
Ti47     V49    10.0   .     S
Ti50     V51    10.0   1_554     S
Ti50     V53    10.0   .     S
Ti50     V52    10.0   .     S
V51     Ti47    10.0   1_556     S
V51     Ti50    10.0   1_556     S
V51     Er54    10.0   .     S
V52     Er21    10.0   1_565     S
V52     Er32    10.0   1_565     S
V53     Er17    10.0   1_655     S
V53     Er20    10.0   1_655     S
Er54     V67    10.0   .     S
Er54     V62    10.0   .     S
Er54     V80    10.0   .     S
Er55     V28    10.0   1_545     S
Er55     V85    10.0   1_455     S
Er55     V75    10.0   1_545     S
Er55     V64    10.0   1_455     S
Er55     V9    10.0   1_445     S
Er55     V91    10.0   .     S
Ti56     V63    10.0   1_545     S
Ti56     V64    10.0   .     S
Ti56     V65    10.0   .     S
Ti57     V62    10.0   .     S
Ti57     V65    10.0   .     S
Ti57     V61    10.0   .     S
Ti58     V63    10.0   1_545     S
Ti58     V61    10.0   .     S
Ti58     V60    10.0   .     S
Ti59     V64    10.0   .     S
Ti59     V62    10.0   .     S
Ti59     V60    10.0   .     S
V63     Ti56    10.0   1_565     S
V63     Ti58    10.0   1_565     S
V64     Er55    10.0   1_655     S
V64     Er86    10.0   1_655     S
V65     Er21    10.0   1_556     S
V65     Er33    10.0   1_556     S
Ti66     V73    10.0   .     S
Ti66     V75    10.0   .     S
Ti66     V67    10.0   1_455     S
V67     Ti66    10.0   1_655     S
V67     Ti69    10.0   1_655     S
Ti68     V75    10.0   .     S
Ti68     V72    10.0   .     S
Ti68     V74    10.0   .     S
Ti69     V67    10.0   1_455     S
Ti69     V71    10.0   .     S
Ti69     V72    10.0   .     S
Ti70     V74    10.0   .     S
Ti70     V73    10.0   .     S
Ti70     V71    10.0   .     S
V71     Er86    10.0   .     S
V73     Er16    10.0   1_556     S
V73     Er17    10.0   1_556     S
V75     Er18    10.0   1_565     S
V75     Er55    10.0   1_565     S
Ti76     V78    10.0   .     S
Ti76     V84    10.0   .     S
Ti76     V77    10.0   .     S
V77     Er20    10.0   1_655     S
V77     Ti81    10.0   .     S
V78     Ti79    10.0   .     S
Ti79     V85    10.0   .     S
Ti79     V80    10.0   .     S
V80     Ti81    10.0   .     S
V80     Er86    10.0   1_655     S
Ti81     V83    10.0   1_655     S
Ti82     V83    10.0   1_655     S
Ti82     V84    10.0   .     S
Ti82     V85    10.0   .     S
V83     Ti81    10.0   1_455     S
V83     Ti82    10.0   1_455     S
V84     Er17    10.0   1_655     S
V85     Er55    10.0   1_655     S
Er86     V94    10.0   .     S
Er86     V64    10.0   1_455     S
Er86     V12    10.0   1_455     S
Er86     V80    10.0   1_455     S
Ti87     V95    10.0   1_455     S
Ti87     V93    10.0   1_545     S
Ti87     V94    10.0   1_554     S
Ti88     V96    10.0   .     S
Ti88     V92    10.0   .     S
Ti88     V94    10.0   1_554     S
Ti89     V95    10.0   1_455     S
Ti89     V91    10.0   .     S
Ti89     V92    10.0   .     S
Ti90     V96    10.0   .     S
Ti90     V93    10.0   1_545     S
Ti90     V91    10.0   .     S
V93     Ti87    10.0   1_565     S
V93     Ti90    10.0   1_565     S
V94     Ti87    10.0   1_556     S
V94     Ti88    10.0   1_556     S
V95     Ti87    10.0   1_655     S
V95     Ti89    10.0   1_655     S
