data_dpa
_audit_creation_date              2020-02-04
_audit_creation_method            'Pymatgen'
_symmetry_space_group_name_H-M    'P1'
_symmetry_Int_Tables_number       1
loop_
_symmetry_equiv_pos_as_xyz
  x,y,z
_cell_length_a                    41.1489
_cell_length_b                    41.1489
_cell_length_c                    41.1489
_cell_angle_alpha                 90.0
_cell_angle_beta                 90.0
_cell_angle_gamma                 90.0
loop_
_atom_site_label
_atom_site_type_symbol
_atom_site_fract_x
_atom_site_fract_y
_atom_site_fract_z
Ti1     Ti     0.75   0.75   0.25
Ti2     Ti     0.75   0.25   0.75
Ti3     Ti     0.75   0.75   0.75
V4     V     0.5457   0.375   0.2043
V5     V     0.375   0.2043   0.5457
Er6     Er     0.375   0.375   0.375
V7     V     0.2043   0.5457   0.375
Ti8     Ti     0.0   0.5   0.5
Ti9     Ti     0.5   0.0   0.5
Er10     Er     0.625   0.625   0.625
V11     V     0.4543   0.625   0.7957
V12     V     0.625   0.7957   0.4543
V13     V     0.7957   0.4543   0.625
Ti14     Ti     0.5   0.5   0.0
Ti15     Ti     0.5   0.5   0.5
Ti16     Ti     0.0   0.0   0.0
V17     V     0.7957   0.9543   0.375
Er18     Er     0.625   0.125   0.375
V19     V     0.4543   0.125   0.2043
V20     V     0.625   0.2957   0.5457
V21     V     0.2043   0.0457   0.625
Er22     Er     0.375   0.875   0.625
V23     V     0.5457   0.875   0.7957
V24     V     0.375   0.7043   0.4543
Ti25     Ti     0.5   0.0   0.0
V26     V     0.625   0.2043   0.0457
Er27     Er     0.625   0.375   0.875
V28     V     0.4543   0.375   0.7043
V29     V     0.7957   0.5457   0.875
V30     V     0.375   0.7957   0.9543
V31     V     0.5457   0.625   0.2957
Er32     Er     0.375   0.625   0.125
V33     V     0.2043   0.4543   0.125
Ti34     Ti     0.0   0.5   0.0
Er35     Er     0.875   0.125   0.625
V36     V     0.0457   0.125   0.7957
V37     V     0.7043   0.9543   0.625
V38     V     0.875   0.2957   0.4543
V39     V     0.9543   0.125   0.2957
V40     V     0.125   0.2957   0.9543
Er41     Er     0.125   0.125   0.125
V42     V     0.2957   0.9543   0.125
Ti43     Ti     0.25   0.25   0.75
Ti44     Ti     0.75   0.25   0.25
V45     V     0.125   0.7957   0.0457
Er46     Er     0.125   0.625   0.875
V47     V     0.9543   0.625   0.7043
V48     V     0.2957   0.4543   0.875
Ti49     Ti     0.25   0.75   0.25
V50     V     0.7957   0.0457   0.125
Er51     Er     0.625   0.875   0.125
V52     V     0.625   0.7043   0.9543
V53     V     0.4543   0.875   0.2957
Er54     Er     0.875   0.625   0.375
V55     V     0.0457   0.625   0.2043
V56     V     0.875   0.7957   0.5457
V57     V     0.7043   0.4543   0.375
V58     V     0.9543   0.875   0.2043
Er59     Er     0.125   0.875   0.375
V60     V     0.2957   0.0457   0.375
V61     V     0.125   0.7043   0.5457
V62     V     0.2043   0.9543   0.875
Er63     Er     0.375   0.125   0.875
V64     V     0.375   0.2957   0.0457
V65     V     0.5457   0.125   0.7043
Ti66     Ti     0.0   0.0   0.5
V67     V     0.9543   0.375   0.7957
Er68     Er     0.125   0.375   0.625
V69     V     0.125   0.2043   0.4543
V70     V     0.2957   0.5457   0.625
Ti71     Ti     0.25   0.25   0.25
Er72     Er     0.875   0.375   0.125
V73     V     0.875   0.2043   0.9543
V74     V     0.0457   0.375   0.2957
V75     V     0.7043   0.5457   0.125
Er76     Er     0.875   0.875   0.875
V77     V     0.0457   0.875   0.7043
V78     V     0.7043   0.0457   0.875
V79     V     0.875   0.7043   0.0457
Ti80     Ti     0.25   0.75   0.75
loop_
_geom_bond_atom_site_label_1
_geom_bond_atom_site_label_2
_geom_bond_distance
_geom_bond_site_symmetry_2
_ccdc_geom_bond_type
Ti1     V17    10.034   .     S
Ti1     V58    10.034   .     S
Ti1     V12    10.034   .     S
Ti1     V31    10.034   .     S
Ti1     V79    10.034   .     S
Ti1     V75    10.034   .     S
Ti2     V67    10.034   .     S
Ti2     V73    10.034   .     S
Ti2     V13    10.034   .     S
Ti2     V20    10.034   .     S
Ti2     V65    10.034   .     S
Ti2     V78    10.034   .     S
Ti3     V47    10.034   .     S
Ti3     V52    10.034   .     S
Ti3     V37    10.034   .     S
Ti3     V23    10.034   .     S
Ti3     V29    10.034   .     S
Ti3     V56    10.034   .     S
V4     Er6    9.932   .     S
V4     Ti14    10.034   .     S
V4     Ti44    10.034   .     S
V5     Er6    9.932   .     S
V5     Ti9    10.034   .     S
V5     Ti43    10.034   .     S
Er6     V7    9.932   .     S
V7     Ti49    10.034   .     S
V7     Ti8    10.034   .     S
Ti8     V38    10.034   1_455     S
Ti8     V74    10.034   .     S
Ti8     V13    10.034   1_455     S
Ti8     V47    10.034   1_455     S
Ti8     V61    10.034   .     S
Ti9     V60    10.034   .     S
Ti9     V12    10.034   1_545     S
Ti9     V53    10.034   1_545     S
Ti9     V65    10.034   .     S
Ti9     V37    10.034   1_545     S
Er10     V11    9.932   .     S
Er10     V12    9.932   .     S
Er10     V13    9.932   .     S
V11     Ti14    10.034   1_556     S
V11     Ti80    10.034   .     S
V12     Ti9    10.034   1_565     S
V13     Ti8    10.034   1_655     S
Ti14     V11    10.034   1_554     S
Ti14     V48    10.034   1_554     S
Ti14     V64    10.034   .     S
Ti14     V75    10.034   .     S
Ti14     V52    10.034   1_554     S
Ti15     V31    10.034   .     S
Ti15     V70    10.034   .     S
Ti15     V20    10.034   .     S
Ti15     V24    10.034   .     S
Ti15     V57    10.034   .     S
Ti15     V28    10.034   .     S
Ti16     V45    10.034   1_545     S
Ti16     V36    10.034   1_554     S
Ti16     V50    10.034   1_455     S
Ti16     V73    10.034   1_454     S
Ti16     V58    10.034   1_445     S
Ti16     V62    10.034   1_544     S
V17     Er18    9.932   1_565     S
V17     Ti66    10.034   1_665     S
Er18     V17    9.932   1_545     S
Er18     V19    9.932   .     S
Er18     V20    9.932   .     S
V19     Ti25    10.034   .     S
V19     Ti71    10.034   .     S
V21     Er22    9.932   1_545     S
V21     Ti66    10.034   .     S
V21     Ti43    10.034   .     S
Er22     V21    9.932   1_565     S
Er22     V24    9.932   .     S
Er22     V23    9.932   .     S
V23     Ti25    10.034   1_566     S
V24     Ti49    10.034   .     S
Ti25     V30    10.034   1_544     S
Ti25     V23    10.034   1_544     S
Ti25     V26    10.034   .     S
Ti25     V42    10.034   1_545     S
Ti25     V78    10.034   1_554     S
V26     Er27    9.932   1_554     S
V26     Ti44    10.034   .     S
Er27     V26    9.932   1_556     S
Er27     V28    9.932   .     S
Er27     V29    9.932   .     S
V28     Ti43    10.034   .     S
V29     Ti34    10.034   1_656     S
V30     Er32    9.932   1_556     S
V30     Ti25    10.034   1_566     S
V30     Ti80    10.034   .     S
V31     Er32    9.932   .     S
Er32     V30    9.932   1_554     S
Er32     V33    9.932   .     S
V33     Ti34    10.034   .     S
V33     Ti71    10.034   .     S
Ti34     V40    10.034   1_554     S
Ti34     V29    10.034   1_454     S
Ti34     V67    10.034   1_454     S
Ti34     V55    10.034   .     S
Ti34     V79    10.034   1_455     S
Er35     V37    9.932   1_545     S
Er35     V36    9.932   1_655     S
Er35     V38    9.932   .     S
V36     Er35    9.932   1_455     S
V36     Ti16    10.034   1_556     S
V36     Ti43    10.034   .     S
V37     Er35    9.932   1_565     S
V37     Ti9    10.034   1_565     S
V38     Ti8    10.034   1_655     S
V38     Ti44    10.034   .     S
V39     Er41    9.932   1_655     S
V39     Ti44    10.034   .     S
V39     Ti66    10.034   1_655     S
V40     Er41    9.932   1_556     S
V40     Ti34    10.034   1_556     S
V40     Ti43    10.034   .     S
Er41     V39    9.932   1_455     S
Er41     V40    9.932   1_554     S
Er41     V42    9.932   1_545     S
V42     Er41    9.932   1_565     S
V42     Ti25    10.034   1_565     S
V42     Ti49    10.034   .     S
Ti43     V48    10.034   .     S
Ti44     V57    10.034   .     S
Ti44     V50    10.034   .     S
V45     Er46    9.932   1_554     S
V45     Ti16    10.034   1_565     S
V45     Ti49    10.034   .     S
Er46     V45    9.932   1_556     S
Er46     V47    9.932   1_455     S
Er46     V48    9.932   .     S
V47     Er46    9.932   1_655     S
V47     Ti8    10.034   1_655     S
V48     Ti14    10.034   1_556     S
Ti49     V53    10.034   .     S
Ti49     V55    10.034   .     S
V50     Er51    9.932   1_545     S
V50     Ti16    10.034   1_655     S
Er51     V50    9.932   1_565     S
Er51     V52    9.932   1_554     S
Er51     V53    9.932   .     S
V52     Er51    9.932   1_556     S
V52     Ti14    10.034   1_556     S
V53     Ti9    10.034   1_565     S
Er54     V57    9.932   .     S
Er54     V55    9.932   1_655     S
Er54     V56    9.932   .     S
V55     Er54    9.932   1_455     S
V56     Ti66    10.034   1_665     S
V58     Er59    9.932   1_655     S
V58     Ti16    10.034   1_665     S
Er59     V58    9.932   1_455     S
Er59     V61    9.932   .     S
Er59     V60    9.932   1_565     S
V60     Er59    9.932   1_545     S
V60     Ti71    10.034   .     S
V61     Ti80    10.034   .     S
V62     Er63    9.932   1_565     S
V62     Ti16    10.034   1_566     S
V62     Ti80    10.034   .     S
Er63     V62    9.932   1_545     S
Er63     V65    9.932   .     S
Er63     V64    9.932   1_556     S
V64     Er63    9.932   1_554     S
V64     Ti71    10.034   .     S
Ti66     V17    10.034   1_445     S
Ti66     V56    10.034   1_445     S
Ti66     V69    10.034   .     S
Ti66     V39    10.034   1_455     S
Ti66     V77    10.034   1_545     S
V67     Er68    9.932   1_655     S
V67     Ti34    10.034   1_656     S
Er68     V67    9.932   1_455     S
Er68     V70    9.932   .     S
Er68     V69    9.932   .     S
V69     Ti71    10.034   .     S
V70     Ti80    10.034   .     S
Ti71     V74    10.034   .     S
Er72     V75    9.932   .     S
Er72     V74    9.932   1_655     S
Er72     V73    9.932   1_554     S
V73     Er72    9.932   1_556     S
V73     Ti16    10.034   1_656     S
V74     Er72    9.932   1_455     S
Er76     V77    9.932   1_655     S
Er76     V79    9.932   1_556     S
Er76     V78    9.932   1_565     S
V77     Er76    9.932   1_455     S
V77     Ti80    10.034   .     S
V77     Ti66    10.034   1_565     S
V78     Er76    9.932   1_545     S
V78     Ti25    10.034   1_556     S
V79     Er76    9.932   1_554     S
V79     Ti34    10.034   1_655     S
