data_dpaa
_audit_creation_date              2020-02-04
_audit_creation_method            'Pymatgen'
_symmetry_space_group_name_H-M    'P1'
_symmetry_Int_Tables_number       1
loop_
_symmetry_equiv_pos_as_xyz
  x,y,z
_cell_length_a                    99.8862
_cell_length_b                    99.8862
_cell_length_c                    99.8862
_cell_angle_alpha                 90.0
_cell_angle_beta                 90.0
_cell_angle_gamma                 90.0
loop_
_atom_site_label
_atom_site_type_symbol
_atom_site_fract_x
_atom_site_fract_y
_atom_site_fract_z
Ti1     Ti     0.8342   0.9158   0.875
Ti2     Ti     0.9158   0.875   0.8342
Ti3     Ti     0.875   0.8342   0.9158
Ti4     Ti     0.625   0.6658   0.5842
Ti5     Ti     0.5842   0.625   0.6658
Ti6     Ti     0.6658   0.5842   0.625
Ti7     Ti     0.375   0.3342   0.4158
Ti8     Ti     0.4158   0.375   0.3342
Ti9     Ti     0.3342   0.4158   0.375
Ti10     Ti     0.8342   0.0842   0.625
Ti11     Ti     0.875   0.1658   0.5842
Ti12     Ti     0.9158   0.125   0.6658
Ti13     Ti     0.8342   0.5842   0.375
Ti14     Ti     0.875   0.6658   0.4158
Ti15     Ti     0.9158   0.625   0.3342
Ti16     Ti     0.5842   0.375   0.8342
Ti17     Ti     0.6658   0.4158   0.875
Ti18     Ti     0.625   0.3342   0.9158
Ti19     Ti     0.375   0.8342   0.5842
Ti20     Ti     0.4158   0.875   0.6658
Ti21     Ti     0.3342   0.9158   0.625
Ti22     Ti     0.0842   0.625   0.8342
Ti23     Ti     0.1658   0.5842   0.875
Ti24     Ti     0.125   0.6658   0.9158
Ti25     Ti     0.625   0.8342   0.0842
Ti26     Ti     0.5842   0.875   0.1658
Ti27     Ti     0.6658   0.9158   0.125
Ti28     Ti     0.0842   0.375   0.6658
Ti29     Ti     0.125   0.3342   0.5842
Ti30     Ti     0.1658   0.4158   0.625
Ti31     Ti     0.9158   0.375   0.1658
Ti32     Ti     0.8342   0.4158   0.125
Ti33     Ti     0.875   0.3342   0.0842
Ti34     Ti     0.375   0.6658   0.0842
Ti35     Ti     0.4158   0.625   0.1658
Ti36     Ti     0.3342   0.5842   0.125
Ti37     Ti     0.625   0.1658   0.4158
Ti38     Ti     0.5842   0.125   0.3342
Ti39     Ti     0.6658   0.0842   0.375
Ti40     Ti     0.4158   0.125   0.8342
Ti41     Ti     0.3342   0.0842   0.875
Ti42     Ti     0.375   0.1658   0.9158
V43     V     0.0974   0.1725   0.481
V44     V     0.1526   0.231   0.4225
Er45     Er     0.125   0.263   0.513
V46     V     0.731   0.5775   0.1526
V47     V     0.6725   0.519   0.0974
Er48     Er     0.763   0.487   0.125
V49     V     0.5775   0.1526   0.731
V50     V     0.519   0.0974   0.6725
Er51     Er     0.487   0.125   0.763
V52     V     0.1526   0.731   0.5775
V53     V     0.0974   0.6725   0.519
Er54     Er     0.125   0.763   0.487
V55     V     0.481   0.0974   0.1725
V56     V     0.4225   0.1526   0.231
Er57     Er     0.513   0.125   0.263
V58     V     0.1725   0.481   0.0974
V59     V     0.231   0.4225   0.1526
Er60     Er     0.263   0.513   0.125
V61     V     0.4225   0.3474   0.731
V62     V     0.481   0.4026   0.6725
Er63     Er     0.513   0.375   0.763
V64     V     0.731   0.4225   0.3474
V65     V     0.6725   0.481   0.4026
Er66     Er     0.763   0.513   0.375
V67     V     0.3474   0.731   0.4225
V68     V     0.4026   0.6725   0.481
Er69     Er     0.375   0.763   0.513
V70     V     0.0775   0.1526   0.769
V71     V     0.019   0.0974   0.8275
Er72     Er     0.987   0.125   0.737
Ce73     Ce     0.945   0.0816   0.9844
Ce74     Ce     0.0156   0.055   0.9184
Ce75     Ce     0.055   0.9184   0.0156
Ce76     Ce     0.0816   0.9844   0.945
Ce77     Ce     0.9844   0.945   0.0816
Ce78     Ce     0.9184   0.0156   0.055
Ce79     Ce     0.3316   0.195   0.2344
Ce80     Ce     0.305   0.2656   0.1684
Ce81     Ce     0.195   0.2344   0.3316
Ce82     Ce     0.2656   0.1684   0.305
Ce83     Ce     0.2344   0.3316   0.195
Ce84     Ce     0.1684   0.305   0.2656
V85     V     0.1725   0.519   0.4026
V86     V     0.231   0.5775   0.3474
Er87     Er     0.263   0.487   0.375
V88     V     0.3275   0.481   0.9026
V89     V     0.269   0.4225   0.8474
Er90     Er     0.237   0.513   0.875
V91     V     0.481   0.9026   0.3275
V92     V     0.4225   0.8474   0.269
Er93     Er     0.513   0.875   0.237
V94     V     0.9026   0.8275   0.519
V95     V     0.8474   0.769   0.5775
Er96     Er     0.875   0.737   0.487
V97     V     0.8275   0.481   0.5974
V98     V     0.769   0.4225   0.6526
Er99     Er     0.737   0.513   0.625
V100     V     0.8275   0.519   0.9026
V101     V     0.769   0.5775   0.8474
Er102     Er     0.737   0.487   0.875
V103     V     0.9225   0.8474   0.231
V104     V     0.981   0.9026   0.1725
Er105     Er     0.013   0.875   0.263
V106     V     0.519   0.9026   0.8275
V107     V     0.5775   0.8474   0.769
Er108     Er     0.487   0.875   0.737
V109     V     0.9026   0.3275   0.481
V110     V     0.8474   0.269   0.4225
Er111     Er     0.875   0.237   0.513
V112     V     0.981   0.4026   0.8275
V113     V     0.9225   0.3474   0.769
Er114     Er     0.013   0.375   0.737
V115     V     0.8275   0.981   0.4026
V116     V     0.769   0.9225   0.3474
Er117     Er     0.737   0.013   0.375
V118     V     0.4026   0.8275   0.981
V119     V     0.3474   0.769   0.9225
Er120     Er     0.375   0.737   0.013
V121     V     0.1526   0.769   0.0775
V122     V     0.0974   0.8275   0.019
Er123     Er     0.125   0.737   0.987
Ce124     Ce     0.305   0.7344   0.3316
Ce125     Ce     0.1684   0.695   0.2344
Ce126     Ce     0.2344   0.6684   0.305
Ce127     Ce     0.3316   0.805   0.2656
Ce128     Ce     0.2656   0.8316   0.195
Ce129     Ce     0.195   0.7656   0.1684
V130     V     0.0775   0.6526   0.231
V131     V     0.019   0.5974   0.1725
Er132     Er     0.987   0.625   0.263
V133     V     0.8474   0.231   0.9225
V134     V     0.9026   0.1725   0.981
Er135     Er     0.875   0.263   0.013
V136     V     0.231   0.9225   0.8474
V137     V     0.1725   0.981   0.9026
Er138     Er     0.263   0.013   0.875
V139     V     0.4026   0.1725   0.519
V140     V     0.3474   0.231   0.5775
Er141     Er     0.375   0.263   0.487
Ce142     Ce     0.3316   0.305   0.7344
Ce143     Ce     0.2344   0.1684   0.695
Ce144     Ce     0.305   0.2344   0.6684
Ce145     Ce     0.2656   0.3316   0.805
Ce146     Ce     0.195   0.2656   0.8316
Ce147     Ce     0.1684   0.195   0.7656
V148     V     0.231   0.0775   0.6526
V149     V     0.1725   0.019   0.5974
Er150     Er     0.263   0.987   0.625
V151     V     0.769   0.0775   0.1526
V152     V     0.8275   0.019   0.0974
Er153     Er     0.737   0.987   0.125
V154     V     0.519   0.4026   0.1725
V155     V     0.5775   0.3474   0.231
Er156     Er     0.487   0.375   0.263
Ce157     Ce     0.805   0.2656   0.3316
Ce158     Ce     0.8316   0.195   0.2656
Ce159     Ce     0.7344   0.3316   0.305
Ce160     Ce     0.695   0.2344   0.1684
Ce161     Ce     0.6684   0.305   0.2344
Ce162     Ce     0.7656   0.1684   0.195
V163     V     0.6526   0.231   0.0775
V164     V     0.5974   0.1725   0.019
Er165     Er     0.625   0.263   0.987
V166     V     0.4026   0.3275   0.019
V167     V     0.3474   0.269   0.0775
Er168     Er     0.375   0.237   0.987
Ce169     Ce     0.445   0.4184   0.0156
Ce170     Ce     0.5156   0.445   0.0816
Ce171     Ce     0.4184   0.4844   0.945
Ce172     Ce     0.4844   0.555   0.9184
Ce173     Ce     0.555   0.5816   0.9844
Ce174     Ce     0.5816   0.5156   0.055
V175     V     0.6526   0.731   0.9225
V176     V     0.5974   0.6725   0.981
Er177     Er     0.625   0.763   0.013
V178     V     0.481   0.5974   0.8275
V179     V     0.4225   0.6526   0.769
Er180     Er     0.513   0.625   0.737
V181     V     0.3275   0.981   0.0974
V182     V     0.269   0.9225   0.1526
Er183     Er     0.237   0.013   0.125
Ce184     Ce     0.805   0.2344   0.8316
Ce185     Ce     0.7344   0.1684   0.805
Ce186     Ce     0.695   0.2656   0.6684
Ce187     Ce     0.6684   0.195   0.7344
Ce188     Ce     0.7656   0.3316   0.695
Ce189     Ce     0.8316   0.305   0.7656
Ce190     Ce     0.4184   0.9844   0.055
Ce191     Ce     0.445   0.9184   0.9844
Ce192     Ce     0.5816   0.0156   0.945
Ce193     Ce     0.5156   0.945   0.9184
Ce194     Ce     0.555   0.0816   0.0156
Ce195     Ce     0.4844   0.055   0.0816
V196     V     0.731   0.0775   0.8474
V197     V     0.6725   0.019   0.9026
Er198     Er     0.763   0.987   0.875
Ce199     Ce     0.2344   0.8316   0.805
Ce200     Ce     0.1684   0.805   0.7344
Ce201     Ce     0.2656   0.6684   0.695
Ce202     Ce     0.195   0.7344   0.6684
Ce203     Ce     0.3316   0.695   0.7656
Ce204     Ce     0.305   0.7656   0.8316
V205     V     0.981   0.0974   0.3275
V206     V     0.9225   0.1526   0.269
Er207     Er     0.013   0.125   0.237
Ce208     Ce     0.0816   0.0156   0.555
Ce209     Ce     0.055   0.0816   0.4844
Ce210     Ce     0.9844   0.055   0.4184
Ce211     Ce     0.9184   0.9844   0.445
Ce212     Ce     0.0156   0.945   0.5816
Ce213     Ce     0.945   0.9184   0.5156
V214     V     0.0775   0.8474   0.731
V215     V     0.019   0.9026   0.6725
Er216     Er     0.987   0.875   0.763
V217     V     0.0974   0.3275   0.981
V218     V     0.1526   0.269   0.9225
Er219     Er     0.125   0.237   0.013
Ce220     Ce     0.0156   0.555   0.0816
Ce221     Ce     0.0816   0.4844   0.055
Ce222     Ce     0.055   0.4184   0.9844
Ce223     Ce     0.9844   0.445   0.9184
Ce224     Ce     0.945   0.5816   0.0156
Ce225     Ce     0.9184   0.5156   0.945
V226     V     0.8474   0.731   0.0775
V227     V     0.9026   0.6725   0.019
Er228     Er     0.875   0.763   0.987
V229     V     0.3275   0.519   0.5974
V230     V     0.269   0.5775   0.6526
Er231     Er     0.237   0.487   0.625
V232     V     0.5974   0.3275   0.519
V233     V     0.6526   0.269   0.5775
Er234     Er     0.625   0.237   0.487
Ce235     Ce     0.555   0.4184   0.5156
Ce236     Ce     0.4844   0.445   0.5816
Ce237     Ce     0.5156   0.555   0.4184
Ce238     Ce     0.5816   0.4844   0.445
Ce239     Ce     0.4184   0.5156   0.555
Ce240     Ce     0.445   0.5816   0.4844
Ce241     Ce     0.8316   0.805   0.2344
Ce242     Ce     0.805   0.7344   0.1684
Ce243     Ce     0.6684   0.695   0.2656
Ce244     Ce     0.7344   0.6684   0.195
Ce245     Ce     0.695   0.7656   0.3316
Ce246     Ce     0.7656   0.8316   0.305
V247     V     0.519   0.5974   0.3275
V248     V     0.5775   0.6526   0.269
Er249     Er     0.487   0.625   0.237
V250     V     0.5974   0.8275   0.481
V251     V     0.6526   0.769   0.4225
Er252     Er     0.625   0.737   0.513
V253     V     0.3275   0.019   0.4026
V254     V     0.269   0.0775   0.3474
Er255     Er     0.237   0.987   0.375
Ce256     Ce     0.5816   0.9844   0.555
Ce257     Ce     0.5156   0.055   0.5816
Ce258     Ce     0.445   0.0816   0.5156
Ce259     Ce     0.4184   0.0156   0.445
Ce260     Ce     0.4844   0.945   0.4184
Ce261     Ce     0.555   0.9184   0.4844
V262     V     0.731   0.9225   0.6526
V263     V     0.6725   0.981   0.5974
Er264     Er     0.763   0.013   0.625
Ce265     Ce     0.695   0.7344   0.8316
Ce266     Ce     0.6684   0.805   0.7656
Ce267     Ce     0.8316   0.695   0.7344
Ce268     Ce     0.7656   0.6684   0.805
Ce269     Ce     0.7344   0.8316   0.695
Ce270     Ce     0.805   0.7656   0.6684
V271     V     0.019   0.4026   0.3275
V272     V     0.0775   0.3474   0.269
Er273     Er     0.987   0.375   0.237
Ce274     Ce     0.9184   0.4844   0.555
Ce275     Ce     0.945   0.4184   0.4844
Ce276     Ce     0.0816   0.5156   0.445
Ce277     Ce     0.0156   0.445   0.4184
Ce278     Ce     0.9844   0.555   0.5816
Ce279     Ce     0.055   0.5816   0.5156
V280     V     0.9225   0.6526   0.731
V281     V     0.981   0.5974   0.6725
Er282     Er     0.013   0.625   0.763
Ti283     Ti     0.1658   0.0842   0.125
Ti284     Ti     0.0842   0.125   0.1658
Ti285     Ti     0.125   0.1658   0.0842
Ti286     Ti     0.125   0.8342   0.4158
Ti287     Ti     0.0842   0.875   0.3342
Ti288     Ti     0.1658   0.9158   0.375
loop_
_geom_bond_atom_site_label_1
_geom_bond_atom_site_label_2
_geom_bond_distance
_geom_bond_site_symmetry_2
_ccdc_geom_bond_type
Ti1     Ti2    9.975   .     S
Ti1     Ti3    9.975   .     S
Ti1     Er198    10.058   .     S
Ti2     Ti3    9.975   .     S
Ti2     Er216    10.058   .     S
Ti3     Er228    10.058   .     S
Ti4     Ti5    9.975   .     S
Ti4     Ti6    9.975   .     S
Ti4     Er252    10.058   .     S
Ti5     Ti6    9.975   .     S
Ti5     Er180    10.058   .     S
Ti6     Er99    10.058   .     S
Ti7     Ti8    9.975   .     S
Ti7     Ti9    9.975   .     S
Ti7     Er141    10.058   .     S
Ti8     Ti9    9.975   .     S
Ti8     Er156    10.058   .     S
Ti9     Er87    10.058   .     S
Ti10     Ti12    9.975   .     S
Ti10     Ti11    9.975   .     S
Ti10     Er264    10.058   .     S
Ti11     Ti12    9.975   .     S
Ti11     Er111    10.058   .     S
Ti12     Er72    10.058   .     S
Ti13     Ti15    9.975   .     S
Ti13     Ti14    9.975   .     S
Ti13     Er66    10.058   .     S
Ti14     Ti15    9.975   .     S
Ti14     Er96    10.058   .     S
Ti15     Er132    10.058   .     S
Ti16     Ti18    9.975   .     S
Ti16     Ti17    9.975   .     S
Ti16     Er63    10.058   .     S
Ti17     Ti18    9.975   .     S
Ti17     Er102    10.058   .     S
Ti18     Er165    10.058   .     S
Ti19     Ti21    9.975   .     S
Ti19     Ti20    9.975   .     S
Ti19     Er69    10.058   .     S
Ti20     Ti21    9.975   .     S
Ti20     Er108    10.058   .     S
Ti21     Er150    10.058   .     S
Ti22     Ti24    9.975   .     S
Ti22     Ti23    9.975   .     S
Ti22     Er282    10.058   .     S
Ti23     Ti24    9.975   .     S
Ti23     Er90    10.058   .     S
Ti24     Er123    10.058   .     S
Ti25     Ti27    9.975   .     S
Ti25     Ti26    9.975   .     S
Ti25     Er177    10.058   .     S
Ti26     Ti27    9.975   .     S
Ti26     Er93    10.058   .     S
Ti27     Er153    10.058   .     S
Ti28     Ti30    9.975   .     S
Ti28     Ti29    9.975   .     S
Ti28     Er114    10.058   .     S
Ti29     Ti30    9.975   .     S
Ti29     Er45    10.058   .     S
Ti30     Er231    10.058   .     S
Ti31     Ti33    9.975   .     S
Ti31     Ti32    9.975   .     S
Ti31     Er273    10.058   .     S
Ti32     Ti33    9.975   .     S
Ti32     Er48    10.058   .     S
Ti33     Er135    10.058   .     S
Ti34     Ti35    9.975   .     S
Ti34     Ti36    9.975   .     S
Ti34     Er120    10.058   .     S
Ti35     Ti36    9.975   .     S
Ti35     Er249    10.058   .     S
Ti36     Er60    10.058   .     S
Ti37     Ti38    9.975   .     S
Ti37     Ti39    9.975   .     S
Ti37     Er234    10.058   .     S
Ti38     Ti39    9.975   .     S
Ti38     Er57    10.058   .     S
Ti39     Er117    10.058   .     S
Ti40     Ti42    9.975   .     S
Ti40     Ti41    9.975   .     S
Ti40     Er51    10.058   .     S
Ti41     Ti42    9.975   .     S
Ti41     Er138    10.058   .     S
Ti42     Er168    10.058   .     S
V43     Er45    9.978   .     S
V43     Ce209    10.021   .     S
V43     V44    9.933   .     S
V44     Er45    9.978   .     S
V44     Ce81    10.021   .     S
V46     Er48    9.978   .     S
V46     Ce244    10.021   .     S
V46     V47    9.933   .     S
V47     Er48    9.978   .     S
V47     Ce174    10.021   .     S
V49     Er51    9.978   .     S
V49     Ce187    10.021   .     S
V49     V50    9.933   .     S
V50     Er51    9.978   .     S
V50     Ce257    10.021   .     S
V52     Er54    9.978   .     S
V52     Ce202    10.021   .     S
V52     V53    9.933   .     S
V53     Er54    9.978   .     S
V53     Ce279    10.021   .     S
Er54     Ti286    10.058   .     S
V55     Er57    9.978   .     S
V55     Ce195    10.021   .     S
V55     V56    9.933   .     S
V56     Er57    9.978   .     S
V56     Ce79    10.021   .     S
V58     Er60    9.978   .     S
V58     Ce221    10.021   .     S
V58     V59    9.933   .     S
V59     Er60    9.978   .     S
V59     Ce83    10.021   .     S
V61     Er63    9.978   .     S
V61     Ce142    10.021   .     S
V61     V62    9.933   .     S
V62     Er63    9.978   .     S
V62     Ce236    10.021   .     S
V64     Er66    9.978   .     S
V64     Ce159    10.021   .     S
V64     V65    9.933   .     S
V65     Er66    9.978   .     S
V65     Ce238    10.021   .     S
V67     Er69    9.978   .     S
V67     Ce124    10.021   .     S
V67     V68    9.933   .     S
V68     Er69    9.978   .     S
V68     Ce240    10.021   .     S
V70     Er72    9.978   1_455     S
V70     Ce147    10.021   .     S
V70     V71    9.933   .     S
V71     Er72    9.978   1_455     S
V71     Ce74    10.021   .     S
Er72     V70    9.978   1_655     S
Er72     V71    9.978   1_655     S
Ce73     Ce74    10.019   1_655     S
Ce73     Ce78    10.019   1_556     S
Ce73     V134    10.021   .     S
Ce74     Ce73    10.019   1_455     S
Ce74     Ce76    10.019   1_545     S
Ce75     Ce76    10.019   1_554     S
Ce75     Ce77    10.019   1_455     S
Ce75     V122    10.021   .     S
Ce76     Ce74    10.019   1_565     S
Ce76     Ce75    10.019   1_556     S
Ce76     V137    10.021   .     S
Ce77     Ce75    10.019   1_655     S
Ce77     Ce78    10.019   1_565     S
Ce77     V104    10.021   .     S
Ce78     Ce77    10.019   1_545     S
Ce78     Ce73    10.019   1_554     S
Ce78     V152    10.021   .     S
Ce79     Ce80    10.019   .     S
Ce79     Ce82    10.019   .     S
Ce80     Ce83    10.019   .     S
Ce80     V167    10.021   .     S
Ce81     Ce82    10.019   .     S
Ce81     Ce84    10.019   .     S
Ce82     V254    10.021   .     S
Ce83     Ce84    10.019   .     S
Ce84     V272    10.021   .     S
V85     Er87    9.978   .     S
V85     Ce276    10.021   .     S
V85     V86    9.933   .     S
V86     Er87    9.978   .     S
V86     Ce126    10.021   .     S
V88     Er90    9.978   .     S
V88     Ce171    10.021   .     S
V88     V89    9.933   .     S
V89     Er90    9.978   .     S
V89     Ce145    10.021   .     S
V91     Er93    9.978   .     S
V91     Ce260    10.021   .     S
V91     V92    9.933   .     S
V92     Er93    9.978   .     S
V92     Ce127    10.021   .     S
V94     Er96    9.978   .     S
V94     Ce213    10.021   .     S
V94     V95    9.933   .     S
V95     Er96    9.978   .     S
V95     Ce270    10.021   .     S
V97     Er99    9.978   .     S
V97     Ce274    10.021   .     S
V97     V98    9.933   .     S
V98     Er99    9.978   .     S
V98     Ce188    10.021   .     S
V100     Er102    9.978   .     S
V100     Ce225    10.021   .     S
V100     V101    9.933   .     S
V101     Er102    9.978   .     S
V101     Ce268    10.021   .     S
V103     Er105    9.978   1_655     S
V103     Ce241    10.021   .     S
V103     V104    9.933   .     S
V104     Er105    9.978   1_655     S
Er105     V103    9.978   1_455     S
Er105     V104    9.978   1_455     S
Er105     Ti287    10.058   .     S
V106     Er108    9.978   .     S
V106     Ce193    10.021   .     S
V106     V107    9.933   .     S
V107     Er108    9.978   .     S
V107     Ce266    10.021   .     S
V109     Er111    9.978   .     S
V109     Ce275    10.021   .     S
V109     V110    9.933   .     S
V110     Er111    9.978   .     S
V110     Ce157    10.021   .     S
V112     Er114    9.978   1_655     S
V112     Ce223    10.021   .     S
V112     V113    9.933   .     S
V113     Er114    9.978   1_655     S
V113     Ce189    10.021   .     S
Er114     V112    9.978   1_455     S
Er114     V113    9.978   1_455     S
V115     Er117    9.978   1_565     S
V115     Ce211    10.021   .     S
V115     V116    9.933   .     S
V116     Er117    9.978   1_565     S
V116     Ce246    10.021   .     S
Er117     V116    9.978   1_545     S
Er117     V115    9.978   1_545     S
V118     Er120    9.978   1_556     S
V118     Ce191    10.021   .     S
V118     V119    9.933   .     S
V119     Er120    9.978   1_556     S
V119     Ce204    10.021   .     S
Er120     V119    9.978   1_554     S
Er120     V118    9.978   1_554     S
V121     Er123    9.978   1_554     S
V121     Ce129    10.021   .     S
V121     V122    9.933   .     S
V122     Er123    9.978   1_554     S
Er123     V122    9.978   1_556     S
Er123     V121    9.978   1_556     S
Ce124     Ce126    10.019   .     S
Ce124     Ce127    10.019   .     S
Ce125     Ce129    10.019   .     S
Ce125     Ce126    10.019   .     S
Ce125     V130    10.021   .     S
Ce127     Ce128    10.019   .     S
Ce128     Ce129    10.019   .     S
Ce128     V182    10.021   .     S
V130     Er132    9.978   1_455     S
V130     V131    9.933   .     S
V131     Er132    9.978   1_455     S
V131     Ce220    10.021   .     S
Er132     V131    9.978   1_655     S
Er132     V130    9.978   1_655     S
V133     Er135    9.978   1_556     S
V133     Ce184    10.021   .     S
V133     V134    9.933   .     S
V134     Er135    9.978   1_556     S
Er135     V134    9.978   1_554     S
Er135     V133    9.978   1_554     S
V136     Er138    9.978   1_565     S
V136     Ce199    10.021   .     S
V136     V137    9.933   .     S
V137     Er138    9.978   1_565     S
Er138     V137    9.978   1_545     S
Er138     V136    9.978   1_545     S
V139     Er141    9.978   .     S
V139     Ce258    10.021   .     S
V139     V140    9.933   .     S
V140     Er141    9.978   .     S
V140     Ce144    10.021   .     S
Ce142     Ce144    10.019   .     S
Ce142     Ce145    10.019   .     S
Ce143     Ce147    10.019   .     S
Ce143     Ce144    10.019   .     S
Ce143     V148    10.021   .     S
Ce145     Ce146    10.019   .     S
Ce146     Ce147    10.019   .     S
Ce146     V218    10.021   .     S
V148     Er150    9.978   1_545     S
V148     V149    9.933   .     S
V149     Er150    9.978   1_545     S
V149     Ce208    10.021   .     S
Er150     V148    9.978   1_565     S
Er150     V149    9.978   1_565     S
V151     Er153    9.978   1_545     S
V151     Ce162    10.021   .     S
V151     V152    9.933   .     S
V152     Er153    9.978   1_545     S
Er153     V152    9.978   1_565     S
Er153     V151    9.978   1_565     S
V154     Er156    9.978   .     S
V154     Ce170    10.021   .     S
V154     V155    9.933   .     S
V155     Er156    9.978   .     S
V155     Ce161    10.021   .     S
Ce157     Ce158    10.019   .     S
Ce157     Ce159    10.019   .     S
Ce158     Ce162    10.019   .     S
Ce158     V206    10.021   .     S
Ce159     Ce161    10.019   .     S
Ce160     Ce162    10.019   .     S
Ce160     Ce161    10.019   .     S
Ce160     V163    10.021   .     S
V163     Er165    9.978   1_554     S
V163     V164    9.933   .     S
V164     Er165    9.978   1_554     S
V164     Ce194    10.021   .     S
Er165     V163    9.978   1_556     S
Er165     V164    9.978   1_556     S
V166     Er168    9.978   1_554     S
V166     Ce169    10.021   .     S
V166     V167    9.933   .     S
V167     Er168    9.978   1_554     S
Er168     V166    9.978   1_556     S
Er168     V167    9.978   1_556     S
Ce169     Ce170    10.019   .     S
Ce169     Ce171    10.019   1_554     S
Ce170     Ce174    10.019   .     S
Ce171     Ce169    10.019   1_556     S
Ce171     Ce172    10.019   .     S
Ce172     Ce173    10.019   .     S
Ce172     V178    10.021   .     S
Ce173     Ce174    10.019   1_556     S
Ce173     V176    10.021   .     S
Ce174     Ce173    10.019   1_554     S
V175     Er177    9.978   1_556     S
V175     Ce265    10.021   .     S
V175     V176    9.933   .     S
V176     Er177    9.978   1_556     S
Er177     V176    9.978   1_554     S
Er177     V175    9.978   1_554     S
V178     Er180    9.978   .     S
V178     V179    9.933   .     S
V179     Er180    9.978   .     S
V179     Ce203    10.021   .     S
V181     Er183    9.978   1_565     S
V181     Ce190    10.021   .     S
V181     V182    9.933   .     S
V182     Er183    9.978   1_565     S
Er183     V182    9.978   1_545     S
Er183     V181    9.978   1_545     S
Er183     Ti283    10.058   .     S
Ce184     Ce185    10.019   .     S
Ce184     Ce189    10.019   .     S
Ce185     Ce187    10.019   .     S
Ce185     V196    10.021   .     S
Ce186     Ce187    10.019   .     S
Ce186     Ce188    10.019   .     S
Ce186     V233    10.021   .     S
Ce188     Ce189    10.019   .     S
Ce190     Ce191    10.019   1_554     S
Ce190     Ce195    10.019   1_565     S
Ce191     Ce190    10.019   1_556     S
Ce191     Ce193    10.019   .     S
Ce192     Ce193    10.019   1_545     S
Ce192     Ce194    10.019   1_556     S
Ce192     V197    10.021   .     S
Ce193     Ce192    10.019   1_565     S
Ce194     Ce192    10.019   1_554     S
Ce194     Ce195    10.019   .     S
Ce195     Ce190    10.019   1_545     S
V196     Er198    9.978   1_545     S
V196     V197    9.933   .     S
V197     Er198    9.978   1_545     S
Er198     V196    9.978   1_565     S
Er198     V197    9.978   1_565     S
Ce199     Ce200    10.019   .     S
Ce199     Ce204    10.019   .     S
Ce200     Ce202    10.019   .     S
Ce200     V214    10.021   .     S
Ce201     Ce202    10.019   .     S
Ce201     Ce203    10.019   .     S
Ce201     V230    10.021   .     S
Ce203     Ce204    10.019   .     S
V205     Er207    9.978   1_655     S
V205     Ce210    10.021   .     S
V205     V206    9.933   .     S
V206     Er207    9.978   1_655     S
Er207     V206    9.978   1_455     S
Er207     V205    9.978   1_455     S
Er207     Ti284    10.058   .     S
Ce208     Ce209    10.019   .     S
Ce208     Ce212    10.019   1_545     S
Ce209     Ce210    10.019   1_455     S
Ce210     Ce209    10.019   1_655     S
Ce210     Ce211    10.019   1_545     S
Ce211     Ce210    10.019   1_565     S
Ce211     Ce213    10.019   .     S
Ce212     Ce213    10.019   1_455     S
Ce212     Ce208    10.019   1_565     S
Ce212     V215    10.021   .     S
Ce213     Ce212    10.019   1_655     S
V214     Er216    9.978   1_455     S
V214     V215    9.933   .     S
V215     Er216    9.978   1_455     S
Er216     V214    9.978   1_655     S
Er216     V215    9.978   1_655     S
V217     Er219    9.978   1_556     S
V217     Ce222    10.021   .     S
V217     V218    9.933   .     S
V218     Er219    9.978   1_556     S
Er219     V217    9.978   1_554     S
Er219     V218    9.978   1_554     S
Er219     Ti285    10.058   .     S
Ce220     Ce221    10.019   .     S
Ce220     Ce224    10.019   1_455     S
Ce221     Ce222    10.019   1_554     S
Ce222     Ce221    10.019   1_556     S
Ce222     Ce223    10.019   1_455     S
Ce223     Ce222    10.019   1_655     S
Ce223     Ce225    10.019   .     S
Ce224     Ce225    10.019   1_554     S
Ce224     Ce220    10.019   1_655     S
Ce224     V227    10.021   .     S
Ce225     Ce224    10.019   1_556     S
V226     Er228    9.978   1_554     S
V226     Ce242    10.021   .     S
V226     V227    9.933   .     S
V227     Er228    9.978   1_554     S
Er228     V227    9.978   1_556     S
Er228     V226    9.978   1_556     S
V229     Er231    9.978   .     S
V229     Ce239    10.021   .     S
V229     V230    9.933   .     S
V230     Er231    9.978   .     S
V232     Er234    9.978   .     S
V232     Ce235    10.021   .     S
V232     V233    9.933   .     S
V233     Er234    9.978   .     S
Ce235     Ce238    10.019   .     S
Ce235     Ce236    10.019   .     S
Ce236     Ce239    10.019   .     S
Ce237     Ce240    10.019   .     S
Ce237     Ce238    10.019   .     S
Ce237     V247    10.021   .     S
Ce239     Ce240    10.019   .     S
Ce241     Ce242    10.019   .     S
Ce241     Ce246    10.019   .     S
Ce242     Ce244    10.019   .     S
Ce243     Ce244    10.019   .     S
Ce243     Ce245    10.019   .     S
Ce243     V248    10.021   .     S
Ce245     Ce246    10.019   .     S
Ce245     V251    10.021   .     S
V247     Er249    9.978   .     S
V247     V248    9.933   .     S
V248     Er249    9.978   .     S
V250     Er252    9.978   .     S
V250     Ce261    10.021   .     S
V250     V251    9.933   .     S
V251     Er252    9.978   .     S
V253     Er255    9.978   1_545     S
V253     Ce259    10.021   .     S
V253     V254    9.933   .     S
V254     Er255    9.978   1_545     S
Er255     V253    9.978   1_565     S
Er255     V254    9.978   1_565     S
Er255     Ti288    10.058   .     S
Ce256     Ce261    10.019   .     S
Ce256     Ce257    10.019   1_565     S
Ce256     V263    10.021   .     S
Ce257     Ce256    10.019   1_545     S
Ce257     Ce258    10.019   .     S
Ce258     Ce259    10.019   .     S
Ce259     Ce260    10.019   1_545     S
Ce260     Ce259    10.019   1_565     S
Ce260     Ce261    10.019   .     S
V262     Er264    9.978   1_565     S
V262     Ce269    10.021   .     S
V262     V263    9.933   .     S
V263     Er264    9.978   1_565     S
Er264     V263    9.978   1_545     S
Er264     V262    9.978   1_545     S
Ce265     Ce268    10.019   .     S
Ce265     Ce266    10.019   .     S
Ce266     Ce269    10.019   .     S
Ce267     Ce270    10.019   .     S
Ce267     Ce268    10.019   .     S
Ce267     V280    10.021   .     S
Ce269     Ce270    10.019   .     S
V271     Er273    9.978   1_455     S
V271     Ce277    10.021   .     S
V271     V272    9.933   .     S
V272     Er273    9.978   1_455     S
Er273     V271    9.978   1_655     S
Er273     V272    9.978   1_655     S
Ce274     Ce275    10.019   .     S
Ce274     Ce278    10.019   .     S
Ce275     Ce277    10.019   1_655     S
Ce276     Ce277    10.019   .     S
Ce276     Ce279    10.019   .     S
Ce277     Ce275    10.019   1_455     S
Ce278     Ce279    10.019   1_655     S
Ce278     V281    10.021   .     S
Ce279     Ce278    10.019   1_455     S
V280     Er282    9.978   1_655     S
V280     V281    9.933   .     S
V281     Er282    9.978   1_655     S
Er282     V281    9.978   1_455     S
Er282     V280    9.978   1_455     S
Ti283     Ti284    9.975   .     S
Ti283     Ti285    9.975   .     S
Ti284     Ti285    9.975   .     S
Ti286     Ti288    9.975   .     S
Ti286     Ti287    9.975   .     S
Ti287     Ti288    9.975   .     S
