data_dpd
_audit_creation_date              2020-02-04
_audit_creation_method            'Pymatgen'
_symmetry_space_group_name_H-M    'P1'
_symmetry_Int_Tables_number       1
loop_
_symmetry_equiv_pos_as_xyz
  x,y,z
_cell_length_a                    51.4059
_cell_length_b                    51.4059
_cell_length_c                    51.4059
_cell_angle_alpha                 90.0
_cell_angle_beta                 90.0
_cell_angle_gamma                 90.0
loop_
_atom_site_label
_atom_site_type_symbol
_atom_site_fract_x
_atom_site_fract_y
_atom_site_fract_z
V1     V     0.3625   0.6375   0.1375
V2     V     0.6375   0.3625   0.1375
V3     V     0.6375   0.6375   0.1375
V4     V     0.3625   0.3625   0.1375
Er5     Er     0.5   0.5   0.1375
V6     V     0.3625   0.3625   0.8625
V7     V     0.6375   0.3625   0.8625
V8     V     0.6375   0.6375   0.8625
V9     V     0.3625   0.6375   0.8625
Er10     Er     0.3625   0.5   0.0
Er11     Er     0.5   0.6375   0.0
Er12     Er     0.6375   0.5   0.0
Er13     Er     0.5   0.3625   0.0
Er14     Er     0.5   0.5   0.8625
V15     V     0.6375   0.1375   0.6375
V16     V     0.6375   0.1375   0.3625
V17     V     0.3625   0.1375   0.6375
V18     V     0.3625   0.1375   0.3625
Er19     Er     0.5   0.1375   0.5
V20     V     0.6375   0.8625   0.3625
V21     V     0.3625   0.8625   0.3625
V22     V     0.3625   0.8625   0.6375
V23     V     0.6375   0.8625   0.6375
Er24     Er     0.6375   0.0   0.5
Er25     Er     0.5   0.0   0.6375
Er26     Er     0.3625   0.0   0.5
Er27     Er     0.5   0.0   0.3625
Er28     Er     0.5   0.8625   0.5
V29     V     0.8625   0.3625   0.6375
V30     V     0.8625   0.3625   0.3625
V31     V     0.8625   0.6375   0.3625
V32     V     0.8625   0.6375   0.6375
Er33     Er     0.0   0.6375   0.5
Er34     Er     0.0   0.5   0.6375
Er35     Er     0.0   0.5   0.3625
Er36     Er     0.0   0.3625   0.5
Er37     Er     0.8625   0.5   0.5
V38     V     0.1375   0.3625   0.6375
V39     V     0.1375   0.6375   0.3625
V40     V     0.1375   0.6375   0.6375
V41     V     0.1375   0.3625   0.3625
Er42     Er     0.1375   0.5   0.5
Ti43     Ti     0.25   0.25   0.25
Ti44     Ti     0.75   0.25   0.25
Ti45     Ti     0.25   0.75   0.25
Ti46     Ti     0.25   0.25   0.75
Ti47     Ti     0.75   0.25   0.75
Ti48     Ti     0.75   0.75   0.25
Ti49     Ti     0.25   0.75   0.75
V50     V     0.1375   0.1375   0.1375
V51     V     0.1375   0.1375   0.8625
V52     V     0.8625   0.1375   0.1375
V53     V     0.1375   0.8625   0.1375
V54     V     0.8625   0.8625   0.1375
Er55     Er     0.0   0.0   0.1375
V56     V     0.1375   0.8625   0.8625
Er57     Er     0.1375   0.0   0.0
V58     V     0.8625   0.1375   0.8625
Er59     Er     0.0   0.1375   0.0
V60     V     0.8625   0.8625   0.8625
Er61     Er     0.0   0.8625   0.0
Er62     Er     0.8625   0.0   0.0
Er63     Er     0.0   0.0   0.8625
Ti64     Ti     0.75   0.75   0.75
loop_
_geom_bond_atom_site_label_1
_geom_bond_atom_site_label_2
_geom_bond_distance
_geom_bond_site_symmetry_2
_ccdc_geom_bond_type
V1     Ti45    10.02   .     S
V1     Er10    9.993   .     S
V1     Er5    9.993   .     S
V1     Er11    9.993   .     S
V2     Ti44    10.02   .     S
V2     Er13    9.993   .     S
V2     Er5    9.993   .     S
V2     Er12    9.993   .     S
V3     Ti48    10.02   .     S
V3     Er5    9.993   .     S
V3     Er12    9.993   .     S
V3     Er11    9.993   .     S
V4     Ti43    10.02   .     S
V4     Er10    9.993   .     S
V4     Er13    9.993   .     S
V4     Er5    9.993   .     S
V6     Ti46    10.02   .     S
V6     Er13    9.993   1_556     S
V6     Er10    9.993   1_556     S
V6     Er14    9.993   .     S
V7     Ti47    10.02   .     S
V7     Er13    9.993   1_556     S
V7     Er14    9.993   .     S
V7     Er12    9.993   1_556     S
V8     Ti64    10.02   .     S
V8     Er14    9.993   .     S
V8     Er11    9.993   1_556     S
V8     Er12    9.993   1_556     S
V9     Ti49    10.02   .     S
V9     Er10    9.993   1_556     S
V9     Er14    9.993   .     S
V9     Er11    9.993   1_556     S
Er10     V6    9.993   1_554     S
Er10     V9    9.993   1_554     S
Er11     V8    9.993   1_554     S
Er11     V9    9.993   1_554     S
Er12     V7    9.993   1_554     S
Er12     V8    9.993   1_554     S
Er13     V6    9.993   1_554     S
Er13     V7    9.993   1_554     S
V15     Ti47    10.02   .     S
V15     Er19    9.993   .     S
V15     Er25    9.993   .     S
V15     Er24    9.993   .     S
V16     Ti44    10.02   .     S
V16     Er27    9.993   .     S
V16     Er19    9.993   .     S
V16     Er24    9.993   .     S
V17     Ti46    10.02   .     S
V17     Er26    9.993   .     S
V17     Er19    9.993   .     S
V17     Er25    9.993   .     S
V18     Ti43    10.02   .     S
V18     Er27    9.993   .     S
V18     Er26    9.993   .     S
V18     Er19    9.993   .     S
V20     Ti48    10.02   .     S
V20     Er27    9.993   1_565     S
V20     Er28    9.993   .     S
V20     Er24    9.993   1_565     S
V21     Ti45    10.02   .     S
V21     Er26    9.993   1_565     S
V21     Er27    9.993   1_565     S
V21     Er28    9.993   .     S
V22     Ti49    10.02   .     S
V22     Er26    9.993   1_565     S
V22     Er28    9.993   .     S
V22     Er25    9.993   1_565     S
V23     Ti64    10.02   .     S
V23     Er28    9.993   .     S
V23     Er24    9.993   1_565     S
V23     Er25    9.993   1_565     S
Er24     V20    9.993   1_545     S
Er24     V23    9.993   1_545     S
Er25     V22    9.993   1_545     S
Er25     V23    9.993   1_545     S
Er26     V21    9.993   1_545     S
Er26     V22    9.993   1_545     S
Er27     V20    9.993   1_545     S
Er27     V21    9.993   1_545     S
V29     Ti47    10.02   .     S
V29     Er36    9.993   1_655     S
V29     Er37    9.993   .     S
V29     Er34    9.993   1_655     S
V30     Ti44    10.02   .     S
V30     Er35    9.993   1_655     S
V30     Er36    9.993   1_655     S
V30     Er37    9.993   .     S
V31     Ti48    10.02   .     S
V31     Er35    9.993   1_655     S
V31     Er37    9.993   .     S
V31     Er33    9.993   1_655     S
V32     Ti64    10.02   .     S
V32     Er37    9.993   .     S
V32     Er34    9.993   1_655     S
V32     Er33    9.993   1_655     S
Er33     V31    9.993   1_455     S
Er33     V32    9.993   1_455     S
Er33     V39    9.993   .     S
Er33     V40    9.993   .     S
Er34     V29    9.993   1_455     S
Er34     V32    9.993   1_455     S
Er34     V38    9.993   .     S
Er34     V40    9.993   .     S
Er35     V30    9.993   1_455     S
Er35     V31    9.993   1_455     S
Er35     V39    9.993   .     S
Er35     V41    9.993   .     S
Er36     V29    9.993   1_455     S
Er36     V30    9.993   1_455     S
Er36     V38    9.993   .     S
Er36     V41    9.993   .     S
V38     Ti46    10.02   .     S
V38     Er42    9.993   .     S
V39     Ti45    10.02   .     S
V39     Er42    9.993   .     S
V40     Ti49    10.02   .     S
V40     Er42    9.993   .     S
V41     Ti43    10.02   .     S
V41     Er42    9.993   .     S
Ti43     V50    10.02   .     S
Ti44     V52    10.02   .     S
Ti45     V53    10.02   .     S
Ti46     V51    10.02   .     S
Ti47     V58    10.02   .     S
Ti48     V54    10.02   .     S
Ti49     V56    10.02   .     S
V50     Er59    9.993   .     S
V50     Er55    9.993   .     S
V50     Er57    9.993   .     S
V51     Er63    9.993   .     S
V51     Er59    9.993   1_556     S
V51     Er57    9.993   1_556     S
V52     Er62    9.993   .     S
V52     Er55    9.993   1_655     S
V52     Er59    9.993   1_655     S
V53     Er61    9.993   .     S
V53     Er55    9.993   1_565     S
V53     Er57    9.993   1_565     S
V54     Er61    9.993   1_655     S
V54     Er62    9.993   1_565     S
V54     Er55    9.993   1_665     S
Er55     V52    9.993   1_455     S
Er55     V53    9.993   1_545     S
Er55     V54    9.993   1_445     S
V56     Er61    9.993   1_556     S
V56     Er63    9.993   1_565     S
V56     Er57    9.993   1_566     S
Er57     V51    9.993   1_554     S
Er57     V53    9.993   1_545     S
Er57     V56    9.993   1_544     S
V58     Er63    9.993   1_655     S
V58     Er62    9.993   1_556     S
V58     Er59    9.993   1_656     S
Er59     V51    9.993   1_554     S
Er59     V52    9.993   1_455     S
Er59     V58    9.993   1_454     S
V60     Ti64    10.02   .     S
V60     Er63    9.993   1_665     S
V60     Er61    9.993   1_656     S
V60     Er62    9.993   1_566     S
Er61     V54    9.993   1_455     S
Er61     V56    9.993   1_554     S
Er61     V60    9.993   1_454     S
Er62     V54    9.993   1_545     S
Er62     V58    9.993   1_554     S
Er62     V60    9.993   1_544     S
Er63     V56    9.993   1_545     S
Er63     V58    9.993   1_455     S
Er63     V60    9.993   1_445     S
