data_dpda
_audit_creation_date              2020-02-04
_audit_creation_method            'Pymatgen'
_symmetry_space_group_name_H-M    'P1'
_symmetry_Int_Tables_number       1
loop_
_symmetry_equiv_pos_as_xyz
  x,y,z
_cell_length_a                    113.8322
_cell_length_b                    113.8322
_cell_length_c                    113.8322
_cell_angle_alpha                 90.0
_cell_angle_beta                 90.0
_cell_angle_gamma                 90.0
loop_
_atom_site_label
_atom_site_type_symbol
_atom_site_fract_x
_atom_site_fract_y
_atom_site_fract_z
Ti1     Ti     0.2811   0.2811   0.2811
Ti2     Ti     0.2189   0.2189   0.2811
Ti3     Ti     0.2189   0.2811   0.2189
Ti4     Ti     0.2811   0.2189   0.2189
Ti5     Ti     0.7189   0.2811   0.2811
Ti6     Ti     0.7811   0.2189   0.2811
Ti7     Ti     0.7811   0.2811   0.2189
Ti8     Ti     0.7189   0.2189   0.2189
Ti9     Ti     0.2811   0.7189   0.2811
Ti10     Ti     0.2189   0.7811   0.2811
Ti11     Ti     0.2811   0.7811   0.2189
Ti12     Ti     0.2189   0.7189   0.2189
Ti13     Ti     0.2811   0.2811   0.7189
Ti14     Ti     0.2811   0.2189   0.7811
Ti15     Ti     0.2189   0.2811   0.7811
Ti16     Ti     0.2189   0.2189   0.7189
Ti17     Ti     0.7811   0.7811   0.2811
Ti18     Ti     0.7189   0.7189   0.2811
Ti19     Ti     0.7189   0.7811   0.2189
Ti20     Ti     0.7811   0.7189   0.2189
Ti21     Ti     0.7811   0.2811   0.7811
Ti22     Ti     0.7189   0.2811   0.7189
Ti23     Ti     0.7811   0.2189   0.7189
Ti24     Ti     0.7189   0.2189   0.7811
Ti25     Ti     0.2811   0.7811   0.7811
Ti26     Ti     0.2811   0.7189   0.7189
Ti27     Ti     0.2189   0.7811   0.7189
Ti28     Ti     0.2189   0.7189   0.7811
V29     V     0.6681   0.6681   0.6681
V30     V     0.3319   0.6681   0.6681
V31     V     0.3319   0.3319   0.6681
V32     V     0.6681   0.3319   0.3319
V33     V     0.3319   0.6681   0.3319
V34     V     0.6681   0.6681   0.3319
V35     V     0.3319   0.3319   0.3319
Ce36     Ce     0.4561   0.5439   0.6649
Ce37     Ce     0.5439   0.5439   0.6649
Ce38     Ce     0.5439   0.4561   0.6649
Ce39     Ce     0.4561   0.4561   0.6649
Ce40     Ce     0.5439   0.4561   0.3351
Ce41     Ce     0.5439   0.5439   0.3351
Ce42     Ce     0.4561   0.5439   0.3351
Ce43     Ce     0.4561   0.4561   0.3351
Ce44     Ce     0.5439   0.3351   0.4561
Ce45     Ce     0.5439   0.3351   0.5439
Ce46     Ce     0.4561   0.3351   0.5439
Ce47     Ce     0.4561   0.3351   0.4561
Er48     Er     0.394   0.394   0.6681
Er49     Er     0.3319   0.394   0.606
Er50     Er     0.394   0.3319   0.606
Er51     Er     0.3319   0.394   0.394
Er52     Er     0.394   0.394   0.3319
Er53     Er     0.394   0.3319   0.394
Ce54     Ce     0.3351   0.4561   0.5439
Ce55     Ce     0.3351   0.5439   0.5439
Ce56     Ce     0.3351   0.5439   0.4561
Ce57     Ce     0.3351   0.4561   0.4561
Er58     Er     0.394   0.606   0.6681
Er59     Er     0.394   0.6681   0.606
Er60     Er     0.3319   0.606   0.606
Er61     Er     0.394   0.6681   0.394
Er62     Er     0.3319   0.606   0.394
Er63     Er     0.394   0.606   0.3319
Ce64     Ce     0.4561   0.6649   0.5439
Ce65     Ce     0.5439   0.6649   0.5439
Ce66     Ce     0.5439   0.6649   0.4561
Ce67     Ce     0.4561   0.6649   0.4561
Er68     Er     0.6681   0.394   0.394
Er69     Er     0.606   0.3319   0.394
Er70     Er     0.606   0.394   0.3319
Er71     Er     0.606   0.6681   0.394
Er72     Er     0.6681   0.606   0.394
Er73     Er     0.606   0.606   0.3319
Er74     Er     0.606   0.394   0.6681
Er75     Er     0.6681   0.394   0.606
Er76     Er     0.606   0.3319   0.606
Er77     Er     0.6681   0.606   0.606
Er78     Er     0.606   0.6681   0.606
Er79     Er     0.606   0.606   0.6681
Ce80     Ce     0.6649   0.5439   0.4561
Ce81     Ce     0.6649   0.5439   0.5439
Ce82     Ce     0.6649   0.4561   0.5439
Ce83     Ce     0.6649   0.4561   0.4561
V84     V     0.6681   0.3319   0.6681
V85     V     0.6681   0.8319   0.8319
V86     V     0.3319   0.8319   0.8319
V87     V     0.6681   0.1681   0.1681
V88     V     0.3319   0.8319   0.1681
V89     V     0.3319   0.1681   0.8319
V90     V     0.6681   0.1681   0.8319
V91     V     0.6681   0.8319   0.1681
Er92     Er     0.3319   0.106   0.106
Er93     Er     0.394   0.1681   0.106
Er94     Er     0.394   0.106   0.1681
Er95     Er     0.6681   0.106   0.106
Er96     Er     0.606   0.1681   0.106
Er97     Er     0.606   0.106   0.1681
Er98     Er     0.394   0.106   0.8319
Er99     Er     0.3319   0.106   0.894
Er100     Er     0.394   0.1681   0.894
Er101     Er     0.606   0.106   0.8319
Er102     Er     0.6681   0.106   0.894
Er103     Er     0.606   0.1681   0.894
Ce104     Ce     0.5439   0.1649   0.9561
Ce105     Ce     0.5439   0.1649   0.0439
Ce106     Ce     0.4561   0.1649   0.9561
Ce107     Ce     0.4561   0.1649   0.0439
Ce108     Ce     0.5439   0.8351   0.9561
Ce109     Ce     0.5439   0.8351   0.0439
Ce110     Ce     0.4561   0.8351   0.9561
Ce111     Ce     0.4561   0.8351   0.0439
Ce112     Ce     0.3351   0.9561   0.0439
Ce113     Ce     0.3351   0.9561   0.9561
Ce114     Ce     0.3351   0.0439   0.9561
Ce115     Ce     0.3351   0.0439   0.0439
Er116     Er     0.394   0.894   0.8319
Er117     Er     0.3319   0.894   0.894
Er118     Er     0.394   0.8319   0.894
Ce119     Ce     0.5439   0.9561   0.8351
Ce120     Ce     0.5439   0.0439   0.8351
Ce121     Ce     0.4561   0.9561   0.8351
Ce122     Ce     0.4561   0.0439   0.8351
Er123     Er     0.6681   0.894   0.894
Er124     Er     0.606   0.894   0.8319
Er125     Er     0.606   0.8319   0.894
Ce126     Ce     0.6649   0.0439   0.9561
Ce127     Ce     0.6649   0.9561   0.9561
Ce128     Ce     0.6649   0.9561   0.0439
Ce129     Ce     0.6649   0.0439   0.0439
Er130     Er     0.394   0.8319   0.106
Er131     Er     0.3319   0.894   0.106
Er132     Er     0.394   0.894   0.1681
Er133     Er     0.606   0.8319   0.106
Er134     Er     0.6681   0.894   0.106
Er135     Er     0.606   0.894   0.1681
Ce136     Ce     0.5439   0.9561   0.1649
Ce137     Ce     0.5439   0.0439   0.1649
Ce138     Ce     0.4561   0.9561   0.1649
Ce139     Ce     0.4561   0.0439   0.1649
V140     V     0.3319   0.1681   0.1681
V141     V     0.8319   0.6681   0.8319
V142     V     0.8319   0.3319   0.8319
V143     V     0.8319   0.6681   0.1681
V144     V     0.1681   0.6681   0.8319
V145     V     0.1681   0.3319   0.1681
V146     V     0.1681   0.3319   0.8319
V147     V     0.1681   0.6681   0.1681
Er148     Er     0.106   0.6681   0.106
Er149     Er     0.1681   0.606   0.106
Er150     Er     0.106   0.606   0.1681
Er151     Er     0.106   0.3319   0.106
Er152     Er     0.1681   0.394   0.106
Er153     Er     0.106   0.394   0.1681
Er154     Er     0.8319   0.394   0.106
Er155     Er     0.894   0.3319   0.106
Er156     Er     0.894   0.394   0.1681
Er157     Er     0.8319   0.606   0.106
Er158     Er     0.894   0.6681   0.106
Er159     Er     0.894   0.606   0.1681
Ce160     Ce     0.9561   0.5439   0.1649
Ce161     Ce     0.0439   0.5439   0.1649
Ce162     Ce     0.9561   0.4561   0.1649
Ce163     Ce     0.0439   0.4561   0.1649
Ce164     Ce     0.8351   0.4561   0.9561
Ce165     Ce     0.8351   0.4561   0.0439
Ce166     Ce     0.8351   0.5439   0.9561
Ce167     Ce     0.8351   0.5439   0.0439
Ce168     Ce     0.0439   0.3351   0.9561
Ce169     Ce     0.9561   0.3351   0.9561
Ce170     Ce     0.9561   0.3351   0.0439
Ce171     Ce     0.0439   0.3351   0.0439
Er172     Er     0.894   0.394   0.8319
Er173     Er     0.894   0.3319   0.894
Er174     Er     0.8319   0.394   0.894
Ce175     Ce     0.9561   0.5439   0.8351
Ce176     Ce     0.0439   0.5439   0.8351
Ce177     Ce     0.9561   0.4561   0.8351
Ce178     Ce     0.0439   0.4561   0.8351
Er179     Er     0.894   0.6681   0.894
Er180     Er     0.894   0.606   0.8319
Er181     Er     0.8319   0.606   0.894
Ce182     Ce     0.9561   0.6649   0.0439
Ce183     Ce     0.9561   0.6649   0.9561
Ce184     Ce     0.0439   0.6649   0.9561
Ce185     Ce     0.0439   0.6649   0.0439
Er186     Er     0.106   0.394   0.8319
Er187     Er     0.106   0.3319   0.894
Er188     Er     0.1681   0.394   0.894
Er189     Er     0.106   0.606   0.8319
Er190     Er     0.106   0.6681   0.894
Er191     Er     0.1681   0.606   0.894
Ce192     Ce     0.1649   0.5439   0.9561
Ce193     Ce     0.1649   0.5439   0.0439
Ce194     Ce     0.1649   0.4561   0.9561
Ce195     Ce     0.1649   0.4561   0.0439
V196     V     0.8319   0.3319   0.1681
Ti197     Ti     0.7811   0.7811   0.7189
Ti198     Ti     0.7189   0.7811   0.7811
Ti199     Ti     0.7811   0.7189   0.7811
Ti200     Ti     0.7189   0.7189   0.7189
V201     V     0.8319   0.8319   0.6681
V202     V     0.8319   0.8319   0.3319
V203     V     0.8319   0.1681   0.6681
V204     V     0.1681   0.1681   0.6681
V205     V     0.1681   0.8319   0.6681
V206     V     0.1681   0.8319   0.3319
V207     V     0.8319   0.1681   0.3319
Er208     Er     0.106   0.8319   0.394
Er209     Er     0.106   0.894   0.3319
Er210     Er     0.1681   0.894   0.394
Er211     Er     0.106   0.8319   0.606
Er212     Er     0.106   0.894   0.6681
Er213     Er     0.1681   0.894   0.606
Ce214     Ce     0.1649   0.9561   0.5439
Ce215     Ce     0.1649   0.0439   0.5439
Ce216     Ce     0.1649   0.9561   0.4561
Ce217     Ce     0.1649   0.0439   0.4561
Ce218     Ce     0.8351   0.9561   0.4561
Ce219     Ce     0.8351   0.0439   0.4561
Ce220     Ce     0.8351   0.0439   0.5439
Ce221     Ce     0.8351   0.9561   0.5439
Ce222     Ce     0.0439   0.9561   0.3351
Ce223     Ce     0.9561   0.9561   0.3351
Ce224     Ce     0.9561   0.0439   0.3351
Ce225     Ce     0.0439   0.0439   0.3351
Er226     Er     0.894   0.8319   0.394
Er227     Er     0.894   0.894   0.3319
Er228     Er     0.8319   0.894   0.394
Ce229     Ce     0.9561   0.8351   0.5439
Ce230     Ce     0.0439   0.8351   0.5439
Ce231     Ce     0.9561   0.8351   0.4561
Ce232     Ce     0.0439   0.8351   0.4561
Er233     Er     0.894   0.894   0.6681
Er234     Er     0.894   0.8319   0.606
Er235     Er     0.8319   0.894   0.606
Ce236     Ce     0.9561   0.9561   0.6649
Ce237     Ce     0.0439   0.9561   0.6649
Ce238     Ce     0.9561   0.0439   0.6649
Ce239     Ce     0.0439   0.0439   0.6649
Er240     Er     0.106   0.106   0.6681
Er241     Er     0.106   0.1681   0.606
Er242     Er     0.1681   0.106   0.606
Er243     Er     0.106   0.106   0.3319
Er244     Er     0.106   0.1681   0.394
Er245     Er     0.1681   0.106   0.394
Er246     Er     0.8319   0.106   0.606
Er247     Er     0.894   0.106   0.6681
Er248     Er     0.894   0.1681   0.606
Er249     Er     0.8319   0.106   0.394
Er250     Er     0.894   0.106   0.3319
Er251     Er     0.894   0.1681   0.394
Ce252     Ce     0.9561   0.1649   0.4561
Ce253     Ce     0.0439   0.1649   0.4561
Ce254     Ce     0.0439   0.1649   0.5439
Ce255     Ce     0.9561   0.1649   0.5439
V256     V     0.1681   0.1681   0.3319
loop_
_geom_bond_atom_site_label_1
_geom_bond_atom_site_label_2
_geom_bond_distance
_geom_bond_site_symmetry_2
_ccdc_geom_bond_type
Ti1     Ti3    10.0   .     S
Ti1     Ti2    10.0   .     S
Ti1     Ti4    10.0   .     S
Ti1     V35    10.018   .     S
Ti2     Ti3    10.0   .     S
Ti2     Ti4    10.0   .     S
Ti2     V256    10.018   .     S
Ti3     Ti4    10.0   .     S
Ti3     V145    10.018   .     S
Ti4     V140    10.018   .     S
Ti5     Ti8    10.0   .     S
Ti5     Ti7    10.0   .     S
Ti5     Ti6    10.0   .     S
Ti5     V32    10.018   .     S
Ti6     Ti8    10.0   .     S
Ti6     Ti7    10.0   .     S
Ti6     V207    10.018   .     S
Ti7     Ti8    10.0   .     S
Ti7     V196    10.018   .     S
Ti8     V87    10.018   .     S
Ti9     Ti12    10.0   .     S
Ti9     Ti10    10.0   .     S
Ti9     Ti11    10.0   .     S
Ti9     V33    10.018   .     S
Ti10     Ti12    10.0   .     S
Ti10     Ti11    10.0   .     S
Ti10     V206    10.018   .     S
Ti11     Ti12    10.0   .     S
Ti11     V88    10.018   .     S
Ti12     V147    10.018   .     S
Ti13     Ti16    10.0   .     S
Ti13     Ti15    10.0   .     S
Ti13     Ti14    10.0   .     S
Ti13     V31    10.018   .     S
Ti14     Ti16    10.0   .     S
Ti14     Ti15    10.0   .     S
Ti14     V89    10.018   .     S
Ti15     Ti16    10.0   .     S
Ti15     V146    10.018   .     S
Ti16     V204    10.018   .     S
Ti17     Ti19    10.0   .     S
Ti17     Ti20    10.0   .     S
Ti17     Ti18    10.0   .     S
Ti17     V202    10.018   .     S
Ti18     Ti20    10.0   .     S
Ti18     Ti19    10.0   .     S
Ti18     V34    10.018   .     S
Ti19     Ti20    10.0   .     S
Ti19     V91    10.018   .     S
Ti20     V143    10.018   .     S
Ti21     Ti23    10.0   .     S
Ti21     Ti24    10.0   .     S
Ti21     Ti22    10.0   .     S
Ti21     V142    10.018   .     S
Ti22     Ti23    10.0   .     S
Ti22     Ti24    10.0   .     S
Ti22     V84    10.018   .     S
Ti23     Ti24    10.0   .     S
Ti23     V203    10.018   .     S
Ti24     V90    10.018   .     S
Ti25     Ti27    10.0   .     S
Ti25     Ti28    10.0   .     S
Ti25     Ti26    10.0   .     S
Ti25     V86    10.018   .     S
Ti26     Ti28    10.0   .     S
Ti26     Ti27    10.0   .     S
Ti26     V30    10.018   .     S
Ti27     Ti28    10.0   .     S
Ti27     V205    10.018   .     S
Ti28     V144    10.018   .     S
V29     Er77    10.002   .     S
V29     Er78    10.002   .     S
V29     Er79    10.002   .     S
V29     Ti200    10.018   .     S
V30     Er59    10.002   .     S
V30     Er58    10.002   .     S
V30     Er60    10.002   .     S
V31     Er49    10.002   .     S
V31     Er48    10.002   .     S
V31     Er50    10.002   .     S
V32     Er68    10.002   .     S
V32     Er69    10.002   .     S
V32     Er70    10.002   .     S
V33     Er62    10.002   .     S
V33     Er61    10.002   .     S
V33     Er63    10.002   .     S
V34     Er72    10.002   .     S
V34     Er71    10.002   .     S
V34     Er73    10.002   .     S
V35     Er51    10.002   .     S
V35     Er53    10.002   .     S
V35     Er52    10.002   .     S
Ce36     Ce39    9.999   .     S
Ce36     Ce37    9.999   .     S
Ce36     Er58    10.0   .     S
Ce37     Ce38    9.999   .     S
Ce37     Er79    10.0   .     S
Ce38     Ce39    9.999   .     S
Ce38     Er74    10.0   .     S
Ce39     Er48    10.0   .     S
Ce40     Ce43    9.999   .     S
Ce40     Ce41    9.999   .     S
Ce40     Er70    10.0   .     S
Ce41     Ce42    9.999   .     S
Ce41     Er73    10.0   .     S
Ce42     Ce43    9.999   .     S
Ce42     Er63    10.0   .     S
Ce43     Er52    10.0   .     S
Ce44     Ce47    9.999   .     S
Ce44     Ce45    9.999   .     S
Ce44     Er69    10.0   .     S
Ce45     Ce46    9.999   .     S
Ce45     Er76    10.0   .     S
Ce46     Ce47    9.999   .     S
Ce46     Er50    10.0   .     S
Ce47     Er53    10.0   .     S
Er48     Er49    9.992   .     S
Er48     Er50    9.992   .     S
Er49     Ce54    10.0   .     S
Er49     Er50    9.992   .     S
Er51     Ce57    10.0   .     S
Er51     Er52    9.992   .     S
Er51     Er53    9.992   .     S
Er52     Er53    9.992   .     S
Ce54     Ce57    9.999   .     S
Ce54     Ce55    9.999   .     S
Ce55     Ce56    9.999   .     S
Ce55     Er60    10.0   .     S
Ce56     Ce57    9.999   .     S
Ce56     Er62    10.0   .     S
Er58     Er60    9.992   .     S
Er58     Er59    9.992   .     S
Er59     Ce64    10.0   .     S
Er59     Er60    9.992   .     S
Er61     Ce67    10.0   .     S
Er61     Er62    9.992   .     S
Er61     Er63    9.992   .     S
Er62     Er63    9.992   .     S
Ce64     Ce67    9.999   .     S
Ce64     Ce65    9.999   .     S
Ce65     Ce66    9.999   .     S
Ce65     Er78    10.0   .     S
Ce66     Ce67    9.999   .     S
Ce66     Er71    10.0   .     S
Er68     Ce83    10.0   .     S
Er68     Er69    9.992   .     S
Er68     Er70    9.992   .     S
Er69     Er70    9.992   .     S
Er71     Er73    9.992   .     S
Er71     Er72    9.992   .     S
Er72     Ce80    10.0   .     S
Er72     Er73    9.992   .     S
Er74     V84    10.002   .     S
Er74     Er76    9.992   .     S
Er74     Er75    9.992   .     S
Er75     Ce82    10.0   .     S
Er75     V84    10.002   .     S
Er75     Er76    9.992   .     S
Er76     V84    10.002   .     S
Er77     Ce81    10.0   .     S
Er77     Er78    9.992   .     S
Er77     Er79    9.992   .     S
Er78     Er79    9.992   .     S
Ce80     Ce83    9.999   .     S
Ce80     Ce81    9.999   .     S
Ce81     Ce82    9.999   .     S
Ce82     Ce83    9.999   .     S
V85     Er123    10.002   .     S
V85     Er124    10.002   .     S
V85     Er125    10.002   .     S
V85     Ti198    10.018   .     S
V86     Er116    10.002   .     S
V86     Er118    10.002   .     S
V86     Er117    10.002   .     S
V87     Er95    10.002   .     S
V87     Er97    10.002   .     S
V87     Er96    10.002   .     S
V88     Er131    10.002   .     S
V88     Er130    10.002   .     S
V88     Er132    10.002   .     S
V89     Er99    10.002   .     S
V89     Er98    10.002   .     S
V89     Er100    10.002   .     S
V90     Er102    10.002   .     S
V90     Er101    10.002   .     S
V90     Er103    10.002   .     S
V91     Er134    10.002   .     S
V91     Er133    10.002   .     S
V91     Er135    10.002   .     S
Er92     Ce115    10.0   .     S
Er92     V140    10.002   .     S
Er92     Er94    9.992   .     S
Er92     Er93    9.992   .     S
Er93     Ce107    10.0   .     S
Er93     V140    10.002   .     S
Er93     Er94    9.992   .     S
Er94     Ce139    10.0   .     S
Er94     V140    10.002   .     S
Er95     Ce129    10.0   .     S
Er95     Er96    9.992   .     S
Er95     Er97    9.992   .     S
Er96     Ce105    10.0   .     S
Er96     Er97    9.992   .     S
Er97     Ce137    10.0   .     S
Er98     Ce122    10.0   .     S
Er98     Er100    9.992   .     S
Er98     Er99    9.992   .     S
Er99     Ce114    10.0   .     S
Er99     Er100    9.992   .     S
Er100     Ce106    10.0   .     S
Er101     Ce120    10.0   .     S
Er101     Er103    9.992   .     S
Er101     Er102    9.992   .     S
Er102     Ce126    10.0   .     S
Er102     Er103    9.992   .     S
Er103     Ce104    10.0   .     S
Ce104     Ce105    9.999   1_556     S
Ce104     Ce106    9.999   .     S
Ce105     Ce104    9.999   1_554     S
Ce105     Ce107    9.999   .     S
Ce106     Ce107    9.999   1_556     S
Ce107     Ce106    9.999   1_554     S
Ce108     Ce109    9.999   1_556     S
Ce108     Ce110    9.999   .     S
Ce108     Er125    10.0   .     S
Ce109     Ce108    9.999   1_554     S
Ce109     Ce111    9.999   .     S
Ce109     Er133    10.0   .     S
Ce110     Ce111    9.999   1_556     S
Ce110     Er118    10.0   .     S
Ce111     Ce110    9.999   1_554     S
Ce111     Er130    10.0   .     S
Ce112     Ce115    9.999   1_565     S
Ce112     Ce113    9.999   1_554     S
Ce112     Er131    10.0   .     S
Ce113     Ce112    9.999   1_556     S
Ce113     Ce114    9.999   1_565     S
Ce113     Er117    10.0   .     S
Ce114     Ce113    9.999   1_545     S
Ce114     Ce115    9.999   1_556     S
Ce115     Ce112    9.999   1_545     S
Ce115     Ce114    9.999   1_554     S
Er116     Ce121    10.0   .     S
Er116     Er117    9.992   .     S
Er116     Er118    9.992   .     S
Er117     Er118    9.992   .     S
Ce119     Ce120    9.999   1_565     S
Ce119     Ce121    9.999   .     S
Ce119     Er124    10.0   .     S
Ce120     Ce119    9.999   1_545     S
Ce120     Ce122    9.999   .     S
Ce121     Ce122    9.999   1_565     S
Ce122     Ce121    9.999   1_545     S
Er123     Ce127    10.0   .     S
Er123     Er125    9.992   .     S
Er123     Er124    9.992   .     S
Er124     Er125    9.992   .     S
Ce126     Ce129    9.999   1_556     S
Ce126     Ce127    9.999   1_545     S
Ce127     Ce128    9.999   1_556     S
Ce127     Ce126    9.999   1_565     S
Ce128     Ce127    9.999   1_554     S
Ce128     Ce129    9.999   1_565     S
Ce128     Er134    10.0   .     S
Ce129     Ce126    9.999   1_554     S
Ce129     Ce128    9.999   1_545     S
Er130     Er132    9.992   .     S
Er130     Er131    9.992   .     S
Er131     Er132    9.992   .     S
Er132     Ce138    10.0   .     S
Er133     Er135    9.992   .     S
Er133     Er134    9.992   .     S
Er134     Er135    9.992   .     S
Er135     Ce136    10.0   .     S
Ce136     Ce137    9.999   1_565     S
Ce136     Ce138    9.999   .     S
Ce137     Ce136    9.999   1_545     S
Ce137     Ce139    9.999   .     S
Ce138     Ce139    9.999   1_565     S
Ce139     Ce138    9.999   1_545     S
V141     Er179    10.002   .     S
V141     Er180    10.002   .     S
V141     Er181    10.002   .     S
V141     Ti199    10.018   .     S
V142     Er172    10.002   .     S
V142     Er174    10.002   .     S
V142     Er173    10.002   .     S
V143     Er158    10.002   .     S
V143     Er157    10.002   .     S
V143     Er159    10.002   .     S
V144     Er190    10.002   .     S
V144     Er189    10.002   .     S
V144     Er191    10.002   .     S
V145     Er151    10.002   .     S
V145     Er153    10.002   .     S
V145     Er152    10.002   .     S
V146     Er187    10.002   .     S
V146     Er186    10.002   .     S
V146     Er188    10.002   .     S
V147     Er148    10.002   .     S
V147     Er150    10.002   .     S
V147     Er149    10.002   .     S
Er148     Ce185    10.0   .     S
Er148     Er150    9.992   .     S
Er148     Er149    9.992   .     S
Er149     Ce193    10.0   .     S
Er149     Er150    9.992   .     S
Er150     Ce161    10.0   .     S
Er151     Ce171    10.0   .     S
Er151     Er152    9.992   .     S
Er151     Er153    9.992   .     S
Er152     Ce195    10.0   .     S
Er152     Er153    9.992   .     S
Er153     Ce163    10.0   .     S
Er154     Ce165    10.0   .     S
Er154     V196    10.002   .     S
Er154     Er156    9.992   .     S
Er154     Er155    9.992   .     S
Er155     Ce170    10.0   .     S
Er155     V196    10.002   .     S
Er155     Er156    9.992   .     S
Er156     Ce162    10.0   .     S
Er156     V196    10.002   .     S
Er157     Ce167    10.0   .     S
Er157     Er159    9.992   .     S
Er157     Er158    9.992   .     S
Er158     Ce182    10.0   .     S
Er158     Er159    9.992   .     S
Er159     Ce160    10.0   .     S
Ce160     Ce161    9.999   1_655     S
Ce160     Ce162    9.999   .     S
Ce161     Ce160    9.999   1_455     S
Ce161     Ce163    9.999   .     S
Ce162     Ce163    9.999   1_655     S
Ce163     Ce162    9.999   1_455     S
Ce164     Ce165    9.999   1_556     S
Ce164     Ce166    9.999   .     S
Ce164     Er174    10.0   .     S
Ce165     Ce164    9.999   1_554     S
Ce165     Ce167    9.999   .     S
Ce166     Ce167    9.999   1_556     S
Ce166     Er181    10.0   .     S
Ce167     Ce166    9.999   1_554     S
Ce168     Ce171    9.999   1_556     S
Ce168     Ce169    9.999   1_455     S
Ce168     Er187    10.0   .     S
Ce169     Ce170    9.999   1_556     S
Ce169     Ce168    9.999   1_655     S
Ce169     Er173    10.0   .     S
Ce170     Ce169    9.999   1_554     S
Ce170     Ce171    9.999   1_655     S
Ce171     Ce168    9.999   1_554     S
Ce171     Ce170    9.999   1_455     S
Er172     Ce177    10.0   .     S
Er172     Er173    9.992   .     S
Er172     Er174    9.992   .     S
Er173     Er174    9.992   .     S
Ce175     Ce176    9.999   1_655     S
Ce175     Ce177    9.999   .     S
Ce175     Er180    10.0   .     S
Ce176     Ce175    9.999   1_455     S
Ce176     Ce178    9.999   .     S
Ce176     Er189    10.0   .     S
Ce177     Ce178    9.999   1_655     S
Ce178     Ce177    9.999   1_455     S
Ce178     Er186    10.0   .     S
Er179     Ce183    10.0   .     S
Er179     Er180    9.992   .     S
Er179     Er181    9.992   .     S
Er180     Er181    9.992   .     S
Ce182     Ce185    9.999   1_655     S
Ce182     Ce183    9.999   1_554     S
Ce183     Ce182    9.999   1_556     S
Ce183     Ce184    9.999   1_655     S
Ce184     Ce183    9.999   1_455     S
Ce184     Ce185    9.999   1_556     S
Ce184     Er190    10.0   .     S
Ce185     Ce182    9.999   1_455     S
Ce185     Ce184    9.999   1_554     S
Er186     Er188    9.992   .     S
Er186     Er187    9.992   .     S
Er187     Er188    9.992   .     S
Er188     Ce194    10.0   .     S
Er189     Er191    9.992   .     S
Er189     Er190    9.992   .     S
Er190     Er191    9.992   .     S
Er191     Ce192    10.0   .     S
Ce192     Ce193    9.999   1_556     S
Ce192     Ce194    9.999   .     S
Ce193     Ce192    9.999   1_554     S
Ce193     Ce195    9.999   .     S
Ce194     Ce195    9.999   1_556     S
Ce195     Ce194    9.999   1_554     S
Ti197     Ti198    10.0   .     S
Ti197     Ti199    10.0   .     S
Ti197     Ti200    10.0   .     S
Ti197     V201    10.018   .     S
Ti198     Ti199    10.0   .     S
Ti198     Ti200    10.0   .     S
Ti199     Ti200    10.0   .     S
V201     Er233    10.002   .     S
V201     Er234    10.002   .     S
V201     Er235    10.002   .     S
V202     Er226    10.002   .     S
V202     Er228    10.002   .     S
V202     Er227    10.002   .     S
V203     Er247    10.002   .     S
V203     Er246    10.002   .     S
V203     Er248    10.002   .     S
V204     Er240    10.002   .     S
V204     Er241    10.002   .     S
V204     Er242    10.002   .     S
V205     Er212    10.002   .     S
V205     Er211    10.002   .     S
V205     Er213    10.002   .     S
V206     Er209    10.002   .     S
V206     Er208    10.002   .     S
V206     Er210    10.002   .     S
V207     Er250    10.002   .     S
V207     Er249    10.002   .     S
V207     Er251    10.002   .     S
Er208     Ce232    10.0   .     S
Er208     Er210    9.992   .     S
Er208     Er209    9.992   .     S
Er209     Ce222    10.0   .     S
Er209     Er210    9.992   .     S
Er210     Ce216    10.0   .     S
Er211     Ce230    10.0   .     S
Er211     Er213    9.992   .     S
Er211     Er212    9.992   .     S
Er212     Ce237    10.0   .     S
Er212     Er213    9.992   .     S
Er213     Ce214    10.0   .     S
Ce214     Ce215    9.999   1_565     S
Ce214     Ce216    9.999   .     S
Ce215     Ce214    9.999   1_545     S
Ce215     Ce217    9.999   .     S
Ce215     Er242    10.0   .     S
Ce216     Ce217    9.999   1_565     S
Ce217     Ce216    9.999   1_545     S
Ce217     Er245    10.0   .     S
Ce218     Ce219    9.999   1_565     S
Ce218     Ce221    9.999   .     S
Ce218     Er228    10.0   .     S
Ce219     Ce218    9.999   1_545     S
Ce219     Ce220    9.999   .     S
Ce219     Er249    10.0   .     S
Ce220     Ce221    9.999   1_545     S
Ce220     Er246    10.0   .     S
Ce221     Ce220    9.999   1_565     S
Ce221     Er235    10.0   .     S
Ce222     Ce225    9.999   1_565     S
Ce222     Ce223    9.999   1_455     S
Ce223     Ce224    9.999   1_565     S
Ce223     Ce222    9.999   1_655     S
Ce223     Er227    10.0   .     S
Ce224     Ce223    9.999   1_545     S
Ce224     Ce225    9.999   1_655     S
Ce224     Er250    10.0   .     S
Ce225     Ce222    9.999   1_545     S
Ce225     Ce224    9.999   1_455     S
Ce225     Er243    10.0   .     S
Er226     Ce231    10.0   .     S
Er226     Er227    9.992   .     S
Er226     Er228    9.992   .     S
Er227     Er228    9.992   .     S
Ce229     Ce230    9.999   1_655     S
Ce229     Ce231    9.999   .     S
Ce229     Er234    10.0   .     S
Ce230     Ce229    9.999   1_455     S
Ce230     Ce232    9.999   .     S
Ce231     Ce232    9.999   1_655     S
Ce232     Ce231    9.999   1_455     S
Er233     Ce236    10.0   .     S
Er233     Er235    9.992   .     S
Er233     Er234    9.992   .     S
Er234     Er235    9.992   .     S
Ce236     Ce238    9.999   1_565     S
Ce236     Ce237    9.999   1_655     S
Ce237     Ce236    9.999   1_455     S
Ce237     Ce239    9.999   1_565     S
Ce238     Ce236    9.999   1_545     S
Ce238     Ce239    9.999   1_655     S
Ce238     Er247    10.0   .     S
Ce239     Ce237    9.999   1_545     S
Ce239     Ce238    9.999   1_455     S
Ce239     Er240    10.0   .     S
Er240     Er242    9.992   .     S
Er240     Er241    9.992   .     S
Er241     Ce254    10.0   .     S
Er241     Er242    9.992   .     S
Er243     V256    10.002   .     S
Er243     Er244    9.992   .     S
Er243     Er245    9.992   .     S
Er244     Ce253    10.0   .     S
Er244     V256    10.002   .     S
Er244     Er245    9.992   .     S
Er245     V256    10.002   .     S
Er246     Er248    9.992   .     S
Er246     Er247    9.992   .     S
Er247     Er248    9.992   .     S
Er248     Ce255    10.0   .     S
Er249     Er251    9.992   .     S
Er249     Er250    9.992   .     S
Er250     Er251    9.992   .     S
Er251     Ce252    10.0   .     S
Ce252     Ce253    9.999   1_655     S
Ce252     Ce255    9.999   .     S
Ce253     Ce252    9.999   1_455     S
Ce253     Ce254    9.999   .     S
Ce254     Ce255    9.999   1_455     S
Ce255     Ce254    9.999   1_655     S
