data_dtc
_audit_creation_date              2020-02-04
_audit_creation_method            'Pymatgen'
_symmetry_space_group_name_H-M    'P1'
_symmetry_Int_Tables_number       1
loop_
_symmetry_equiv_pos_as_xyz
  x,y,z
_cell_length_a                    62.8017
_cell_length_b                    62.8017
_cell_length_c                    27.2202
_cell_angle_alpha                 90.0
_cell_angle_beta                 90.0
_cell_angle_gamma                 120.0
loop_
_atom_site_label
_atom_site_type_symbol
_atom_site_fract_x
_atom_site_fract_y
_atom_site_fract_z
V1     V     0.4632   0.0857   0.4337
V2     V     0.3775   0.9143   0.5663
V3     V     0.3775   0.9143   0.9337
V4     V     0.4632   0.0857   0.0663
Er5     Er     0.4952   0.2476   0.9337
Er6     Er     0.4952   0.2476   0.5663
Er7     Er     0.2476   0.7524   0.0663
Ti8     Ti     0.3333   0.6667   0.9337
Er9     Er     0.5048   0.7524   0.0663
Er10     Er     0.5048   0.7524   0.4337
Ti11     Ti     0.3333   0.6667   0.5663
Er12     Er     0.2476   0.7524   0.4337
V13     V     0.6225   0.0857   0.0663
V14     V     0.5368   0.9143   0.9337
V15     V     0.5368   0.9143   0.5663
V16     V     0.6225   0.0857   0.4337
V17     V     0.9143   0.3775   0.4337
V18     V     0.0857   0.4632   0.5663
V19     V     0.0857   0.4632   0.9337
V20     V     0.9143   0.3775   0.0663
Er21     Er     0.7524   0.5048   0.9337
Ti22     Ti     0.6667   0.3333   0.0663
Er23     Er     0.7524   0.2476   0.9337
Er24     Er     0.7524   0.5048   0.5663
Ti25     Ti     0.6667   0.3333   0.4337
Er26     Er     0.7524   0.2476   0.5663
V27     V     0.0857   0.6225   0.9337
V28     V     0.9143   0.5368   0.0663
V29     V     0.9143   0.5368   0.4337
V30     V     0.0857   0.6225   0.5663
V31     V     0.4632   0.3775   0.0663
V32     V     0.6225   0.5368   0.0663
V33     V     0.3775   0.4632   0.9337
V34     V     0.5368   0.6225   0.9337
V35     V     0.4632   0.3775   0.4337
V36     V     0.6225   0.5368   0.4337
V37     V     0.3775   0.4632   0.5663
V38     V     0.5368   0.6225   0.5663
Er39     Er     0.2476   0.4952   0.4337
Er40     Er     0.2476   0.4952   0.0663
loop_
_geom_bond_atom_site_label_1
_geom_bond_atom_site_label_2
_geom_bond_distance
_geom_bond_site_symmetry_2
_ccdc_geom_bond_type
V1     V16    10.0   .     S
V1     V2    10.0   1_545     S
V1     V4    10.0   .     S
V1     Er6    10.0   .     S
V2     V15    10.0   .     S
V2     V1    10.0   1_565     S
V2     V3    10.0   .     S
V2     Er12    10.0   .     S
V3     V4    10.0   1_566     S
V3     Er7    10.0   1_556     S
V3     V14    10.0   .     S
V4     V3    10.0   1_544     S
V4     Er5    10.0   1_554     S
V4     V13    10.0   .     S
Er5     Ti22    10.0   1_556     S
Er5     V31    10.0   1_556     S
Er5     V4    10.0   1_556     S
Er5     Er6    10.0   .     S
Er6     Ti25    10.0   .     S
Er6     V35    10.0   .     S
Er7     Ti8    10.0   1_554     S
Er7     V27    10.0   1_554     S
Er7     V3    10.0   1_554     S
Er7     Er12    10.0   .     S
Ti8     Er7    10.0   1_556     S
Ti8     Er9    10.0   1_556     S
Ti8     Ti11    10.0   .     S
Ti8     Er40    10.0   1_556     S
Er9     Ti8    10.0   1_554     S
Er9     V34    10.0   1_554     S
Er9     V14    10.0   1_554     S
Er9     Er10    10.0   .     S
Er10     Ti11    10.0   .     S
Er10     V38    10.0   .     S
Er10     V15    10.0   .     S
Ti11     Er12    10.0   .     S
Ti11     Er39    10.0   .     S
Er12     V30    10.0   .     S
V13     V14    10.0   1_544     S
V13     V16    10.0   .     S
V13     Er23    10.0   1_554     S
V14     Er9    10.0   1_556     S
V14     V13    10.0   1_566     S
V14     V15    10.0   .     S
V15     V16    10.0   1_565     S
V16     V15    10.0   1_545     S
V16     Er26    10.0   .     S
V17     V29    10.0   .     S
V17     V18    10.0   1_655     S
V17     V20    10.0   .     S
V17     Er26    10.0   .     S
V18     V30    10.0   .     S
V18     V17    10.0   1_455     S
V18     V19    10.0   .     S
V18     Er39    10.0   .     S
V19     V20    10.0   1_456     S
V19     V27    10.0   .     S
V19     Er40    10.0   1_556     S
V20     V19    10.0   1_654     S
V20     Er23    10.0   1_554     S
V20     V28    10.0   .     S
Er21     Ti22    10.0   1_556     S
Er21     V32    10.0   1_556     S
Er21     V28    10.0   1_556     S
Er21     Er24    10.0   .     S
Ti22     Er5    10.0   1_554     S
Ti22     Ti25    10.0   .     S
Ti22     Er21    10.0   1_554     S
Ti22     Er23    10.0   1_554     S
Er23     Ti22    10.0   1_556     S
Er23     V13    10.0   1_556     S
Er23     V20    10.0   1_556     S
Er23     Er26    10.0   .     S
Er24     Ti25    10.0   .     S
Er24     V36    10.0   .     S
Er24     V29    10.0   .     S
Ti25     Er26    10.0   .     S
V27     Er7    10.0   1_556     S
V27     V28    10.0   1_456     S
V27     V30    10.0   .     S
V28     Er21    10.0   1_554     S
V28     V27    10.0   1_654     S
V28     V29    10.0   .     S
V29     V30    10.0   1_655     S
V30     V29    10.0   1_455     S
V31     Er5    10.0   1_554     S
V31     V32    10.0   .     S
V31     V33    10.0   1_554     S
V31     V35    10.0   .     S
V32     Er21    10.0   1_554     S
V32     V34    10.0   1_554     S
V32     V36    10.0   .     S
V33     V34    10.0   .     S
V33     V31    10.0   1_556     S
V33     V37    10.0   .     S
V33     Er40    10.0   1_556     S
V34     Er9    10.0   1_556     S
V34     V32    10.0   1_556     S
V34     V38    10.0   .     S
V35     V36    10.0   .     S
V35     V37    10.0   .     S
V36     V38    10.0   .     S
V37     V38    10.0   .     S
V37     Er39    10.0   .     S
Er39     Er40    10.0   .     S
Er40     Ti8    10.0   1_554     S
Er40     V19    10.0   1_554     S
Er40     V33    10.0   1_554     S
