data_dtd
_audit_creation_date              2020-02-04
_audit_creation_method            'Pymatgen'
_symmetry_space_group_name_H-M    'P1'
_symmetry_Int_Tables_number       1
loop_
_symmetry_equiv_pos_as_xyz
  x,y,z
_cell_length_a                    95.5589
_cell_length_b                    95.5589
_cell_length_c                    26.9703
_cell_angle_alpha                 90.0
_cell_angle_beta                 90.0
_cell_angle_gamma                 120.0
loop_
_atom_site_label
_atom_site_type_symbol
_atom_site_fract_x
_atom_site_fract_y
_atom_site_fract_z
V1     V     0.4674   0.8301   0.4354
V2     V     0.3627   0.8301   0.4354
V3     V     0.5326   0.1699   0.5646
V4     V     0.6373   0.1699   0.5646
Ce5     Ce     0.524   0.9434   0.5646
Ce6     Ce     0.4194   0.9434   0.5646
Ce7     Ce     0.476   0.0566   0.4354
Ce8     Ce     0.5806   0.0566   0.4354
V9     V     0.4674   0.8301   0.0646
V10     V     0.3627   0.8301   0.0646
V11     V     0.6373   0.1699   0.9354
Ce12     Ce     0.524   0.9434   0.9354
Ce13     Ce     0.4194   0.9434   0.9354
Ce14     Ce     0.476   0.0566   0.0646
Ce15     Ce     0.5806   0.0566   0.0646
V16     V     0.5326   0.1699   0.9354
Ce17     Ce     0.524   0.5806   0.5646
Ce18     Ce     0.4194   0.476   0.5646
V19     V     0.3627   0.5326   0.4354
V20     V     0.4674   0.6373   0.4354
V21     V     0.5326   0.3627   0.5646
V22     V     0.6373   0.4674   0.5646
Ce23     Ce     0.5806   0.524   0.4354
Ce24     Ce     0.476   0.4194   0.4354
V25     V     0.3627   0.5326   0.0646
V26     V     0.4674   0.6373   0.0646
Ce27     Ce     0.524   0.5806   0.9354
Ce28     Ce     0.4194   0.476   0.9354
Ce29     Ce     0.5806   0.524   0.0646
Ce30     Ce     0.476   0.4194   0.0646
V31     V     0.5326   0.3627   0.9354
V32     V     0.6373   0.4674   0.9354
Er33     Er     0.5534   0.2767   0.0646
Er34     Er     0.7233   0.4466   0.0646
Er35     Er     0.7233   0.2767   0.0646
Ti36     Ti     0.6667   0.3333   0.9354
Er37     Er     0.5534   0.2767   0.4354
Er38     Er     0.7233   0.4466   0.4354
Er39     Er     0.7233   0.2767   0.4354
Ti40     Ti     0.6667   0.3333   0.5646
Er41     Er     0.2767   0.7233   0.5646
Er42     Er     0.4466   0.7233   0.5646
Er43     Er     0.2767   0.5534   0.5646
Ti44     Ti     0.3333   0.6667   0.4354
Er45     Er     0.4466   0.7233   0.9354
Er46     Er     0.2767   0.7233   0.9354
Er47     Er     0.2767   0.5534   0.9354
Ti48     Ti     0.3333   0.6667   0.0646
Ce49     Ce     0.0566   0.476   0.5646
Ce50     Ce     0.0566   0.5806   0.5646
V51     V     0.1699   0.5326   0.4354
V52     V     0.1699   0.6373   0.4354
V53     V     0.8301   0.4674   0.5646
V54     V     0.8301   0.3627   0.5646
Ce55     Ce     0.9434   0.524   0.4354
Ce56     Ce     0.9434   0.4194   0.4354
V57     V     0.1699   0.6373   0.0646
V58     V     0.8301   0.4674   0.9354
Ce59     Ce     0.9434   0.524   0.0646
Ce60     Ce     0.9434   0.4194   0.0646
V61     V     0.1699   0.5326   0.0646
Ce62     Ce     0.0566   0.476   0.9354
Ce63     Ce     0.0566   0.5806   0.9354
V64     V     0.8301   0.3627   0.9354
loop_
_geom_bond_atom_site_label_1
_geom_bond_atom_site_label_2
_geom_bond_distance
_geom_bond_site_symmetry_2
_ccdc_geom_bond_type
V1     V2    10.0   .     S
V1     Ce5    10.0   .     S
V1     V9    10.0   .     S
V1     Er42    10.0   .     S
V2     Ce6    10.0   .     S
V2     V10    10.0   .     S
V2     Er41    10.0   .     S
V3     V4    10.0   .     S
V3     Ce7    10.0   .     S
V3     V16    10.0   .     S
V3     Er37    10.0   .     S
V4     Ce8    10.0   .     S
V4     V11    10.0   .     S
V4     Er39    10.0   .     S
Ce5     Ce6    10.0   .     S
Ce5     Ce8    10.0   1_565     S
Ce5     Ce12    10.0   .     S
Ce6     Ce7    10.0   1_565     S
Ce6     Ce13    10.0   .     S
Ce7     Ce6    10.0   1_545     S
Ce7     Ce8    10.0   .     S
Ce7     Ce14    10.0   .     S
Ce8     Ce5    10.0   1_545     S
Ce8     Ce15    10.0   .     S
V9     V10    10.0   .     S
V9     Ce12    10.0   1_554     S
V9     Er45    10.0   1_554     S
V10     Ce13    10.0   1_554     S
V10     Er46    10.0   1_554     S
V11     V16    10.0   .     S
V11     Ce15    10.0   1_556     S
V11     Er35    10.0   1_556     S
Ce12     V9    10.0   1_556     S
Ce12     Ce13    10.0   .     S
Ce12     Ce15    10.0   1_566     S
Ce13     V10    10.0   1_556     S
Ce13     Ce14    10.0   1_566     S
Ce14     Ce13    10.0   1_544     S
Ce14     Ce15    10.0   .     S
Ce14     V16    10.0   1_554     S
Ce15     Ce12    10.0   1_544     S
Ce15     V11    10.0   1_554     S
V16     Ce14    10.0   1_556     S
V16     Er33    10.0   1_556     S
Ce17     Ce18    10.0   .     S
Ce17     V20    10.0   .     S
Ce17     Ce23    10.0   .     S
Ce17     Ce27    10.0   .     S
Ce18     V19    10.0   .     S
Ce18     Ce24    10.0   .     S
Ce18     Ce28    10.0   .     S
V19     V20    10.0   .     S
V19     V25    10.0   .     S
V19     Er43    10.0   .     S
V20     V26    10.0   .     S
V20     Er42    10.0   .     S
V21     V22    10.0   .     S
V21     Ce24    10.0   .     S
V21     V31    10.0   .     S
V21     Er37    10.0   .     S
V22     Ce23    10.0   .     S
V22     V32    10.0   .     S
V22     Er38    10.0   .     S
Ce23     Ce24    10.0   .     S
Ce23     Ce29    10.0   .     S
Ce24     Ce30    10.0   .     S
V25     V26    10.0   .     S
V25     Ce28    10.0   1_554     S
V25     Er47    10.0   1_554     S
V26     Ce27    10.0   1_554     S
V26     Er45    10.0   1_554     S
Ce27     V26    10.0   1_556     S
Ce27     Ce28    10.0   .     S
Ce27     Ce29    10.0   1_556     S
Ce28     V25    10.0   1_556     S
Ce28     Ce30    10.0   1_556     S
Ce29     Ce30    10.0   .     S
Ce29     V32    10.0   1_554     S
Ce29     Ce27    10.0   1_554     S
Ce30     V31    10.0   1_554     S
Ce30     Ce28    10.0   1_554     S
V31     V32    10.0   .     S
V31     Ce30    10.0   1_556     S
V31     Er33    10.0   1_556     S
V32     Ce29    10.0   1_556     S
V32     Er34    10.0   1_556     S
Er33     V31    10.0   1_554     S
Er33     V16    10.0   1_554     S
Er33     Ti36    10.0   1_554     S
Er33     Er37    10.0   .     S
Er34     V32    10.0   1_554     S
Er34     V58    10.0   1_554     S
Er34     Ti36    10.0   1_554     S
Er34     Er38    10.0   .     S
Er35     V64    10.0   1_554     S
Er35     V11    10.0   1_554     S
Er35     Ti36    10.0   1_554     S
Er35     Er39    10.0   .     S
Ti36     Ti40    10.0   .     S
Ti36     Er34    10.0   1_556     S
Ti36     Er33    10.0   1_556     S
Ti36     Er35    10.0   1_556     S
Er37     Ti40    10.0   .     S
Er38     V53    10.0   .     S
Er38     Ti40    10.0   .     S
Er39     V54    10.0   .     S
Er39     Ti40    10.0   .     S
Er41     V52    10.0   .     S
Er41     Ti44    10.0   .     S
Er41     Er46    10.0   .     S
Er42     Ti44    10.0   .     S
Er42     Er45    10.0   .     S
Er43     V51    10.0   .     S
Er43     Ti44    10.0   .     S
Er43     Er47    10.0   .     S
Ti44     Ti48    10.0   .     S
Er45     V9    10.0   1_556     S
Er45     V26    10.0   1_556     S
Er45     Ti48    10.0   1_556     S
Er46     V10    10.0   1_556     S
Er46     V57    10.0   1_556     S
Er46     Ti48    10.0   1_556     S
Er47     V25    10.0   1_556     S
Er47     V61    10.0   1_556     S
Er47     Ti48    10.0   1_556     S
Ti48     Er45    10.0   1_554     S
Ti48     Er46    10.0   1_554     S
Ti48     Er47    10.0   1_554     S
Ce49     Ce50    10.0   .     S
Ce49     V51    10.0   .     S
Ce49     Ce56    10.0   1_455     S
Ce49     Ce62    10.0   .     S
Ce50     Ce55    10.0   1_455     S
Ce50     V52    10.0   .     S
Ce50     Ce63    10.0   .     S
V51     V52    10.0   .     S
V51     V61    10.0   .     S
V52     V57    10.0   .     S
V53     V54    10.0   .     S
V53     Ce55    10.0   .     S
V53     V58    10.0   .     S
V54     Ce56    10.0   .     S
V54     V64    10.0   .     S
Ce55     Ce50    10.0   1_655     S
Ce55     Ce56    10.0   .     S
Ce55     Ce59    10.0   .     S
Ce56     Ce49    10.0   1_655     S
Ce56     Ce60    10.0   .     S
V57     Er46    10.0   1_554     S
V57     V61    10.0   .     S
V57     Ce63    10.0   1_554     S
V58     Er34    10.0   1_556     S
V58     V64    10.0   .     S
V58     Ce59    10.0   1_556     S
Ce59     Ce60    10.0   .     S
Ce59     V58    10.0   1_554     S
Ce59     Ce63    10.0   1_654     S
Ce60     V64    10.0   1_554     S
Ce60     Ce62    10.0   1_654     S
V61     Er47    10.0   1_554     S
V61     Ce62    10.0   1_554     S
Ce62     V61    10.0   1_556     S
Ce62     Ce63    10.0   .     S
Ce62     Ce60    10.0   1_456     S
Ce63     V57    10.0   1_556     S
Ce63     Ce59    10.0   1_456     S
V64     Er35    10.0   1_556     S
V64     Ce60    10.0   1_556     S
