data_ecb
_audit_creation_date              2020-02-04
_audit_creation_method            'Pymatgen'
_symmetry_space_group_name_H-M    'P1'
_symmetry_Int_Tables_number       1
loop_
_symmetry_equiv_pos_as_xyz
  x,y,z
_cell_length_a                    42.311
_cell_length_b                    42.311
_cell_length_c                    19.9998
_cell_angle_alpha                 90.0
_cell_angle_beta                 90.0
_cell_angle_gamma                 120.0
loop_
_atom_site_label
_atom_site_type_symbol
_atom_site_fract_x
_atom_site_fract_y
_atom_site_fract_z
V1     V     0.7953   0.7953   0.375
V2     V     0.7953   0.7953   0.875
V3     V     0.538   0.6667   0.2083
V4     V     0.538   0.6667   0.7083
V5     V     0.6667   0.538   0.0417
V6     V     0.6667   0.538   0.5417
V7     V     0.6667   0.1287   0.2917
V8     V     0.6667   0.1287   0.7917
V9     V     0.7953   0.0   0.125
V10     V     0.7953   0.0   0.625
V11     V     0.538   0.8713   0.4583
V12     V     0.538   0.8713   0.9583
V13     V     0.1287   0.6667   0.4583
V14     V     0.1287   0.6667   0.9583
V15     V     1.0   0.7953   0.125
V16     V     1.0   0.7953   0.625
V17     V     0.8713   0.538   0.2917
V18     V     0.8713   0.538   0.7917
V19     V     0.8713   0.3333   0.0417
V20     V     0.8713   0.3333   0.5417
V21     V     0.0   0.2047   0.375
V22     V     0.0   0.2047   0.875
V23     V     0.1287   0.462   0.2083
V24     V     0.1287   0.462   0.7083
V25     V     0.462   0.3333   0.2917
V26     V     0.462   0.3333   0.7917
V27     V     0.3333   0.462   0.4583
V28     V     0.3333   0.462   0.9583
V29     V     0.2047   0.2047   0.125
V30     V     0.2047   0.2047   0.625
V31     V     0.3333   0.8713   0.2083
V32     V     0.3333   0.8713   0.7083
V33     V     0.2047   0.0   0.375
V34     V     0.2047   0.0   0.875
V35     V     0.462   0.1287   0.0417
V36     V     0.462   0.1287   0.5417
loop_
_geom_bond_atom_site_label_1
_geom_bond_atom_site_label_2
_geom_bond_distance
_geom_bond_site_symmetry_2
_ccdc_geom_bond_type
V1     V9    10.0   1_565     S
V1     V10    10.0   1_565     S
V1     V6    10.0   .     S
V1     V3    10.0   .     S
V1     V2    10.0   1_554     S
V1     V2    10.0   .     S
V1     V16    10.0   .     S
V1     V15    10.0   .     S
V2     V10    10.0   1_565     S
V2     V9    10.0   1_566     S
V2     V5    10.0   1_556     S
V2     V4    10.0   .     S
V2     V1    10.0   1_556     S
V2     V15    10.0   1_556     S
V2     V16    10.0   .     S
V3     V11    10.0   .     S
V3     V12    10.0   1_554     S
V3     V5    10.0   .     S
V3     V4    10.0   .     S
V3     V4    10.0   1_554     S
V3     V28    10.0   1_554     S
V3     V27    10.0   .     S
V4     V12    10.0   .     S
V4     V11    10.0   .     S
V4     V6    10.0   .     S
V4     V3    10.0   1_556     S
V4     V27    10.0   .     S
V4     V28    10.0   .     S
V5     V25    10.0   .     S
V5     V26    10.0   1_554     S
V5     V2    10.0   1_554     S
V5     V6    10.0   .     S
V5     V6    10.0   1_554     S
V5     V18    10.0   1_554     S
V5     V17    10.0   .     S
V6     V26    10.0   .     S
V6     V25    10.0   .     S
V6     V5    10.0   1_556     S
V6     V17    10.0   .     S
V6     V18    10.0   .     S
V7     V9    10.0   .     S
V7     V11    10.0   1_545     S
V7     V8    10.0   1_554     S
V7     V8    10.0   .     S
V7     V20    10.0   .     S
V7     V19    10.0   .     S
V7     V35    10.0   .     S
V7     V36    10.0   .     S
V8     V10    10.0   .     S
V8     V12    10.0   1_545     S
V8     V7    10.0   1_556     S
V8     V19    10.0   1_556     S
V8     V20    10.0   .     S
V8     V36    10.0   .     S
V8     V35    10.0   1_556     S
V9     V1    10.0   1_545     S
V9     V2    10.0   1_544     S
V9     V12    10.0   1_544     S
V9     V10    10.0   .     S
V9     V10    10.0   1_554     S
V9     V22    10.0   1_654     S
V9     V21    10.0   1_655     S
V10     V2    10.0   1_545     S
V10     V1    10.0   1_545     S
V10     V11    10.0   1_545     S
V10     V9    10.0   1_556     S
V10     V21    10.0   1_655     S
V10     V22    10.0   1_655     S
V11     V32    10.0   .     S
V11     V31    10.0   .     S
V11     V10    10.0   1_565     S
V11     V7    10.0   1_565     S
V11     V12    10.0   1_554     S
V11     V12    10.0   .     S
V12     V3    10.0   1_556     S
V12     V31    10.0   1_556     S
V12     V32    10.0   .     S
V12     V9    10.0   1_566     S
V12     V8    10.0   1_565     S
V12     V11    10.0   1_556     S
V13     V31    10.0   .     S
V13     V32    10.0   .     S
V13     V16    10.0   1_455     S
V13     V17    10.0   1_455     S
V13     V14    10.0   1_554     S
V13     V14    10.0   .     S
V13     V24    10.0   .     S
V13     V23    10.0   .     S
V14     V32    10.0   .     S
V14     V31    10.0   1_556     S
V14     V15    10.0   1_456     S
V14     V18    10.0   1_455     S
V14     V13    10.0   1_556     S
V14     V23    10.0   1_556     S
V14     V24    10.0   .     S
V15     V33    10.0   1_665     S
V15     V34    10.0   1_664     S
V15     V17    10.0   .     S
V15     V14    10.0   1_654     S
V15     V16    10.0   .     S
V15     V16    10.0   1_554     S
V15     V2    10.0   1_554     S
V16     V34    10.0   1_665     S
V16     V33    10.0   1_665     S
V16     V18    10.0   .     S
V16     V13    10.0   1_655     S
V16     V15    10.0   1_556     S
V17     V13    10.0   1_655     S
V17     V18    10.0   1_554     S
V17     V18    10.0   .     S
V17     V19    10.0   .     S
V17     V20    10.0   .     S
V18     V5    10.0   1_556     S
V18     V14    10.0   1_655     S
V18     V17    10.0   1_556     S
V18     V20    10.0   .     S
V18     V19    10.0   1_556     S
V19     V8    10.0   1_554     S
V19     V23    10.0   1_655     S
V19     V22    10.0   1_654     S
V19     V20    10.0   .     S
V19     V20    10.0   1_554     S
V19     V18    10.0   1_554     S
V20     V24    10.0   1_655     S
V20     V21    10.0   1_655     S
V20     V19    10.0   1_556     S
V21     V10    10.0   1_455     S
V21     V9    10.0   1_455     S
V21     V23    10.0   .     S
V21     V20    10.0   1_455     S
V21     V22    10.0   1_554     S
V21     V22    10.0   .     S
V21     V29    10.0   .     S
V21     V30    10.0   .     S
V22     V9    10.0   1_456     S
V22     V10    10.0   1_455     S
V22     V24    10.0   .     S
V22     V19    10.0   1_456     S
V22     V21    10.0   1_556     S
V22     V30    10.0   .     S
V22     V29    10.0   1_556     S
V23     V27    10.0   .     S
V23     V28    10.0   1_554     S
V23     V14    10.0   1_554     S
V23     V19    10.0   1_455     S
V23     V24    10.0   .     S
V23     V24    10.0   1_554     S
V24     V28    10.0   .     S
V24     V27    10.0   .     S
V24     V20    10.0   1_455     S
V24     V23    10.0   1_556     S
V25     V27    10.0   .     S
V25     V29    10.0   .     S
V25     V26    10.0   1_554     S
V25     V26    10.0   .     S
V25     V36    10.0   .     S
V25     V35    10.0   .     S
V26     V5    10.0   1_556     S
V26     V28    10.0   .     S
V26     V30    10.0   .     S
V26     V25    10.0   1_556     S
V26     V35    10.0   1_556     S
V26     V36    10.0   .     S
V27     V30    10.0   .     S
V27     V28    10.0   1_554     S
V27     V28    10.0   .     S
V28     V3    10.0   1_556     S
V28     V23    10.0   1_556     S
V28     V29    10.0   1_556     S
V28     V27    10.0   1_556     S
V29     V34    10.0   1_554     S
V29     V33    10.0   .     S
V29     V22    10.0   1_554     S
V29     V28    10.0   1_554     S
V29     V30    10.0   .     S
V29     V30    10.0   1_554     S
V30     V33    10.0   .     S
V30     V34    10.0   .     S
V30     V29    10.0   1_556     S
V31     V12    10.0   1_554     S
V31     V14    10.0   1_554     S
V31     V35    10.0   1_565     S
V31     V33    10.0   1_565     S
V31     V32    10.0   .     S
V31     V32    10.0   1_554     S
V32     V36    10.0   1_565     S
V32     V34    10.0   1_565     S
V32     V31    10.0   1_556     S
V33     V15    10.0   1_445     S
V33     V16    10.0   1_445     S
V33     V36    10.0   .     S
V33     V31    10.0   1_545     S
V33     V34    10.0   1_554     S
V33     V34    10.0   .     S
V34     V16    10.0   1_445     S
V34     V15    10.0   1_446     S
V34     V29    10.0   1_556     S
V34     V35    10.0   1_556     S
V34     V32    10.0   1_545     S
V34     V33    10.0   1_556     S
V35     V26    10.0   1_554     S
V35     V34    10.0   1_554     S
V35     V31    10.0   1_545     S
V35     V36    10.0   .     S
V35     V36    10.0   1_554     S
V35     V8    10.0   1_554     S
V36     V32    10.0   1_545     S
V36     V35    10.0   1_556     S
