data_eco
_audit_creation_date              2020-02-04
_audit_creation_method            'Pymatgen'
_symmetry_space_group_name_H-M    'P1'
_symmetry_Int_Tables_number       1
loop_
_symmetry_equiv_pos_as_xyz
  x,y,z
_cell_length_a                    43.7753
_cell_length_b                    43.7753
_cell_length_c                    19.9998
_cell_angle_alpha                 90.0
_cell_angle_beta                 90.0
_cell_angle_gamma                 120.0
loop_
_atom_site_label
_atom_site_type_symbol
_atom_site_fract_x
_atom_site_fract_y
_atom_site_fract_z
V1     V     0.058   0.8094   0.0417
V2     V     0.058   0.8094   0.5417
V3     V     0.2753   0.8572   0.2917
V4     V     0.2753   0.8572   0.7917
V5     V     0.8094   0.7514   0.4583
V6     V     0.8094   0.7514   0.9583
V7     V     0.8572   0.5819   0.2083
V8     V     0.8572   0.5819   0.7083
V9     V     0.6087   0.5239   0.125
V10     V     0.6087   0.5239   0.625
V11     V     0.3913   0.4761   0.375
V12     V     0.3913   0.4761   0.875
V13     V     0.7514   0.942   0.0417
V14     V     0.7514   0.942   0.5417
V15     V     0.5819   0.7247   0.2917
V16     V     0.5819   0.7247   0.7917
V17     V     0.0848   0.6087   0.375
V18     V     0.0848   0.6087   0.875
V19     V     0.9152   0.3913   0.125
V20     V     0.9152   0.3913   0.625
V21     V     0.1906   0.2486   0.0417
V22     V     0.1906   0.2486   0.5417
V23     V     0.1428   0.4181   0.2917
V24     V     0.1428   0.4181   0.7917
V25     V     0.942   0.1906   0.4583
V26     V     0.942   0.1906   0.9583
V27     V     0.7247   0.1428   0.2083
V28     V     0.7247   0.1428   0.7083
V29     V     0.5239   0.9152   0.375
V30     V     0.5239   0.9152   0.875
V31     V     0.4761   0.0848   0.125
V32     V     0.4761   0.0848   0.625
V33     V     0.2486   0.058   0.4583
V34     V     0.2486   0.058   0.9583
V35     V     0.4181   0.2753   0.2083
V36     V     0.4181   0.2753   0.7083
loop_
_geom_bond_atom_site_label_1
_geom_bond_atom_site_label_2
_geom_bond_distance
_geom_bond_site_symmetry_2
_ccdc_geom_bond_type
V1     V34    10.0   1_564     S
V1     V4    10.0   1_554     S
V1     V3    10.0   .     S
V1     V2    10.0   .     S
V1     V2    10.0   1_554     S
V1     V18    10.0   1_554     S
V1     V7    10.0   1_455     S
V1     V6    10.0   1_454     S
V2     V33    10.0   1_565     S
V2     V3    10.0   .     S
V2     V4    10.0   .     S
V2     V1    10.0   1_556     S
V2     V17    10.0   .     S
V2     V8    10.0   1_455     S
V2     V5    10.0   1_455     S
V3     V33    10.0   1_565     S
V3     V4    10.0   1_554     S
V3     V4    10.0   .     S
V3     V17    10.0   .     S
V3     V31    10.0   1_565     S
V3     V29    10.0   .     S
V4     V34    10.0   1_565     S
V4     V1    10.0   1_556     S
V4     V3    10.0   1_556     S
V4     V18    10.0   .     S
V4     V32    10.0   1_565     S
V4     V30    10.0   .     S
V5     V10    10.0   .     S
V5     V8    10.0   .     S
V5     V7    10.0   .     S
V5     V6    10.0   1_554     S
V5     V6    10.0   .     S
V5     V2    10.0   1_655     S
V5     V15    10.0   .     S
V5     V14    10.0   .     S
V6     V9    10.0   1_556     S
V6     V7    10.0   1_556     S
V6     V8    10.0   .     S
V6     V5    10.0   1_556     S
V6     V1    10.0   1_656     S
V6     V16    10.0   .     S
V6     V13    10.0   1_556     S
V7     V9    10.0   .     S
V7     V6    10.0   1_554     S
V7     V8    10.0   .     S
V7     V8    10.0   1_554     S
V7     V1    10.0   1_655     S
V7     V17    10.0   1_655     S
V7     V19    10.0   .     S
V8     V10    10.0   .     S
V8     V7    10.0   1_556     S
V8     V2    10.0   1_655     S
V8     V18    10.0   1_655     S
V8     V20    10.0   .     S
V9     V6    10.0   1_554     S
V9     V15    10.0   .     S
V9     V11    10.0   .     S
V9     V12    10.0   1_554     S
V9     V10    10.0   .     S
V9     V10    10.0   1_554     S
V9     V35    10.0   .     S
V10     V16    10.0   .     S
V10     V12    10.0   .     S
V10     V11    10.0   .     S
V10     V9    10.0   1_556     S
V10     V36    10.0   .     S
V11     V15    10.0   .     S
V11     V12    10.0   1_554     S
V11     V12    10.0   .     S
V11     V35    10.0   .     S
V11     V22    10.0   .     S
V11     V23    10.0   .     S
V12     V16    10.0   .     S
V12     V9    10.0   1_556     S
V12     V11    10.0   1_556     S
V12     V36    10.0   .     S
V12     V21    10.0   1_556     S
V12     V24    10.0   .     S
V13     V30    10.0   1_554     S
V13     V16    10.0   1_554     S
V13     V15    10.0   .     S
V13     V14    10.0   .     S
V13     V14    10.0   1_554     S
V13     V6    10.0   1_554     S
V13     V27    10.0   1_565     S
V13     V26    10.0   1_564     S
V14     V29    10.0   .     S
V14     V15    10.0   .     S
V14     V16    10.0   .     S
V14     V13    10.0   1_556     S
V14     V28    10.0   1_565     S
V14     V25    10.0   1_565     S
V15     V29    10.0   .     S
V15     V16    10.0   1_554     S
V15     V16    10.0   .     S
V16     V30    10.0   .     S
V16     V13    10.0   1_556     S
V16     V15    10.0   1_556     S
V17     V7    10.0   1_455     S
V17     V19    10.0   1_455     S
V17     V20    10.0   1_455     S
V17     V18    10.0   1_554     S
V17     V18    10.0   .     S
V17     V23    10.0   .     S
V18     V1    10.0   1_556     S
V18     V8    10.0   1_455     S
V18     V20    10.0   1_455     S
V18     V19    10.0   1_456     S
V18     V17    10.0   1_556     S
V18     V24    10.0   .     S
V19     V17    10.0   1_655     S
V19     V18    10.0   1_654     S
V19     V20    10.0   .     S
V19     V20    10.0   1_554     S
V19     V23    10.0   1_655     S
V19     V26    10.0   1_554     S
V19     V27    10.0   .     S
V20     V18    10.0   1_655     S
V20     V17    10.0   1_655     S
V20     V19    10.0   1_556     S
V20     V24    10.0   1_655     S
V20     V25    10.0   .     S
V20     V28    10.0   .     S
V21     V26    10.0   1_454     S
V21     V24    10.0   1_554     S
V21     V23    10.0   .     S
V21     V22    10.0   .     S
V21     V22    10.0   1_554     S
V21     V12    10.0   1_554     S
V21     V35    10.0   .     S
V21     V34    10.0   1_554     S
V22     V25    10.0   1_455     S
V22     V23    10.0   .     S
V22     V24    10.0   .     S
V22     V21    10.0   1_556     S
V22     V36    10.0   .     S
V22     V33    10.0   .     S
V23     V19    10.0   1_455     S
V23     V25    10.0   1_455     S
V23     V24    10.0   1_554     S
V23     V24    10.0   .     S
V24     V20    10.0   1_455     S
V24     V26    10.0   1_455     S
V24     V21    10.0   1_556     S
V24     V23    10.0   1_556     S
V25     V23    10.0   1_655     S
V25     V22    10.0   1_655     S
V25     V28    10.0   .     S
V25     V27    10.0   .     S
V25     V26    10.0   1_554     S
V25     V26    10.0   .     S
V25     V14    10.0   1_545     S
V26     V24    10.0   1_655     S
V26     V21    10.0   1_656     S
V26     V19    10.0   1_556     S
V26     V27    10.0   1_556     S
V26     V28    10.0   .     S
V26     V25    10.0   1_556     S
V26     V13    10.0   1_546     S
V27     V26    10.0   1_554     S
V27     V28    10.0   .     S
V27     V28    10.0   1_554     S
V27     V13    10.0   1_545     S
V27     V29    10.0   1_545     S
V27     V31    10.0   .     S
V28     V27    10.0   1_556     S
V28     V14    10.0   1_545     S
V28     V30    10.0   1_545     S
V28     V32    10.0   .     S
V29     V31    10.0   1_565     S
V29     V32    10.0   1_565     S
V29     V30    10.0   1_554     S
V29     V30    10.0   .     S
V29     V27    10.0   1_565     S
V30     V13    10.0   1_556     S
V30     V32    10.0   1_565     S
V30     V31    10.0   1_566     S
V30     V29    10.0   1_556     S
V30     V28    10.0   1_565     S
V31     V3    10.0   1_545     S
V31     V29    10.0   1_545     S
V31     V30    10.0   1_544     S
V31     V32    10.0   .     S
V31     V32    10.0   1_554     S
V31     V34    10.0   1_554     S
V31     V35    10.0   .     S
V32     V4    10.0   1_545     S
V32     V30    10.0   1_545     S
V32     V29    10.0   1_545     S
V32     V31    10.0   1_556     S
V32     V33    10.0   .     S
V32     V36    10.0   .     S
V33     V3    10.0   1_545     S
V33     V2    10.0   1_545     S
V33     V36    10.0   .     S
V33     V35    10.0   .     S
V33     V34    10.0   1_554     S
V33     V34    10.0   .     S
V34     V4    10.0   1_545     S
V34     V1    10.0   1_546     S
V34     V31    10.0   1_556     S
V34     V35    10.0   1_556     S
V34     V36    10.0   .     S
V34     V33    10.0   1_556     S
V34     V21    10.0   1_556     S
V35     V34    10.0   1_554     S
V35     V36    10.0   .     S
V35     V36    10.0   1_554     S
V36     V35    10.0   1_556     S
