data_ect
_audit_creation_date              2020-02-04
_audit_creation_method            'Pymatgen'
_symmetry_space_group_name_H-M    'P1'
_symmetry_Int_Tables_number       1
loop_
_symmetry_equiv_pos_as_xyz
  x,y,z
_cell_length_a                    26.2278
_cell_length_b                    26.2278
_cell_length_c                    18.4893
_cell_angle_alpha                 90.0
_cell_angle_beta                 90.0
_cell_angle_gamma                 120.0
loop_
_atom_site_label
_atom_site_type_symbol
_atom_site_fract_x
_atom_site_fract_y
_atom_site_fract_z
V1     V     0.2861   0.8593   0.958
V2     V     0.7139   0.1407   0.042
V3     V     0.4267   0.1407   0.542
V4     V     0.5733   0.8593   0.458
V5     V     0.4267   0.2861   0.042
V6     V     0.5733   0.7139   0.958
V7     V     0.7139   0.5733   0.542
V8     V     0.2861   0.4267   0.458
V9     V     0.1407   0.4267   0.958
V10     V     0.8593   0.5733   0.042
V11     V     0.8593   0.2861   0.542
V12     V     0.1407   0.7139   0.458
loop_
_geom_bond_atom_site_label_1
_geom_bond_atom_site_label_2
_geom_bond_distance
_geom_bond_site_symmetry_2
_ccdc_geom_bond_type
V1     V5    10.0   1_566     S
V1     V9    10.0   .     S
V1     V10    10.0   1_456     S
V1     V12    10.0   1_556     S
V1     V2    10.0   1_566     S
V1     V3    10.0   1_565     S
V1     V6    10.0   .     S
V1     V12    10.0   .     S
V2     V11    10.0   .     S
V2     V5    10.0   .     S
V2     V1    10.0   1_544     S
V2     V4    10.0   1_545     S
V2     V6    10.0   1_544     S
V2     V10    10.0   .     S
V2     V9    10.0   1_654     S
V2     V11    10.0   1_554     S
V3     V11    10.0   .     S
V3     V5    10.0   1_556     S
V3     V7    10.0   .     S
V3     V8    10.0   .     S
V3     V5    10.0   .     S
V3     V4    10.0   1_545     S
V3     V1    10.0   1_545     S
V3     V12    10.0   1_545     S
V4     V11    10.0   1_565     S
V4     V8    10.0   .     S
V4     V7    10.0   .     S
V4     V6    10.0   .     S
V4     V3    10.0   1_565     S
V4     V2    10.0   1_565     S
V4     V6    10.0   1_554     S
V4     V12    10.0   .     S
V5     V1    10.0   1_544     S
V5     V3    10.0   1_554     S
V5     V9    10.0   1_554     S
V5     V10    10.0   .     S
V5     V6    10.0   1_554     S
V5     V8    10.0   .     S
V6     V9    10.0   .     S
V6     V10    10.0   1_556     S
V6     V2    10.0   1_566     S
V6     V4    10.0   1_556     S
V6     V5    10.0   1_556     S
V6     V7    10.0   .     S
V7     V10    10.0   1_556     S
V7     V8    10.0   .     S
V7     V11    10.0   .     S
V7     V12    10.0   1_655     S
V7     V10    10.0   .     S
V8     V12    10.0   .     S
V8     V11    10.0   1_455     S
V8     V9    10.0   .     S
V8     V9    10.0   1_554     S
V9     V5    10.0   1_556     S
V9     V8    10.0   1_556     S
V9     V2    10.0   1_456     S
V9     V10    10.0   1_456     S
V9     V11    10.0   1_455     S
V10     V1    10.0   1_654     S
V10     V6    10.0   1_554     S
V10     V7    10.0   1_554     S
V10     V9    10.0   1_654     S
V10     V12    10.0   1_655     S
V11     V4    10.0   1_545     S
V11     V8    10.0   1_655     S
V11     V2    10.0   1_556     S
V11     V9    10.0   1_655     S
V11     V12    10.0   1_655     S
V12     V1    10.0   1_554     S
V12     V7    10.0   1_455     S
V12     V3    10.0   1_565     S
V12     V11    10.0   1_455     S
V12     V10    10.0   1_455     S
