data_ecv
_audit_creation_date              2020-02-04
_audit_creation_method            'Pymatgen'
_symmetry_space_group_name_H-M    'P1'
_symmetry_Int_Tables_number       1
loop_
_symmetry_equiv_pos_as_xyz
  x,y,z
_cell_length_a                    12.7161
_cell_length_b                    15.437
_cell_length_c                    65.5152
_cell_angle_alpha                 90.0
_cell_angle_beta                 90.0
_cell_angle_gamma                 90.0
loop_
_atom_site_label
_atom_site_type_symbol
_atom_site_fract_x
_atom_site_fract_y
_atom_site_fract_z
V1     V     0.625   0.125   0.3161
V2     V     0.125   0.625   0.3161
V3     V     0.875   0.875   0.1839
V4     V     0.375   0.375   0.1839
V5     V     0.875   0.375   0.0661
V6     V     0.375   0.875   0.0661
V7     V     0.125   0.625   0.9339
V8     V     0.625   0.125   0.9339
V9     V     0.125   0.125   0.4339
V10     V     0.625   0.625   0.4339
V11     V     0.875   0.875   0.5661
V12     V     0.375   0.375   0.5661
V13     V     0.875   0.375   0.6839
V14     V     0.125   0.125   0.8161
V15     V     0.375   0.875   0.6839
V16     V     0.625   0.625   0.8161
loop_
_geom_bond_atom_site_label_1
_geom_bond_atom_site_label_2
_geom_bond_distance
_geom_bond_site_symmetry_2
_ccdc_geom_bond_type
V1     V3    10.0   1_545     S
V1     V2    10.0   1_645     S
V1     V4    10.0   .     S
V1     V2    10.0   .     S
V1     V2    10.0   1_545     S
V1     V2    10.0   1_655     S
V1     V9    10.0   .     S
V1     V9    10.0   1_655     S
V2     V1    10.0   1_465     S
V2     V3    10.0   1_455     S
V2     V4    10.0   .     S
V2     V1    10.0   1_565     S
V2     V1    10.0   1_455     S
V2     V10    10.0   .     S
V2     V10    10.0   1_455     S
V3     V1    10.0   1_565     S
V3     V2    10.0   1_655     S
V3     V4    10.0   1_655     S
V3     V4    10.0   1_565     S
V3     V4    10.0   .     S
V3     V4    10.0   1_665     S
V3     V6    10.0   1_655     S
V3     V6    10.0   .     S
V4     V3    10.0   1_455     S
V4     V3    10.0   1_545     S
V4     V3    10.0   1_445     S
V4     V5    10.0   .     S
V4     V5    10.0   1_455     S
V5     V7    10.0   1_654     S
V5     V6    10.0   1_655     S
V5     V8    10.0   1_554     S
V5     V6    10.0   1_545     S
V5     V6    10.0   .     S
V5     V6    10.0   1_645     S
V5     V4    10.0   1_655     S
V6     V3    10.0   1_455     S
V6     V5    10.0   1_455     S
V6     V7    10.0   1_554     S
V6     V5    10.0   1_565     S
V6     V8    10.0   1_564     S
V6     V5    10.0   1_465     S
V7     V5    10.0   1_456     S
V7     V6    10.0   1_556     S
V7     V8    10.0   1_565     S
V7     V8    10.0   1_455     S
V7     V8    10.0   .     S
V7     V8    10.0   1_465     S
V7     V16    10.0   1_455     S
V7     V16    10.0   .     S
V8     V5    10.0   1_556     S
V8     V6    10.0   1_546     S
V8     V7    10.0   1_545     S
V8     V7    10.0   1_655     S
V8     V7    10.0   1_645     S
V8     V14    10.0   .     S
V8     V14    10.0   1_655     S
V9     V12    10.0   .     S
V9     V10    10.0   .     S
V9     V11    10.0   1_445     S
V9     V10    10.0   1_445     S
V9     V10    10.0   1_545     S
V9     V10    10.0   1_455     S
V9     V1    10.0   1_455     S
V10     V9    10.0   1_665     S
V10     V11    10.0   .     S
V10     V12    10.0   .     S
V10     V9    10.0   1_565     S
V10     V9    10.0   1_655     S
V10     V2    10.0   1_655     S
V11     V9    10.0   1_665     S
V11     V12    10.0   .     S
V11     V12    10.0   1_665     S
V11     V12    10.0   1_565     S
V11     V12    10.0   1_655     S
V11     V15    10.0   1_655     S
V11     V15    10.0   .     S
V12     V11    10.0   1_445     S
V12     V11    10.0   1_545     S
V12     V11    10.0   1_455     S
V12     V13    10.0   .     S
V12     V13    10.0   1_455     S
V13     V14    10.0   1_655     S
V13     V15    10.0   1_645     S
V13     V16    10.0   .     S
V13     V15    10.0   .     S
V13     V15    10.0   1_545     S
V13     V15    10.0   1_655     S
V13     V12    10.0   1_655     S
V14     V13    10.0   1_455     S
V14     V16    10.0   1_455     S
V14     V15    10.0   1_545     S
V14     V16    10.0   1_545     S
V14     V16    10.0   .     S
V14     V16    10.0   1_445     S
V14     V8    10.0   1_455     S
V15     V11    10.0   1_455     S
V15     V13    10.0   1_465     S
V15     V14    10.0   1_565     S
V15     V16    10.0   .     S
V15     V13    10.0   1_565     S
V15     V13    10.0   1_455     S
V16     V7    10.0   1_655     S
V16     V14    10.0   1_655     S
V16     V14    10.0   1_565     S
V16     V14    10.0   1_665     S
