data_edi
_audit_creation_date              2020-02-04
_audit_creation_method            'Pymatgen'
_symmetry_space_group_name_H-M    'P1'
_symmetry_Int_Tables_number       1
loop_
_symmetry_equiv_pos_as_xyz
  x,y,z
_cell_length_a                    22.0906
_cell_length_b                    22.0906
_cell_length_c                    21.1191
_cell_angle_alpha                 90.0
_cell_angle_beta                 90.0
_cell_angle_gamma                 90.0
loop_
_atom_site_label
_atom_site_type_symbol
_atom_site_fract_x
_atom_site_fract_y
_atom_site_fract_z
V1     V     0.0   0.2737   0.8772
V2     V     0.0   0.7263   0.8772
Er3     Er     0.0   0.0   0.5
V4     V     0.7263   0.0   0.1228
V5     V     0.2737   0.0   0.1228
loop_
_geom_bond_atom_site_label_1
_geom_bond_atom_site_label_2
_geom_bond_distance
_geom_bond_site_symmetry_2
_ccdc_geom_bond_type
V1     Er3    10.0   .     S
V1     V2    10.0   .     S
V1     V5    10.0   1_556     S
V1     V4    10.0   1_456     S
V2     Er3    10.0   1_565     S
V2     V5    10.0   1_566     S
V2     V4    10.0   1_466     S
Er3     V2    10.0   1_545     S
Er3     V5    10.0   .     S
Er3     V4    10.0   1_455     S
V4     Er3    10.0   1_655     S
V4     V5    10.0   .     S
V4     V2    10.0   1_644     S
V4     V1    10.0   1_654     S
V5     V1    10.0   1_554     S
V5     V2    10.0   1_544     S
