data_edqa
_audit_creation_date              2020-02-04
_audit_creation_method            'Pymatgen'
_symmetry_space_group_name_H-M    'P1'
_symmetry_Int_Tables_number       1
loop_
_symmetry_equiv_pos_as_xyz
  x,y,z
_cell_length_a                    83.7938
_cell_length_b                    83.7938
_cell_length_c                    83.7938
_cell_angle_alpha                 90.0
_cell_angle_beta                 90.0
_cell_angle_gamma                 90.0
loop_
_atom_site_label
_atom_site_type_symbol
_atom_site_fract_x
_atom_site_fract_y
_atom_site_fract_z
V1     V     0.7641   0.6667   0.7158
V2     V     0.7158   0.7641   0.6667
V3     V     0.6667   0.7158   0.7641
V4     V     0.3333   0.2842   0.2359
V5     V     0.2359   0.3333   0.2842
V6     V     0.2842   0.2359   0.3333
V7     V     0.3333   0.7158   0.2359
V8     V     0.2842   0.7641   0.3333
V9     V     0.2359   0.6667   0.2842
Er10     Er     0.337   0.7639   0.5597
Er11     Er     0.337   0.7639   0.4403
Er12     Er     0.663   0.7639   0.4403
Er13     Er     0.663   0.7639   0.5597
Ti14     Ti     0.4403   0.7632   0.5
Ti15     Ti     0.5597   0.7632   0.5
V16     V     0.7158   0.7641   0.3333
V17     V     0.6667   0.7158   0.2359
V18     V     0.7641   0.6667   0.2842
Er19     Er     0.5597   0.337   0.2361
Er20     Er     0.4403   0.337   0.2361
Ti21     Ti     0.5   0.5597   0.2368
Ti22     Ti     0.5   0.4403   0.2368
Er23     Er     0.4403   0.663   0.2361
Er24     Er     0.5597   0.663   0.2361
V25     V     0.7158   0.2359   0.3333
V26     V     0.6667   0.2842   0.2359
V27     V     0.7641   0.3333   0.2842
Er28     Er     0.7639   0.5597   0.337
Er29     Er     0.7639   0.4403   0.337
Er30     Er     0.7639   0.4403   0.663
Er31     Er     0.7639   0.5597   0.663
Ti32     Ti     0.7632   0.5   0.4403
Ti33     Ti     0.7632   0.5   0.5597
V34     V     0.7641   0.3333   0.7158
V35     V     0.7158   0.2359   0.6667
V36     V     0.6667   0.2842   0.7641
Er37     Er     0.337   0.2361   0.5597
Er38     Er     0.337   0.2361   0.4403
Ti39     Ti     0.5597   0.2368   0.5
Ti40     Ti     0.4403   0.2368   0.5
Er41     Er     0.663   0.2361   0.4403
Er42     Er     0.663   0.2361   0.5597
V43     V     0.2359   0.3333   0.7158
V44     V     0.3333   0.2842   0.7641
V45     V     0.2842   0.2359   0.6667
Er46     Er     0.2361   0.4403   0.337
Er47     Er     0.2361   0.5597   0.337
Er48     Er     0.2361   0.5597   0.663
Er49     Er     0.2361   0.4403   0.663
Ti50     Ti     0.2368   0.5   0.4403
Ti51     Ti     0.2368   0.5   0.5597
V52     V     0.3333   0.7158   0.7641
V53     V     0.2359   0.6667   0.7158
V54     V     0.2842   0.7641   0.6667
Er55     Er     0.4403   0.337   0.7639
Er56     Er     0.5597   0.337   0.7639
Ti57     Ti     0.5   0.5597   0.7632
Ti58     Ti     0.5   0.4403   0.7632
Er59     Er     0.5597   0.663   0.7639
Er60     Er     0.4403   0.663   0.7639
V61     V     0.7359   0.7842   0.8333
V62     V     0.7842   0.8333   0.7359
V63     V     0.8333   0.7359   0.7842
V64     V     0.2158   0.8333   0.7359
V65     V     0.2641   0.7842   0.8333
V66     V     0.1667   0.7359   0.7842
V67     V     0.2158   0.8333   0.2641
V68     V     0.1667   0.7359   0.2158
V69     V     0.2641   0.7842   0.1667
Er70     Er     0.0597   0.7361   0.837
Er71     Er     0.9403   0.7361   0.837
Er72     Er     0.0597   0.7361   0.163
Er73     Er     0.9403   0.7361   0.163
Ti74     Ti     0.0   0.7368   0.9403
Ti75     Ti     0.0   0.7368   0.0597
V76     V     0.8333   0.7359   0.2158
V77     V     0.7842   0.8333   0.2641
V78     V     0.7359   0.7842   0.1667
V79     V     0.7359   0.2158   0.1667
V80     V     0.8333   0.2641   0.2158
V81     V     0.7842   0.1667   0.2641
Er82     Er     0.7361   0.837   0.0597
Er83     Er     0.7361   0.837   0.9403
Er84     Er     0.7361   0.163   0.0597
Er85     Er     0.7361   0.163   0.9403
Ti86     Ti     0.7368   0.9403   0.0
Ti87     Ti     0.7368   0.0597   0.0
V88     V     0.7359   0.2158   0.8333
V89     V     0.8333   0.2641   0.7842
V90     V     0.7842   0.1667   0.7359
Er91     Er     0.2639   0.837   0.0597
Er92     Er     0.2639   0.837   0.9403
Er93     Er     0.2639   0.163   0.0597
Er94     Er     0.2639   0.163   0.9403
Ti95     Ti     0.2632   0.9403   0.0
Ti96     Ti     0.2632   0.0597   0.0
Er97     Er     0.837   0.0597   0.2639
Er98     Er     0.837   0.9403   0.2639
Er99     Er     0.163   0.0597   0.2639
Er100     Er     0.163   0.9403   0.2639
Ti101     Ti     0.9403   0.0   0.2632
Ti102     Ti     0.0597   0.0   0.2632
V103     V     0.2641   0.2158   0.1667
V104     V     0.2158   0.1667   0.2641
V105     V     0.1667   0.2641   0.2158
Er106     Er     0.0597   0.2639   0.837
Er107     Er     0.9403   0.2639   0.837
Er108     Er     0.0597   0.2639   0.163
Er109     Er     0.9403   0.2639   0.163
Ti110     Ti     0.0   0.2632   0.9403
Ti111     Ti     0.0   0.2632   0.0597
V112     V     0.2641   0.2158   0.8333
V113     V     0.2158   0.1667   0.7359
V114     V     0.1667   0.2641   0.7842
Er115     Er     0.837   0.0597   0.7361
Er116     Er     0.837   0.9403   0.7361
Er117     Er     0.163   0.0597   0.7361
Er118     Er     0.163   0.9403   0.7361
Ti119     Ti     0.9403   0.0   0.7368
Ti120     Ti     0.0597   0.0   0.7368
loop_
_geom_bond_atom_site_label_1
_geom_bond_atom_site_label_2
_geom_bond_distance
_geom_bond_site_symmetry_2
_ccdc_geom_bond_type
V1     Er31    10.0   .     S
V1     V2    10.0   .     S
V1     V3    10.0   .     S
V1     V63    10.001   .     S
V2     Er13    10.0   .     S
V2     V3    10.0   .     S
V2     V62    10.001   .     S
V3     Er59    10.0   .     S
V3     V61    10.001   .     S
V4     Er20    10.0   .     S
V4     V5    10.0   .     S
V4     V6    10.0   .     S
V4     V103    10.001   .     S
V5     Er46    10.0   .     S
V5     V6    10.0   .     S
V5     V105    10.001   .     S
V6     Er38    10.0   .     S
V6     V104    10.001   .     S
V7     Er23    10.0   .     S
V7     V8    10.0   .     S
V7     V9    10.0   .     S
V7     V69    10.001   .     S
V8     Er11    10.0   .     S
V8     V9    10.0   .     S
V8     V67    10.001   .     S
V9     Er47    10.0   .     S
V9     V68    10.001   .     S
Er10     Er11    10.0   .     S
Er10     Ti14    10.0   .     S
Er10     V54    10.0   .     S
Er11     Ti14    10.0   .     S
Er12     Er13    10.0   .     S
Er12     Ti15    10.0   .     S
Er12     V16    10.0   .     S
Er13     Ti15    10.0   .     S
Ti14     Ti15    10.0   .     S
V16     V17    10.0   .     S
V16     V18    10.0   .     S
V16     V77    10.001   .     S
V17     Er24    10.0   .     S
V17     V18    10.0   .     S
V17     V78    10.001   .     S
V18     Er28    10.0   .     S
V18     V76    10.001   .     S
Er19     Er20    10.0   .     S
Er19     Ti22    10.0   .     S
Er19     V26    10.0   .     S
Er20     Ti22    10.0   .     S
Ti21     Er24    10.0   .     S
Ti21     Er23    10.0   .     S
Ti21     Ti22    10.0   .     S
Er23     Er24    10.0   .     S
V25     Er41    10.0   .     S
V25     V27    10.0   .     S
V25     V26    10.0   .     S
V25     V81    10.001   .     S
V26     V27    10.0   .     S
V26     V79    10.001   .     S
V27     Er29    10.0   .     S
V27     V80    10.001   .     S
Er28     Er29    10.0   .     S
Er28     Ti32    10.0   .     S
Er29     Ti32    10.0   .     S
Er30     Er31    10.0   .     S
Er30     Ti33    10.0   .     S
Er30     V34    10.0   .     S
Er31     Ti33    10.0   .     S
Ti32     Ti33    10.0   .     S
V34     V35    10.0   .     S
V34     V36    10.0   .     S
V34     V89    10.001   .     S
V35     Er42    10.0   .     S
V35     V36    10.0   .     S
V35     V90    10.001   .     S
V36     Er56    10.0   .     S
V36     V88    10.001   .     S
Er37     Er38    10.0   .     S
Er37     Ti40    10.0   .     S
Er37     V45    10.0   .     S
Er38     Ti40    10.0   .     S
Ti39     Er42    10.0   .     S
Ti39     Er41    10.0   .     S
Ti39     Ti40    10.0   .     S
Er41     Er42    10.0   .     S
V43     Er49    10.0   .     S
V43     V44    10.0   .     S
V43     V45    10.0   .     S
V43     V114    10.001   .     S
V44     Er55    10.0   .     S
V44     V45    10.0   .     S
V44     V112    10.001   .     S
V45     V113    10.001   .     S
Er46     Er47    10.0   .     S
Er46     Ti50    10.0   .     S
Er47     Ti50    10.0   .     S
Er48     Er49    10.0   .     S
Er48     Ti51    10.0   .     S
Er48     V53    10.0   .     S
Er49     Ti51    10.0   .     S
Ti50     Ti51    10.0   .     S
V52     Er60    10.0   .     S
V52     V53    10.0   .     S
V52     V54    10.0   .     S
V52     V65    10.001   .     S
V53     V54    10.0   .     S
V53     V66    10.001   .     S
V54     V64    10.001   .     S
Er55     Er56    10.0   .     S
Er55     Ti58    10.0   .     S
Er56     Ti58    10.0   .     S
Ti57     Er60    10.0   .     S
Ti57     Er59    10.0   .     S
Ti57     Ti58    10.0   .     S
Er59     Er60    10.0   .     S
V61     Er83    10.0   .     S
V61     V63    10.0   .     S
V61     V62    10.0   .     S
V62     Er116    10.0   .     S
V62     V63    10.0   .     S
V63     Er71    10.0   .     S
V64     Er118    10.0   .     S
V64     V65    10.0   .     S
V64     V66    10.0   .     S
V65     Er92    10.0   .     S
V65     V66    10.0   .     S
V66     Er70    10.0   .     S
V67     Er100    10.0   .     S
V67     V68    10.0   .     S
V67     V69    10.0   .     S
V68     Er72    10.0   .     S
V68     V69    10.0   .     S
V69     Er91    10.0   .     S
Er70     Er71    10.0   1_455     S
Er70     Ti74    10.0   .     S
Er71     Er70    10.0   1_655     S
Er71     Ti74    10.0   1_655     S
Er72     Er73    10.0   1_455     S
Er72     Ti75    10.0   .     S
Er73     Er72    10.0   1_655     S
Er73     Ti75    10.0   1_655     S
Er73     V76    10.0   .     S
Ti74     Er71    10.0   1_455     S
Ti74     Ti75    10.0   1_556     S
Ti75     Er73    10.0   1_455     S
Ti75     Ti74    10.0   1_554     S
V76     V77    10.0   .     S
V76     V78    10.0   .     S
V77     Er98    10.0   .     S
V77     V78    10.0   .     S
V78     Er82    10.0   .     S
V79     Er84    10.0   .     S
V79     V80    10.0   .     S
V79     V81    10.0   .     S
V80     Er109    10.0   .     S
V80     V81    10.0   .     S
V81     Er97    10.0   .     S
Er82     Er83    10.0   1_554     S
Er82     Ti86    10.0   .     S
Er83     Er82    10.0   1_556     S
Er83     Ti86    10.0   1_556     S
Er84     Er85    10.0   1_554     S
Er84     Ti87    10.0   .     S
Er85     Er84    10.0   1_556     S
Er85     Ti87    10.0   1_556     S
Er85     V88    10.0   .     S
Ti86     Er83    10.0   1_554     S
Ti86     Ti87    10.0   1_565     S
Ti87     Er85    10.0   1_554     S
Ti87     Ti86    10.0   1_545     S
V88     V89    10.0   .     S
V88     V90    10.0   .     S
V89     Er107    10.0   .     S
V89     V90    10.0   .     S
V90     Er115    10.0   .     S
Er91     Er92    10.0   1_554     S
Er91     Ti95    10.0   .     S
Er92     Er91    10.0   1_556     S
Er92     Ti95    10.0   1_556     S
Er93     Er94    10.0   1_554     S
Er93     Ti96    10.0   .     S
Er93     V103    10.0   .     S
Er94     Er93    10.0   1_556     S
Er94     Ti96    10.0   1_556     S
Er94     V112    10.0   .     S
Ti95     Er92    10.0   1_554     S
Ti95     Ti96    10.0   1_565     S
Ti96     Er94    10.0   1_554     S
Ti96     Ti95    10.0   1_545     S
Er97     Er98    10.0   1_545     S
Er97     Ti101    10.0   .     S
Er98     Er97    10.0   1_565     S
Er98     Ti101    10.0   1_565     S
Er99     Er100    10.0   1_545     S
Er99     Ti102    10.0   .     S
Er99     V104    10.0   .     S
Er100     Er99    10.0   1_565     S
Er100     Ti102    10.0   1_565     S
Ti101     Er98    10.0   1_545     S
Ti101     Ti102    10.0   1_655     S
Ti102     Er100    10.0   1_545     S
Ti102     Ti101    10.0   1_455     S
V103     V104    10.0   .     S
V103     V105    10.0   .     S
V104     V105    10.0   .     S
V105     Er108    10.0   .     S
Er106     Er107    10.0   1_455     S
Er106     Ti110    10.0   .     S
Er106     V114    10.0   .     S
Er107     Er106    10.0   1_655     S
Er107     Ti110    10.0   1_655     S
Er108     Er109    10.0   1_455     S
Er108     Ti111    10.0   .     S
Er109     Er108    10.0   1_655     S
Er109     Ti111    10.0   1_655     S
Ti110     Er107    10.0   1_455     S
Ti110     Ti111    10.0   1_556     S
Ti111     Er109    10.0   1_455     S
Ti111     Ti110    10.0   1_554     S
V112     V113    10.0   .     S
V112     V114    10.0   .     S
V113     Er117    10.0   .     S
V113     V114    10.0   .     S
Er115     Er116    10.0   1_545     S
Er115     Ti119    10.0   .     S
Er116     Er115    10.0   1_565     S
Er116     Ti119    10.0   1_565     S
Er117     Er118    10.0   1_545     S
Er117     Ti120    10.0   .     S
Er118     Er117    10.0   1_565     S
Er118     Ti120    10.0   1_565     S
Ti119     Er116    10.0   1_545     S
Ti119     Ti120    10.0   1_655     S
Ti120     Er118    10.0   1_545     S
Ti120     Ti119    10.0   1_455     S
