data_eeaa
_audit_creation_date              2020-02-04
_audit_creation_method            'Pymatgen'
_symmetry_space_group_name_H-M    'P1'
_symmetry_Int_Tables_number       1
loop_
_symmetry_equiv_pos_as_xyz
  x,y,z
_cell_length_a                    83.6644
_cell_length_b                    83.6644
_cell_length_c                    82.5856
_cell_angle_alpha                 90.0
_cell_angle_beta                 90.0
_cell_angle_gamma                 120.0
loop_
_atom_site_label
_atom_site_type_symbol
_atom_site_fract_x
_atom_site_fract_y
_atom_site_fract_z
V1     V     0.5303   0.0606   0.3084
Ce2     Ce     0.6179   0.1163   0.2157
Ce3     Ce     0.4984   0.1163   0.2157
V4     V     0.1364   0.2728   0.0249
Ce5     Ce     0.1683   0.2171   0.1177
Ce6     Ce     0.0488   0.2171   0.1177
V7     V     0.1364   0.8636   0.0249
Ce8     Ce     0.0488   0.8317   0.1177
Ce9     Ce     0.1683   0.9512   0.1177
Er10     Er     0.2644   0.192   0.163
Ti11     Ti     0.3274   0.1637   0.2521
Er12     Er     0.4022   0.2609   0.1704
Er13     Er     0.4022   0.1413   0.1704
Ti14     Ti     0.3393   0.1696   0.0812
Er15     Er     0.2644   0.0725   0.163
V16     V     0.5303   0.4697   0.3084
Ce17     Ce     0.4984   0.3821   0.2157
Ce18     Ce     0.6179   0.5016   0.2157
Er19     Er     0.7391   0.1413   0.1704
Er20     Er     0.8587   0.2609   0.1704
Ti21     Ti     0.8304   0.1696   0.0812
Er22     Er     0.808   0.0725   0.163
Er23     Er     0.9275   0.192   0.163
Ti24     Ti     0.8363   0.1637   0.2521
V25     V     0.7272   0.8636   0.0249
Ce26     Ce     0.7829   0.9512   0.1177
Ce27     Ce     0.7829   0.8317   0.1177
V28     V     0.9394   0.4697   0.3084
Ce29     Ce     0.8837   0.3821   0.2157
Ce30     Ce     0.8837   0.5016   0.2157
Er31     Er     0.808   0.7355   0.163
Er32     Er     0.9275   0.7355   0.163
Ti33     Ti     0.8363   0.6726   0.2521
Er34     Er     0.8587   0.5978   0.1704
Er35     Er     0.7391   0.5978   0.1704
Ti36     Ti     0.8304   0.6607   0.0812
V37     V     0.197   0.3939   0.6418
Ce38     Ce     0.2846   0.4496   0.549
Ce39     Ce     0.165   0.4496   0.549
V40     V     0.197   0.803   0.6418
Ce41     Ce     0.2846   0.835   0.549
Ce42     Ce     0.165   0.7154   0.549
Er43     Er     0.0689   0.4747   0.5037
Er44     Er     0.0689   0.5942   0.5037
Ti45     Ti     0.006   0.503   0.4145
Er46     Er     0.9311   0.5253   0.4963
Er47     Er     0.9311   0.4058   0.4963
Ti48     Ti     0.994   0.497   0.5855
V49     V     0.6061   0.803   0.6418
Ce50     Ce     0.5504   0.835   0.549
Ce51     Ce     0.5504   0.7154   0.549
V52     V     0.803   0.6061   0.3582
Ce53     Ce     0.835   0.5504   0.451
Ce54     Ce     0.7154   0.5504   0.451
Er55     Er     0.5253   0.5942   0.5037
Er56     Er     0.4058   0.4747   0.5037
Ti57     Ti     0.497   0.503   0.4145
Er58     Er     0.5942   0.5253   0.4963
Er59     Er     0.4747   0.4058   0.4963
Ti60     Ti     0.503   0.497   0.5855
V61     V     0.3939   0.197   0.3582
Ce62     Ce     0.4496   0.2846   0.451
Ce63     Ce     0.4496   0.165   0.451
V64     V     0.803   0.197   0.3582
Ce65     Ce     0.835   0.2846   0.451
Ce66     Ce     0.7154   0.165   0.451
Er67     Er     0.4747   0.0689   0.4963
Er68     Er     0.5942   0.0689   0.4963
Ti69     Ti     0.503   0.006   0.5855
Er70     Er     0.5253   0.9311   0.5037
Er71     Er     0.4058   0.9311   0.5037
Ti72     Ti     0.497   0.994   0.4145
V73     V     0.8636   0.1364   0.9751
Ce74     Ce     0.8317   0.0488   0.8823
Ce75     Ce     0.9512   0.1683   0.8823
V76     V     0.0606   0.5303   0.6916
Ce77     Ce     0.1163   0.6179   0.7843
Ce78     Ce     0.1163   0.4984   0.7843
V79     V     0.4697   0.5303   0.6916
Ce80     Ce     0.5016   0.6179   0.7843
Ce81     Ce     0.3821   0.4984   0.7843
Er82     Er     0.0725   0.2644   0.837
Er83     Er     0.2609   0.4022   0.8296
Er84     Er     0.1413   0.4022   0.8296
Ti85     Ti     0.1696   0.3393   0.9188
Er86     Er     0.192   0.2644   0.837
Ti87     Ti     0.1637   0.3274   0.7479
Er88     Er     0.7355   0.808   0.837
Er89     Er     0.5978   0.7391   0.8296
Er90     Er     0.5978   0.8587   0.8296
Ti91     Ti     0.6607   0.8304   0.9188
Er92     Er     0.7355   0.9275   0.837
Ti93     Ti     0.6726   0.8363   0.7479
V94     V     0.8636   0.7272   0.9751
Ce95     Ce     0.9512   0.7829   0.8823
Ce96     Ce     0.8317   0.7829   0.8823
V97     V     0.2728   0.1364   0.9751
Ce98     Ce     0.2171   0.1683   0.8823
Ce99     Ce     0.2171   0.0488   0.8823
V100     V     0.4697   0.9394   0.6916
Ce101     Ce     0.5016   0.8837   0.7843
Ce102     Ce     0.3821   0.8837   0.7843
Er103     Er     0.1413   0.7391   0.8296
Er104     Er     0.2609   0.8587   0.8296
Ti105     Ti     0.1696   0.8304   0.9188
Er106     Er     0.192   0.9275   0.837
Er107     Er     0.0725   0.808   0.837
Ti108     Ti     0.1637   0.8363   0.7479
loop_
_geom_bond_atom_site_label_1
_geom_bond_atom_site_label_2
_geom_bond_distance
_geom_bond_site_symmetry_2
_ccdc_geom_bond_type
V1     Ce2    10.0   .     S
V1     Ce3    10.0   .     S
V1     Ti72    10.001   1_545     S
Ce2     Ce3    10.0   .     S
Ce2     Er19    9.999   .     S
Ce3     Er13    9.999   .     S
V4     Ce5    10.0   .     S
V4     Ce6    10.0   .     S
V4     Ti85    10.001   1_554     S
Ce5     Ce6    10.0   .     S
Ce5     Er10    9.999   .     S
Ce6     Er23    9.999   1_455     S
V7     Ce9    10.0   .     S
V7     Ce8    10.0   .     S
V7     Ti105    10.001   1_554     S
Ce8     Ce9    10.0   .     S
Ce8     Er32    9.999   1_455     S
Ce9     Er15    9.999   1_565     S
Er10     Ti11    10.0   .     S
Er10     Er15    10.0   .     S
Er10     Er12    10.001   .     S
Er10     Ti14    10.0   .     S
Ti11     V61    10.001   .     S
Ti11     Er15    10.0   .     S
Ti11     Er12    10.0   .     S
Ti11     Er13    10.0   .     S
Er12     Ce17    9.999   .     S
Er12     Er13    10.0   .     S
Er12     Ti14    10.0   .     S
Er13     Ti14    10.0   .     S
Er13     Er15    10.001   .     S
Ti14     Er15    10.0   .     S
Ti14     V97    10.001   1_554     S
Er15     Ce9    9.999   1_545     S
V16     Ce18    10.0   .     S
V16     Ce17    10.0   .     S
V16     Ti57    10.001   .     S
Ce17     Ce18    10.0   .     S
Ce18     Er35    9.999   .     S
Er19     Er20    10.0   .     S
Er19     Ti21    10.0   .     S
Er19     Er22    10.001   .     S
Er19     Ti24    10.0   .     S
Er20     Ce29    9.999   .     S
Er20     Ti21    10.0   .     S
Er20     Er23    10.001   .     S
Er20     Ti24    10.0   .     S
Ti21     V73    10.001   1_554     S
Ti21     Er23    10.0   .     S
Ti21     Er22    10.0   .     S
Er22     Ce26    9.999   1_545     S
Er22     Er23    10.0   .     S
Er22     Ti24    10.0   .     S
Er23     Ce6    9.999   1_655     S
Er23     Ti24    10.0   .     S
Ti24     V64    10.001   .     S
V25     Ce26    10.0   .     S
V25     Ce27    10.0   .     S
V25     Ti91    10.001   1_554     S
Ce26     Er22    9.999   1_565     S
Ce26     Ce27    10.0   .     S
Ce27     Er31    9.999   .     S
V28     Ce29    10.0   .     S
V28     Ce30    10.0   .     S
V28     Ti45    10.001   1_655     S
Ce29     Ce30    10.0   .     S
Ce30     Er34    9.999   .     S
Er31     Er35    10.001   .     S
Er31     Ti36    10.0   .     S
Er31     Ti33    10.0   .     S
Er31     Er32    10.0   .     S
Er32     Ce8    9.999   1_655     S
Er32     Ti33    10.0   .     S
Er32     Er34    10.001   .     S
Er32     Ti36    10.0   .     S
Ti33     V52    10.001   .     S
Ti33     Er35    10.0   .     S
Ti33     Er34    10.0   .     S
Er34     Er35    10.0   .     S
Er34     Ti36    10.0   .     S
Er35     Ti36    10.0   .     S
Ti36     V94    10.001   1_554     S
V37     Ce39    10.0   .     S
V37     Ce38    10.0   .     S
V37     Ti87    10.001   .     S
Ce38     Ce39    10.0   .     S
Ce38     Er56    9.999   .     S
Ce39     Er43    9.999   .     S
V40     Ce41    10.0   .     S
V40     Ce42    10.0   .     S
V40     Ti108    10.001   .     S
Ce41     Ce42    10.0   .     S
Ce41     Er71    9.999   .     S
Ce42     Er44    9.999   .     S
Er43     Ti45    10.0   .     S
Er43     Er44    10.0   .     S
Er43     Er47    10.001   1_455     S
Er43     Ti48    10.0   1_455     S
Er44     Ti45    10.0   .     S
Er44     Er46    10.001   1_455     S
Er44     Ti48    10.0   1_455     S
Ti45     V28    10.001   1_455     S
Ti45     Er47    10.0   1_455     S
Ti45     Er46    10.0   1_455     S
Er46     Ce53    9.999   .     S
Er46     Er47    10.0   .     S
Er46     Ti48    10.0   .     S
Er46     Er44    10.001   1_655     S
Er46     Ti45    10.0   1_655     S
Er47     Er43    10.001   1_655     S
Er47     Ti45    10.0   1_655     S
Er47     Ce65    9.999   .     S
Er47     Ti48    10.0   .     S
Ti48     Er43    10.0   1_655     S
Ti48     Er44    10.0   1_655     S
Ti48     V76    10.001   1_655     S
V49     Ce50    10.0   .     S
V49     Ce51    10.0   .     S
V49     Ti93    10.001   .     S
Ce50     Ce51    10.0   .     S
Ce50     Er70    9.999   .     S
Ce51     Er55    9.999   .     S
V52     Ce54    10.0   .     S
V52     Ce53    10.0   .     S
Ce53     Ce54    10.0   .     S
Ce54     Er58    9.999   .     S
Er55     Er56    10.0   .     S
Er55     Ti57    10.0   .     S
Er55     Er58    10.001   .     S
Er55     Ti60    10.0   .     S
Er56     Ti57    10.0   .     S
Er56     Er59    10.001   .     S
Er56     Ti60    10.0   .     S
Ti57     Er59    10.0   .     S
Ti57     Er58    10.0   .     S
Er58     Er59    10.0   .     S
Er58     Ti60    10.0   .     S
Er59     Ce62    9.999   .     S
Er59     Ti60    10.0   .     S
Ti60     V79    10.001   .     S
V61     Ce63    10.0   .     S
V61     Ce62    10.0   .     S
Ce62     Ce63    10.0   .     S
Ce63     Er67    9.999   .     S
V64     Ce65    10.0   .     S
V64     Ce66    10.0   .     S
Ce65     Ce66    10.0   .     S
Ce66     Er68    9.999   .     S
Er67     Ti69    10.0   .     S
Er67     Er68    10.0   .     S
Er67     Er71    10.001   1_545     S
Er67     Ti72    10.0   1_545     S
Er68     Ti69    10.0   .     S
Er68     Er70    10.001   1_545     S
Er68     Ti72    10.0   1_545     S
Ti69     V100    10.001   1_545     S
Ti69     Er70    10.0   1_545     S
Ti69     Er71    10.0   1_545     S
Er70     Er68    10.001   1_565     S
Er70     Ti69    10.0   1_565     S
Er70     Er71    10.0   .     S
Er70     Ti72    10.0   .     S
Er71     Ti72    10.0   .     S
Er71     Er67    10.001   1_565     S
Er71     Ti69    10.0   1_565     S
Ti72     Er68    10.0   1_565     S
Ti72     Er67    10.0   1_565     S
Ti72     V1    10.001   1_565     S
V73     Ti21    10.001   1_556     S
V73     Ce75    10.0   .     S
V73     Ce74    10.0   .     S
Ce74     Ce75    10.0   .     S
Ce74     Er92    9.999   1_545     S
Ce75     Er82    9.999   1_655     S
V76     Ti48    10.001   1_455     S
V76     Ce77    10.0   .     S
V76     Ce78    10.0   .     S
Ce77     Ce78    10.0   .     S
Ce77     Er103    9.999   .     S
Ce78     Er84    9.999   .     S
V79     Ce80    10.0   .     S
V79     Ce81    10.0   .     S
Ce80     Ce81    10.0   .     S
Ce80     Er89    9.999   .     S
Ce81     Er83    9.999   .     S
Er82     Ce75    9.999   1_455     S
Er82     Er84    10.001   .     S
Er82     Ti85    10.0   .     S
Er82     Ti87    10.0   .     S
Er82     Er86    10.0   .     S
Er83     Er84    10.0   .     S
Er83     Ti85    10.0   .     S
Er83     Er86    10.001   .     S
Er83     Ti87    10.0   .     S
Er84     Ti87    10.0   .     S
Er84     Ti85    10.0   .     S
Ti85     Er86    10.0   .     S
Ti85     V4    10.001   1_556     S
Er86     Ce98    9.999   .     S
Er86     Ti87    10.0   .     S
Er88     Ce96    9.999   .     S
Er88     Er89    10.001   .     S
Er88     Ti91    10.0   .     S
Er88     Ti93    10.0   .     S
Er88     Er92    10.0   .     S
Er89     Ti93    10.0   .     S
Er89     Er90    10.0   .     S
Er89     Ti91    10.0   .     S
Er90     Ce101    9.999   .     S
Er90     Ti91    10.0   .     S
Er90     Er92    10.001   .     S
Er90     Ti93    10.0   .     S
Ti91     Er92    10.0   .     S
Ti91     V25    10.001   1_556     S
Er92     Ce74    9.999   1_565     S
Er92     Ti93    10.0   .     S
V94     Ti36    10.001   1_556     S
V94     Ce95    10.0   .     S
V94     Ce96    10.0   .     S
Ce95     Ce96    10.0   .     S
Ce95     Er107    9.999   1_655     S
V97     Ti14    10.001   1_556     S
V97     Ce99    10.0   .     S
V97     Ce98    10.0   .     S
Ce98     Ce99    10.0   .     S
Ce99     Er106    9.999   1_545     S
V100     Ti69    10.001   1_565     S
V100     Ce102    10.0   .     S
V100     Ce101    10.0   .     S
Ce101     Ce102    10.0   .     S
Ce102     Er104    9.999   .     S
Er103     Er104    10.0   .     S
Er103     Ti105    10.0   .     S
Er103     Er107    10.001   .     S
Er103     Ti108    10.0   .     S
Er104     Ti105    10.0   .     S
Er104     Er106    10.001   .     S
Er104     Ti108    10.0   .     S
Ti105     V7    10.001   1_556     S
Ti105     Er106    10.0   .     S
Ti105     Er107    10.0   .     S
Er106     Ce99    9.999   1_565     S
Er106     Er107    10.0   .     S
Er106     Ti108    10.0   .     S
Er107     Ce95    9.999   1_455     S
Er107     Ti108    10.0   .     S
