data_eeda
_audit_creation_date              2020-02-04
_audit_creation_method            'Pymatgen'
_symmetry_space_group_name_H-M    'P1'
_symmetry_Int_Tables_number       1
loop_
_symmetry_equiv_pos_as_xyz
  x,y,z
_cell_length_a                    53.1201
_cell_length_b                    53.1201
_cell_length_c                    110.0122
_cell_angle_alpha                 90.0
_cell_angle_beta                 90.0
_cell_angle_gamma                 90.0
loop_
_atom_site_label
_atom_site_type_symbol
_atom_site_fract_x
_atom_site_fract_y
_atom_site_fract_z
Er1     Er     0.4334   0.9334   0.2179
Ti2     Ti     0.3543   0.7788   0.1828
Ti3     Ti     0.2212   0.6457   0.1828
Er4     Er     0.0666   0.5666   0.2179
Er5     Er     0.0666   0.5666   0.7821
Ti6     Ti     0.3543   0.7788   0.8172
Ti7     Ti     0.2212   0.6457   0.8172
Er8     Er     0.4334   0.9334   0.7821
V9     V     0.3556   0.6444   0.1192
V10     V     0.3556   0.6444   0.8808
Ce11     Ce     0.4334   0.5666   0.9546
Ce12     Ce     0.4334   0.5666   0.0454
Er13     Er     0.5666   0.0666   0.2179
Ti14     Ti     0.7788   0.3543   0.1828
Ti15     Ti     0.6457   0.2212   0.1828
Er16     Er     0.9334   0.4334   0.2179
Er17     Er     0.9334   0.4334   0.7821
Ti18     Ti     0.7788   0.3543   0.8172
Ti19     Ti     0.6457   0.2212   0.8172
Er20     Er     0.5666   0.0666   0.7821
V21     V     0.6444   0.3556   0.1192
V22     V     0.6444   0.3556   0.8808
Ce23     Ce     0.5666   0.4334   0.9546
Ce24     Ce     0.5666   0.4334   0.0454
Er25     Er     0.5666   0.9334   0.2821
Ti26     Ti     0.6457   0.7788   0.3172
Ti27     Ti     0.7788   0.6457   0.3172
Er28     Er     0.9334   0.5666   0.2821
Er29     Er     0.9334   0.5666   0.7179
Ti30     Ti     0.7788   0.6457   0.6828
Ti31     Ti     0.6457   0.7788   0.6828
Er32     Er     0.5666   0.9334   0.7179
V33     V     0.6444   0.6444   0.3808
V34     V     0.6444   0.6444   0.6192
Ce35     Ce     0.5666   0.5666   0.5454
Ce36     Ce     0.5666   0.5666   0.4546
Er37     Er     0.4334   0.0666   0.2821
Ti38     Ti     0.3543   0.2212   0.3172
Ti39     Ti     0.2212   0.3543   0.3172
Er40     Er     0.0666   0.4334   0.2821
Er41     Er     0.0666   0.4334   0.7179
Ti42     Ti     0.2212   0.3543   0.6828
Ti43     Ti     0.3543   0.2212   0.6828
Er44     Er     0.4334   0.0666   0.7179
V45     V     0.3556   0.3556   0.3808
V46     V     0.3556   0.3556   0.6192
Ce47     Ce     0.4334   0.4334   0.4546
Ce48     Ce     0.4334   0.4334   0.5454
loop_
_geom_bond_atom_site_label_1
_geom_bond_atom_site_label_2
_geom_bond_distance
_geom_bond_site_symmetry_2
_ccdc_geom_bond_type
Er1     Er37    10.001   1_565     S
Er1     Er25    10.001   .     S
Er1     Ti2    10.0   .     S
Er1     Er13    10.0   1_565     S
Ti2     V9    10.0   .     S
Ti2     Ti3    10.0   .     S
Ti3     V9    10.0   .     S
Ti3     Er4    10.0   .     S
Er4     Er16    10.0   1_455     S
Er4     Er28    10.001   1_455     S
Er4     Er40    10.001   .     S
Er5     Er29    10.001   1_455     S
Er5     Er41    10.001   .     S
Er5     Ti7    10.0   .     S
Er5     Er17    10.0   1_455     S
Ti6     V10    10.0   .     S
Ti6     Ti7    10.0   .     S
Ti6     Er8    10.0   .     S
Ti7     V10    10.0   .     S
Er8     Er20    10.0   1_565     S
Er8     Er44    10.001   1_565     S
Er8     Er32    10.001   .     S
V9     Ce12    10.0   .     S
V10     Ce11    10.0   .     S
Ce11     Ce12    10.0   1_556     S
Ce11     Ce23    10.0   .     S
Ce12     Ce11    10.0   1_554     S
Ce12     Ce24    10.0   .     S
Er13     Er25    10.001   1_545     S
Er13     Er37    10.001   .     S
Er13     Er1    10.0   1_545     S
Er13     Ti15    10.0   .     S
Ti14     V21    10.0   .     S
Ti14     Ti15    10.0   .     S
Ti14     Er16    10.0   .     S
Ti15     V21    10.0   .     S
Er16     Er4    10.0   1_655     S
Er16     Er28    10.001   .     S
Er16     Er40    10.001   1_655     S
Er17     Er29    10.001   .     S
Er17     Er41    10.001   1_655     S
Er17     Ti18    10.0   .     S
Er17     Er5    10.0   1_655     S
Ti18     V22    10.0   .     S
Ti18     Ti19    10.0   .     S
Ti19     V22    10.0   .     S
Ti19     Er20    10.0   .     S
Er20     Er8    10.0   1_545     S
Er20     Er32    10.001   1_545     S
Er20     Er44    10.001   .     S
V21     Ce24    10.0   .     S
V22     Ce23    10.0   .     S
Ce23     Ce24    10.0   1_556     S
Ce24     Ce23    10.0   1_554     S
Er25     Er13    10.001   1_565     S
Er25     Ti26    10.0   .     S
Er25     Er37    10.0   1_565     S
Ti26     V33    10.0   .     S
Ti26     Ti27    10.0   .     S
Ti27     V33    10.0   .     S
Ti27     Er28    10.0   .     S
Er28     Er40    10.0   1_655     S
Er28     Er4    10.001   1_655     S
Er29     Er5    10.001   1_655     S
Er29     Ti30    10.0   .     S
Er29     Er41    10.0   1_655     S
Ti30     V34    10.0   .     S
Ti30     Ti31    10.0   .     S
Ti31     V34    10.0   .     S
Ti31     Er32    10.0   .     S
Er32     Er20    10.001   1_565     S
Er32     Er44    10.0   1_565     S
V33     Ce36    10.0   .     S
V34     Ce35    10.0   .     S
Ce35     Ce36    10.0   .     S
Ce35     Ce48    10.0   .     S
Ce36     Ce47    10.0   .     S
Er37     Er1    10.001   1_545     S
Er37     Er25    10.0   1_545     S
Er37     Ti38    10.0   .     S
Ti38     V45    10.0   .     S
Ti38     Ti39    10.0   .     S
Ti39     V45    10.0   .     S
Ti39     Er40    10.0   .     S
Er40     Er28    10.0   1_455     S
Er40     Er16    10.001   1_455     S
Er41     Er17    10.001   1_455     S
Er41     Er29    10.0   1_455     S
Er41     Ti42    10.0   .     S
Ti42     V46    10.0   .     S
Ti42     Ti43    10.0   .     S
Ti43     V46    10.0   .     S
Ti43     Er44    10.0   .     S
Er44     Er8    10.001   1_545     S
Er44     Er32    10.0   1_545     S
V45     Ce47    10.0   .     S
V46     Ce48    10.0   .     S
Ce47     Ce48    10.0   .     S
