data_elf
_audit_creation_date              2020-02-04
_audit_creation_method            'Pymatgen'
_symmetry_space_group_name_H-M    'P1'
_symmetry_Int_Tables_number       1
loop_
_symmetry_equiv_pos_as_xyz
  x,y,z
_cell_length_a                    20.0
_cell_length_b                    20.0
_cell_length_c                    100.9514
_cell_angle_alpha                 90.0
_cell_angle_beta                 90.0
_cell_angle_gamma                 120.0
loop_
_atom_site_label
_atom_site_type_symbol
_atom_site_fract_x
_atom_site_fract_y
_atom_site_fract_z
V1     V     0.0833   0.4167   0.7071
V2     V     0.0833   0.9167   0.7071
V3     V     0.5833   0.4167   0.7071
V4     V     0.5833   0.9167   0.7071
V5     V     0.3333   0.4167   0.7929
V6     V     0.3333   0.9167   0.7929
V7     V     0.8333   0.4167   0.7929
V8     V     0.8333   0.9167   0.7929
V9     V     0.4167   0.3333   0.5404
V10     V     0.4167   0.8333   0.5404
V11     V     0.9167   0.3333   0.5404
V12     V     0.9167   0.8333   0.5404
V13     V     0.4167   0.0833   0.6262
V14     V     0.4167   0.5833   0.6262
V15     V     0.9167   0.0833   0.6262
V16     V     0.9167   0.5833   0.6262
V17     V     0.3333   0.4167   0.3738
V18     V     0.3333   0.9167   0.3738
V19     V     0.8333   0.4167   0.3738
V20     V     0.8333   0.9167   0.3738
V21     V     0.0833   0.1667   0.4596
V22     V     0.0833   0.6667   0.4596
V23     V     0.5833   0.1667   0.4596
V24     V     0.5833   0.6667   0.4596
V25     V     0.1667   0.0833   0.2929
V26     V     0.1667   0.5833   0.2929
V27     V     0.6667   0.0833   0.2929
V28     V     0.6667   0.5833   0.2929
V29     V     0.4167   0.0833   0.2071
V30     V     0.4167   0.5833   0.2071
V31     V     0.9167   0.0833   0.2071
V32     V     0.9167   0.5833   0.2071
V33     V     0.4167   0.3333   0.9596
V34     V     0.4167   0.8333   0.9596
V35     V     0.9167   0.3333   0.9596
V36     V     0.9167   0.8333   0.9596
V37     V     0.1667   0.0833   0.8738
V38     V     0.1667   0.5833   0.8738
V39     V     0.6667   0.0833   0.8738
V40     V     0.6667   0.5833   0.8738
V41     V     0.0833   0.4167   0.1262
V42     V     0.0833   0.9167   0.1262
V43     V     0.5833   0.4167   0.1262
V44     V     0.5833   0.9167   0.1262
V45     V     0.0833   0.1667   0.0404
V46     V     0.0833   0.6667   0.0404
V47     V     0.5833   0.1667   0.0404
V48     V     0.5833   0.6667   0.0404
loop_
_geom_bond_atom_site_label_1
_geom_bond_atom_site_label_2
_geom_bond_distance
_geom_bond_site_symmetry_2
_ccdc_geom_bond_type
V1     V5    10.0   .     S
V1     V7    10.0   1_455     S
V1     V3    10.0   .     S
V1     V3    10.0   1_455     S
V1     V14    10.0   .     S
V1     V16    10.0   1_455     S
V1     V15    10.0   1_455     S
V1     V2    10.0   1_545     S
V1     V2    10.0   .     S
V1     V4    10.0   .     S
V1     V4    10.0   1_445     S
V2     V6    10.0   .     S
V2     V8    10.0   1_455     S
V2     V4    10.0   .     S
V2     V4    10.0   1_455     S
V2     V13    10.0   1_565     S
V2     V15    10.0   1_465     S
V2     V16    10.0   1_455     S
V2     V1    10.0   1_565     S
V2     V3    10.0   1_565     S
V2     V3    10.0   1_455     S
V3     V7    10.0   .     S
V3     V5    10.0   .     S
V3     V1    10.0   1_655     S
V3     V16    10.0   .     S
V3     V14    10.0   .     S
V3     V13    10.0   .     S
V3     V4    10.0   1_545     S
V3     V4    10.0   .     S
V3     V2    10.0   1_545     S
V3     V2    10.0   1_655     S
V4     V8    10.0   .     S
V4     V6    10.0   .     S
V4     V2    10.0   1_655     S
V4     V15    10.0   1_565     S
V4     V13    10.0   1_565     S
V4     V14    10.0   .     S
V4     V3    10.0   1_565     S
V4     V1    10.0   1_665     S
V5     V7    10.0   1_455     S
V5     V7    10.0   .     S
V5     V38    10.0   .     S
V5     V40    10.0   .     S
V5     V37    10.0   .     S
V5     V6    10.0   1_545     S
V5     V6    10.0   .     S
V5     V8    10.0   1_445     S
V5     V8    10.0   .     S
V6     V8    10.0   1_455     S
V6     V8    10.0   .     S
V6     V37    10.0   1_565     S
V6     V39    10.0   1_565     S
V6     V38    10.0   .     S
V6     V5    10.0   1_565     S
V6     V7    10.0   1_455     S
V6     V7    10.0   1_565     S
V7     V1    10.0   1_655     S
V7     V5    10.0   1_655     S
V7     V40    10.0   .     S
V7     V38    10.0   1_655     S
V7     V39    10.0   .     S
V7     V8    10.0   1_545     S
V7     V8    10.0   .     S
V7     V6    10.0   1_655     S
V7     V6    10.0   1_545     S
V8     V2    10.0   1_655     S
V8     V6    10.0   1_655     S
V8     V39    10.0   1_565     S
V8     V37    10.0   1_665     S
V8     V40    10.0   .     S
V8     V7    10.0   1_565     S
V8     V5    10.0   1_665     S
V9     V13    10.0   .     S
V9     V14    10.0   .     S
V9     V10    10.0   1_545     S
V9     V10    10.0   .     S
V9     V21    10.0   .     S
V9     V24    10.0   .     S
V9     V23    10.0   .     S
V9     V11    10.0   1_455     S
V9     V11    10.0   .     S
V9     V12    10.0   1_445     S
V9     V12    10.0   .     S
V10     V14    10.0   .     S
V10     V13    10.0   1_565     S
V10     V9    10.0   1_565     S
V10     V22    10.0   .     S
V10     V23    10.0   1_565     S
V10     V24    10.0   .     S
V10     V12    10.0   1_455     S
V10     V12    10.0   .     S
V10     V11    10.0   1_455     S
V10     V11    10.0   1_565     S
V11     V15    10.0   .     S
V11     V16    10.0   .     S
V11     V12    10.0   1_545     S
V11     V12    10.0   .     S
V11     V23    10.0   .     S
V11     V22    10.0   1_655     S
V11     V21    10.0   1_655     S
V11     V9    10.0   1_655     S
V11     V10    10.0   1_655     S
V11     V10    10.0   1_545     S
V12     V16    10.0   .     S
V12     V15    10.0   1_565     S
V12     V11    10.0   1_565     S
V12     V24    10.0   .     S
V12     V21    10.0   1_665     S
V12     V22    10.0   1_655     S
V12     V10    10.0   1_655     S
V12     V9    10.0   1_665     S
V13     V2    10.0   1_545     S
V13     V15    10.0   1_455     S
V13     V15    10.0   .     S
V13     V10    10.0   1_545     S
V13     V14    10.0   .     S
V13     V14    10.0   1_545     S
V13     V4    10.0   1_545     S
V13     V16    10.0   1_445     S
V13     V16    10.0   .     S
V14     V16    10.0   1_455     S
V14     V16    10.0   .     S
V14     V13    10.0   1_565     S
V14     V15    10.0   1_455     S
V14     V15    10.0   1_565     S
V15     V4    10.0   1_545     S
V15     V13    10.0   1_655     S
V15     V12    10.0   1_545     S
V15     V16    10.0   .     S
V15     V16    10.0   1_545     S
V15     V2    10.0   1_645     S
V15     V1    10.0   1_655     S
V15     V14    10.0   1_655     S
V15     V14    10.0   1_545     S
V16     V14    10.0   1_655     S
V16     V15    10.0   1_565     S
V16     V1    10.0   1_655     S
V16     V2    10.0   1_655     S
V16     V13    10.0   1_665     S
V17     V18    10.0   1_545     S
V17     V18    10.0   .     S
V17     V25    10.0   .     S
V17     V21    10.0   .     S
V17     V24    10.0   .     S
V17     V20    10.0   1_445     S
V17     V20    10.0   .     S
V17     V26    10.0   .     S
V17     V28    10.0   .     S
V17     V19    10.0   1_455     S
V17     V19    10.0   .     S
V18     V17    10.0   1_565     S
V18     V26    10.0   .     S
V18     V22    10.0   .     S
V18     V23    10.0   1_565     S
V18     V19    10.0   1_455     S
V18     V19    10.0   1_565     S
V18     V25    10.0   1_565     S
V18     V27    10.0   1_565     S
V18     V20    10.0   1_455     S
V18     V20    10.0   .     S
V19     V20    10.0   1_545     S
V19     V20    10.0   .     S
V19     V27    10.0   .     S
V19     V23    10.0   .     S
V19     V22    10.0   1_655     S
V19     V18    10.0   1_655     S
V19     V18    10.0   1_545     S
V19     V28    10.0   .     S
V19     V26    10.0   1_655     S
V19     V17    10.0   1_655     S
V20     V19    10.0   1_565     S
V20     V28    10.0   .     S
V20     V24    10.0   .     S
V20     V21    10.0   1_665     S
V20     V17    10.0   1_665     S
V20     V27    10.0   1_565     S
V20     V25    10.0   1_665     S
V20     V18    10.0   1_655     S
V21     V23    10.0   .     S
V21     V23    10.0   1_455     S
V21     V12    10.0   1_445     S
V21     V22    10.0   .     S
V21     V22    10.0   1_545     S
V21     V20    10.0   1_445     S
V21     V24    10.0   .     S
V21     V24    10.0   1_445     S
V21     V11    10.0   1_455     S
V22     V24    10.0   .     S
V22     V24    10.0   1_455     S
V22     V11    10.0   1_455     S
V22     V21    10.0   1_565     S
V22     V19    10.0   1_455     S
V22     V23    10.0   1_565     S
V22     V23    10.0   1_455     S
V22     V12    10.0   1_455     S
V23     V21    10.0   1_655     S
V23     V10    10.0   1_545     S
V23     V24    10.0   .     S
V23     V24    10.0   1_545     S
V23     V18    10.0   1_545     S
V23     V22    10.0   1_545     S
V23     V22    10.0   1_655     S
V24     V22    10.0   1_655     S
V24     V23    10.0   1_565     S
V24     V21    10.0   1_665     S
V25     V18    10.0   1_545     S
V25     V26    10.0   .     S
V25     V26    10.0   1_545     S
V25     V29    10.0   .     S
V25     V31    10.0   1_455     S
V25     V27    10.0   .     S
V25     V27    10.0   1_455     S
V25     V20    10.0   1_445     S
V25     V28    10.0   .     S
V25     V28    10.0   1_445     S
V26     V25    10.0   1_565     S
V26     V30    10.0   .     S
V26     V32    10.0   1_455     S
V26     V28    10.0   .     S
V26     V28    10.0   1_455     S
V26     V19    10.0   1_455     S
V26     V27    10.0   1_565     S
V26     V27    10.0   1_455     S
V27     V20    10.0   1_545     S
V27     V28    10.0   .     S
V27     V28    10.0   1_545     S
V27     V31    10.0   .     S
V27     V29    10.0   .     S
V27     V25    10.0   1_655     S
V27     V18    10.0   1_545     S
V27     V26    10.0   1_545     S
V27     V26    10.0   1_655     S
V28     V27    10.0   1_565     S
V28     V32    10.0   .     S
V28     V30    10.0   .     S
V28     V26    10.0   1_655     S
V28     V25    10.0   1_665     S
V29     V31    10.0   1_455     S
V29     V31    10.0   .     S
V29     V44    10.0   1_545     S
V29     V42    10.0   1_545     S
V29     V32    10.0   1_445     S
V29     V32    10.0   .     S
V29     V30    10.0   .     S
V29     V30    10.0   1_545     S
V29     V43    10.0   .     S
V30     V32    10.0   1_455     S
V30     V32    10.0   .     S
V30     V43    10.0   .     S
V30     V41    10.0   .     S
V30     V31    10.0   1_455     S
V30     V31    10.0   1_565     S
V30     V29    10.0   1_565     S
V30     V44    10.0   .     S
V31     V25    10.0   1_655     S
V31     V29    10.0   1_655     S
V31     V42    10.0   1_645     S
V31     V44    10.0   1_545     S
V31     V30    10.0   1_655     S
V31     V30    10.0   1_545     S
V31     V32    10.0   .     S
V31     V32    10.0   1_545     S
V31     V41    10.0   1_655     S
V32     V26    10.0   1_655     S
V32     V30    10.0   1_655     S
V32     V41    10.0   1_655     S
V32     V43    10.0   .     S
V32     V29    10.0   1_665     S
V32     V31    10.0   1_565     S
V32     V42    10.0   1_655     S
V33     V48    10.0   1_556     S
V33     V34    10.0   1_545     S
V33     V34    10.0   .     S
V33     V40    10.0   .     S
V33     V36    10.0   1_445     S
V33     V36    10.0   .     S
V33     V37    10.0   .     S
V33     V47    10.0   1_556     S
V33     V35    10.0   1_455     S
V33     V35    10.0   .     S
V33     V45    10.0   1_556     S
V34     V47    10.0   1_566     S
V34     V33    10.0   1_565     S
V34     V39    10.0   1_565     S
V34     V35    10.0   1_455     S
V34     V35    10.0   1_565     S
V34     V38    10.0   .     S
V34     V48    10.0   1_556     S
V34     V36    10.0   1_455     S
V34     V36    10.0   .     S
V34     V46    10.0   1_556     S
V35     V46    10.0   1_656     S
V35     V36    10.0   1_545     S
V35     V36    10.0   .     S
V35     V38    10.0   1_655     S
V35     V34    10.0   1_655     S
V35     V34    10.0   1_545     S
V35     V39    10.0   .     S
V35     V45    10.0   1_656     S
V35     V33    10.0   1_655     S
V35     V47    10.0   1_556     S
V36     V45    10.0   1_666     S
V36     V35    10.0   1_565     S
V36     V37    10.0   1_665     S
V36     V33    10.0   1_665     S
V36     V40    10.0   .     S
V36     V46    10.0   1_656     S
V36     V34    10.0   1_655     S
V36     V48    10.0   1_556     S
V37     V36    10.0   1_445     S
V37     V40    10.0   .     S
V37     V40    10.0   1_445     S
V37     V6    10.0   1_545     S
V37     V39    10.0   .     S
V37     V39    10.0   1_455     S
V37     V8    10.0   1_445     S
V37     V38    10.0   .     S
V37     V38    10.0   1_545     S
V38     V35    10.0   1_455     S
V38     V39    10.0   1_565     S
V38     V39    10.0   1_455     S
V38     V40    10.0   .     S
V38     V40    10.0   1_455     S
V38     V7    10.0   1_455     S
V38     V37    10.0   1_565     S
V39     V34    10.0   1_545     S
V39     V38    10.0   1_545     S
V39     V38    10.0   1_655     S
V39     V8    10.0   1_545     S
V39     V37    10.0   1_655     S
V39     V6    10.0   1_545     S
V39     V40    10.0   .     S
V39     V40    10.0   1_545     S
V40     V37    10.0   1_665     S
V40     V38    10.0   1_655     S
V40     V39    10.0   1_565     S
V41     V32    10.0   1_455     S
V41     V31    10.0   1_455     S
V41     V45    10.0   .     S
V41     V46    10.0   .     S
V41     V42    10.0   1_545     S
V41     V42    10.0   .     S
V41     V43    10.0   .     S
V41     V43    10.0   1_455     S
V41     V44    10.0   .     S
V41     V44    10.0   1_445     S
V42     V31    10.0   1_465     S
V42     V29    10.0   1_565     S
V42     V32    10.0   1_455     S
V42     V46    10.0   .     S
V42     V45    10.0   1_565     S
V42     V41    10.0   1_565     S
V42     V44    10.0   .     S
V42     V44    10.0   1_455     S
V42     V43    10.0   1_565     S
V42     V43    10.0   1_455     S
V43     V47    10.0   .     S
V43     V48    10.0   .     S
V43     V44    10.0   1_545     S
V43     V44    10.0   .     S
V43     V41    10.0   1_655     S
V43     V42    10.0   1_545     S
V43     V42    10.0   1_655     S
V44     V29    10.0   1_565     S
V44     V31    10.0   1_565     S
V44     V48    10.0   .     S
V44     V47    10.0   1_565     S
V44     V43    10.0   1_565     S
V44     V42    10.0   1_655     S
V44     V41    10.0   1_665     S
V45     V36    10.0   1_444     S
V45     V35    10.0   1_454     S
V45     V42    10.0   1_545     S
V45     V46    10.0   .     S
V45     V46    10.0   1_545     S
V45     V33    10.0   1_554     S
V45     V48    10.0   .     S
V45     V48    10.0   1_445     S
V45     V47    10.0   .     S
V45     V47    10.0   1_455     S
V46     V35    10.0   1_454     S
V46     V36    10.0   1_454     S
V46     V45    10.0   1_565     S
V46     V34    10.0   1_554     S
V46     V47    10.0   1_565     S
V46     V47    10.0   1_455     S
V46     V48    10.0   .     S
V46     V48    10.0   1_455     S
V47     V34    10.0   1_544     S
V47     V33    10.0   1_554     S
V47     V44    10.0   1_545     S
V47     V48    10.0   .     S
V47     V48    10.0   1_545     S
V47     V35    10.0   1_554     S
V47     V46    10.0   1_545     S
V47     V46    10.0   1_655     S
V47     V45    10.0   1_655     S
V48     V33    10.0   1_554     S
V48     V34    10.0   1_554     S
V48     V47    10.0   1_565     S
V48     V36    10.0   1_554     S
V48     V45    10.0   1_665     S
V48     V46    10.0   1_655     S
