data_epa
_audit_creation_date              2020-02-04
_audit_creation_method            'Pymatgen'
_symmetry_space_group_name_H-M    'P1'
_symmetry_Int_Tables_number       1
loop_
_symmetry_equiv_pos_as_xyz
  x,y,z
_cell_length_a                    20.1337
_cell_length_b                    20.1337
_cell_length_c                    48.5786
_cell_angle_alpha                 90.0
_cell_angle_beta                 90.0
_cell_angle_gamma                 120.0
loop_
_atom_site_label
_atom_site_type_symbol
_atom_site_fract_x
_atom_site_fract_y
_atom_site_fract_z
V1     V     0.1667   0.3333   0.3333
Ti2     Ti     0.3333   0.1667   0.1667
Ti3     Ti     0.8333   0.1667   0.1667
V4     V     0.1667   0.8333   0.3333
V5     V     0.6667   0.8333   0.3333
Ti6     Ti     0.8333   0.6667   0.1667
V7     V     0.5   0.0   0.0
V8     V     0.5   0.5   0.0
V9     V     0.0   0.5   0.0
V10     V     0.3333   0.1667   0.6667
Ti11     Ti     0.1667   0.3333   0.8333
Ti12     Ti     0.1667   0.8333   0.8333
V13     V     0.8333   0.1667   0.6667
V14     V     0.8333   0.6667   0.6667
Ti15     Ti     0.6667   0.8333   0.8333
Ti16     Ti     0.0   0.5   0.5
Ti17     Ti     0.5   0.5   0.5
Ti18     Ti     0.5   0.0   0.5
Er19     Er     0.0   0.0   0.0
Er20     Er     0.6667   0.3333   0.3333
Er21     Er     0.3333   0.6667   0.6667
loop_
_geom_bond_atom_site_label_1
_geom_bond_atom_site_label_2
_geom_bond_distance
_geom_bond_site_symmetry_2
_ccdc_geom_bond_type
V1     Ti2    9.967   .     S
V1     Ti3    9.967   1_455     S
V1     Ti17    9.967   .     S
V1     Ti16    9.967   .     S
V1     Er20    10.067   1_455     S
V1     Er20    10.067   .     S
Ti2     V4    9.967   1_545     S
Ti2     V7    9.967   .     S
Ti2     V8    9.967   .     S
Ti3     V1    9.967   1_655     S
Ti3     V5    9.967   1_545     S
Ti3     V7    9.967   .     S
Ti3     V9    9.967   1_655     S
V4     Ti2    9.967   1_565     S
V4     Ti6    9.967   1_455     S
V4     Ti18    9.967   1_565     S
V4     Ti16    9.967   .     S
V4     Er20    10.067   1_455     S
V4     Er20    10.067   1_565     S
V5     Ti3    9.967   1_565     S
V5     Ti6    9.967   .     S
V5     Ti17    9.967   .     S
V5     Ti18    9.967   1_565     S
V5     Er20    10.067   .     S
V5     Er20    10.067   1_565     S
Ti6     V4    9.967   1_655     S
Ti6     V8    9.967   .     S
Ti6     V9    9.967   1_655     S
V7     Ti15    9.967   1_544     S
V7     Ti12    9.967   1_544     S
V7     Er19    10.067   .     S
V7     Er19    10.067   1_655     S
V8     Ti11    9.967   1_554     S
V8     Ti15    9.967   1_554     S
V8     Er19    10.067   1_665     S
V8     Er19    10.067   .     S
V9     Ti11    9.967   1_554     S
V9     Ti3    9.967   1_455     S
V9     Ti12    9.967   1_554     S
V9     Ti6    9.967   1_455     S
V9     Er19    10.067   1_565     S
V9     Er19    10.067   .     S
V10     Ti17    9.967   .     S
V10     Ti18    9.967   .     S
V10     Ti11    9.967   .     S
V10     Ti12    9.967   1_545     S
V10     Er21    10.067   1_545     S
V10     Er21    10.067   .     S
Ti11     V8    9.967   1_556     S
Ti11     V9    9.967   1_556     S
Ti11     V13    9.967   1_455     S
Ti12     V7    9.967   1_566     S
Ti12     V9    9.967   1_556     S
Ti12     V10    9.967   1_565     S
Ti12     V14    9.967   1_455     S
V13     Ti16    9.967   1_655     S
V13     Ti18    9.967   .     S
V13     Ti11    9.967   1_655     S
V13     Ti15    9.967   1_545     S
V13     Er21    10.067   1_655     S
V13     Er21    10.067   1_545     S
V14     Ti16    9.967   1_655     S
V14     Ti17    9.967   .     S
V14     Ti12    9.967   1_655     S
V14     Ti15    9.967   .     S
V14     Er21    10.067   .     S
V14     Er21    10.067   1_655     S
Ti15     V7    9.967   1_566     S
Ti15     V8    9.967   1_556     S
Ti15     V13    9.967   1_565     S
Ti16     V13    9.967   1_455     S
Ti16     V14    9.967   1_455     S
Ti18     V4    9.967   1_545     S
Ti18     V5    9.967   1_545     S
Er19     V7    10.067   1_455     S
Er19     V8    10.067   1_445     S
Er19     V9    10.067   1_545     S
Er20     V1    10.067   1_655     S
Er20     V4    10.067   1_655     S
Er20     V4    10.067   1_545     S
Er20     V5    10.067   1_545     S
Er21     V10    10.067   1_565     S
Er21     V13    10.067   1_455     S
Er21     V13    10.067   1_565     S
Er21     V14    10.067   1_455     S
