data_epba
_audit_creation_date              2020-02-04
_audit_creation_method            'Pymatgen'
_symmetry_space_group_name_H-M    'P1'
_symmetry_Int_Tables_number       1
loop_
_symmetry_equiv_pos_as_xyz
  x,y,z
_cell_length_a                    52.7087
_cell_length_b                    52.7087
_cell_length_c                    55.2404
_cell_angle_alpha                 90.0
_cell_angle_beta                 90.0
_cell_angle_gamma                 90.0
loop_
_atom_site_label
_atom_site_type_symbol
_atom_site_fract_x
_atom_site_fract_y
_atom_site_fract_z
Ti1     Ti     0.9462   0.9193   0.0887
Ti2     Ti     0.9193   0.9462   0.9113
Ti3     Ti     0.0807   0.0538   0.0887
Ti4     Ti     0.0538   0.0807   0.9113
Ti5     Ti     0.5538   0.5807   0.0887
Ti6     Ti     0.5807   0.5538   0.9113
Ti7     Ti     0.4193   0.4462   0.0887
Ti8     Ti     0.4462   0.4193   0.9113
Ti9     Ti     0.5807   0.9462   0.5887
Ti10     Ti     0.5538   0.9193   0.4113
Ti11     Ti     0.4193   0.0538   0.4113
Ti12     Ti     0.4462   0.0807   0.5887
Er13     Er     0.25   0.0729   0.75
Ce14     Ce     0.25   0.8838   0.75
V15     V     0.3384   0.215   0.6657
V16     V     0.1616   0.215   0.8343
Er17     Er     0.9271   0.75   0.75
Ce18     Ce     0.1162   0.75   0.75
V19     V     0.785   0.6617   0.6657
V20     V     0.785   0.8384   0.8343
Er21     Er     0.25   0.4271   0.75
Ce22     Ce     0.25   0.6162   0.75
V23     V     0.1616   0.285   0.6657
V24     V     0.3384   0.285   0.8343
Er25     Er     0.5729   0.75   0.75
Ce26     Ce     0.3838   0.75   0.75
V27     V     0.715   0.6617   0.8343
V28     V     0.715   0.8384   0.6657
Er29     Er     0.75   0.5729   0.25
Ce30     Ce     0.75   0.3838   0.25
V31     V     0.6617   0.715   0.1657
V32     V     0.8384   0.715   0.3343
Er33     Er     0.4271   0.25   0.25
Ce34     Ce     0.6162   0.25   0.25
V35     V     0.285   0.3384   0.1657
V36     V     0.285   0.1616   0.3343
Er37     Er     0.75   0.9271   0.25
Ce38     Ce     0.75   0.1162   0.25
V39     V     0.6617   0.785   0.3343
V40     V     0.8384   0.785   0.1657
Er41     Er     0.0729   0.25   0.25
Ce42     Ce     0.8838   0.25   0.25
V43     V     0.215   0.3384   0.3343
V44     V     0.215   0.1616   0.1657
Ti45     Ti     0.9193   0.5538   0.5887
Ti46     Ti     0.9462   0.5807   0.4113
Ti47     Ti     0.0807   0.4462   0.4113
Ti48     Ti     0.0538   0.4193   0.5887
loop_
_geom_bond_atom_site_label_1
_geom_bond_atom_site_label_2
_geom_bond_distance
_geom_bond_site_symmetry_2
_ccdc_geom_bond_type
Ti1     Ti3    10.025   1_665     S
Ti1     V40    10.028   .     S
Ti1     Ti2    10.002   1_554     S
Ti2     Ti4    10.025   1_665     S
Ti2     V20    10.028   .     S
Ti2     Ti1    10.002   1_556     S
Ti3     Ti1    10.025   1_445     S
Ti3     V44    10.028   .     S
Ti3     Ti4    10.002   1_554     S
Ti4     Ti2    10.025   1_445     S
Ti4     V16    10.028   .     S
Ti4     Ti3    10.002   1_556     S
Ti5     Ti7    10.025   .     S
Ti5     V31    10.028   .     S
Ti5     Ti6    10.002   1_554     S
Ti6     Ti8    10.025   .     S
Ti6     V27    10.028   .     S
Ti6     Ti5    10.002   1_556     S
Ti7     V35    10.028   .     S
Ti7     Ti8    10.002   1_554     S
Ti8     V24    10.028   .     S
Ti8     Ti7    10.002   1_556     S
Ti9     Ti12    10.025   1_565     S
Ti9     V28    10.028   .     S
Ti9     Ti10    10.002   .     S
Ti10     Ti11    10.025   1_565     S
Ti10     V39    10.028   .     S
Ti11     Ti10    10.025   1_545     S
Ti11     V36    10.028   .     S
Ti11     Ti12    10.002   .     S
Ti12     Ti9    10.025   1_545     S
Ti12     V15    10.028   .     S
Er13     Ce14    9.967   1_545     S
Er13     V16    9.973   .     S
Er13     V15    9.973   .     S
Ce14     Er13    9.967   1_565     S
Ce14     Ce18    9.974   .     S
Ce14     Ce26    9.974   .     S
V15     V24    10.013   .     S
V15     V23    10.017   .     S
V16     V23    10.013   .     S
V16     V24    10.017   .     S
Er17     Ce18    9.967   1_655     S
Er17     V20    9.973   .     S
Er17     V19    9.973   .     S
Ce18     Er17    9.967   1_455     S
Ce18     Ce22    9.974   .     S
V19     V27    10.013   .     S
V19     V28    10.017   .     S
V19     Ti45    10.028   .     S
V20     V28    10.013   .     S
V20     V27    10.017   .     S
Er21     Ce22    9.967   .     S
Er21     V24    9.973   .     S
Er21     V23    9.973   .     S
Ce22     Ce26    9.974   .     S
V23     Ti48    10.028   .     S
Er25     Ce26    9.967   .     S
Er25     V27    9.973   .     S
Er25     V28    9.973   .     S
Er29     Ce30    9.967   .     S
Er29     V31    9.973   .     S
Er29     V32    9.973   .     S
Ce30     Ce34    9.974   .     S
Ce30     Ce42    9.974   .     S
V31     V39    10.013   .     S
V31     V40    10.017   .     S
V32     V40    10.013   .     S
V32     V39    10.017   .     S
V32     Ti46    10.028   .     S
Er33     Ce34    9.967   .     S
Er33     V36    9.973   .     S
Er33     V35    9.973   .     S
Ce34     Ce38    9.974   .     S
V35     V43    10.013   .     S
V35     V44    10.017   .     S
V36     V44    10.013   .     S
V36     V43    10.017   .     S
Er37     Ce38    9.967   1_565     S
Er37     V39    9.973   .     S
Er37     V40    9.973   .     S
Ce38     Er37    9.967   1_545     S
Ce38     Ce42    9.974   .     S
Er41     Ce42    9.967   1_455     S
Er41     V43    9.973   .     S
Er41     V44    9.973   .     S
Ce42     Er41    9.967   1_655     S
V43     Ti47    10.028   .     S
Ti45     Ti48    10.025   1_655     S
Ti45     Ti46    10.002   .     S
Ti46     Ti47    10.025   1_655     S
Ti47     Ti46    10.025   1_455     S
Ti47     Ti48    10.002   .     S
Ti48     Ti45    10.025   1_455     S
