data_epfa
_audit_creation_date              2020-02-04
_audit_creation_method            'Pymatgen'
_symmetry_space_group_name_H-M    'P1'
_symmetry_Int_Tables_number       1
loop_
_symmetry_equiv_pos_as_xyz
  x,y,z
_cell_length_a                    38.8959
_cell_length_b                    38.8959
_cell_length_c                    239.8729
_cell_angle_alpha                 90.0
_cell_angle_beta                 90.0
_cell_angle_gamma                 90.0
loop_
_atom_site_label
_atom_site_type_symbol
_atom_site_fract_x
_atom_site_fract_y
_atom_site_fract_z
Ce1     Ce     0.2341   0.3786   0.7293
Ce2     Ce     0.2659   0.3786   0.7707
Ce3     Ce     0.2341   0.1214   0.7293
Ce4     Ce     0.2659   0.1214   0.7707
Ce5     Ce     0.8714   0.0159   0.0207
Ce6     Ce     0.8714   0.9841   0.9793
Ce7     Ce     0.1286   0.0159   0.0207
Ce8     Ce     0.1286   0.9841   0.9793
Er9     Er     0.3714   0.5483   0.9665
Er10     Er     0.6286   0.5483   0.9665
Ti11     Ti     0.5   0.5923   0.9312
Er12     Er     0.2983   0.6214   0.7835
Er13     Er     0.2983   0.8786   0.7835
Ti14     Ti     0.3422   0.75   0.8188
Er15     Er     0.7017   0.6214   0.7835
Er16     Er     0.7017   0.8786   0.7835
Ti17     Ti     0.6578   0.75   0.8188
V18     V     0.5   0.6217   0.8898
V19     V     0.5   0.8783   0.8898
V20     V     0.6283   0.75   0.8602
V21     V     0.3717   0.75   0.8602
Er22     Er     0.3714   0.9517   0.9665
Er23     Er     0.6286   0.9517   0.9665
Ti24     Ti     0.5   0.9078   0.9312
Ce25     Ce     0.8714   0.4841   0.0207
Ce26     Ce     0.8714   0.5159   0.9793
Ce27     Ce     0.1286   0.5159   0.9793
Ce28     Ce     0.1286   0.4841   0.0207
Ce29     Ce     0.7659   0.6214   0.2707
Ce30     Ce     0.7341   0.6214   0.2293
Ce31     Ce     0.7659   0.8786   0.2707
Ce32     Ce     0.7341   0.8786   0.2293
Er33     Er     0.3714   0.4517   0.0335
Er34     Er     0.6286   0.4517   0.0335
Ti35     Ti     0.5   0.4078   0.0688
Er36     Er     0.6286   0.0483   0.0335
Er37     Er     0.3714   0.0483   0.0335
Ti38     Ti     0.5   0.0922   0.0688
Er39     Er     0.2983   0.1214   0.2165
Er40     Er     0.2983   0.3786   0.2165
Ti41     Ti     0.3422   0.25   0.1812
V42     V     0.5   0.1217   0.1102
V43     V     0.5   0.3783   0.1102
V44     V     0.6283   0.25   0.1398
V45     V     0.3717   0.25   0.1398
Er46     Er     0.7017   0.3786   0.2165
Er47     Er     0.7017   0.1214   0.2165
Ti48     Ti     0.6578   0.25   0.1812
Ce49     Ce     0.2659   0.6214   0.2293
Ce50     Ce     0.2341   0.6214   0.2707
Ce51     Ce     0.2341   0.8786   0.2707
Ce52     Ce     0.2659   0.8786   0.2293
Ce53     Ce     0.7659   0.3786   0.7293
Ce54     Ce     0.7341   0.3786   0.7707
Ce55     Ce     0.7659   0.1214   0.7293
Ce56     Ce     0.7341   0.1214   0.7707
Er57     Er     0.1286   0.5483   0.5335
Er58     Er     0.8714   0.5483   0.5335
Ti59     Ti     0.0   0.5923   0.5688
Er60     Er     0.7983   0.6214   0.7165
Er61     Er     0.7983   0.8786   0.7165
Ti62     Ti     0.8422   0.75   0.6812
Er63     Er     0.2017   0.6214   0.7165
Er64     Er     0.2017   0.8786   0.7165
Ti65     Ti     0.1578   0.75   0.6812
V66     V     0.0   0.6217   0.6102
V67     V     0.0   0.8783   0.6102
V68     V     0.1283   0.75   0.6398
V69     V     0.8717   0.75   0.6398
Er70     Er     0.1286   0.9517   0.5335
Er71     Er     0.8714   0.9517   0.5335
Ti72     Ti     0.0   0.9078   0.5688
Ce73     Ce     0.6286   0.5159   0.5207
Ce74     Ce     0.6286   0.4841   0.4793
Ce75     Ce     0.3714   0.5159   0.5207
Ce76     Ce     0.3714   0.4841   0.4793
Ce77     Ce     0.6286   0.9841   0.5207
Ce78     Ce     0.6286   0.0159   0.4793
Ce79     Ce     0.3714   0.9841   0.5207
Ce80     Ce     0.3714   0.0159   0.4793
Er81     Er     0.7983   0.1214   0.2835
Er82     Er     0.7983   0.3786   0.2835
Ti83     Ti     0.8422   0.25   0.3188
Er84     Er     0.2017   0.3786   0.2835
Er85     Er     0.2017   0.1214   0.2835
Ti86     Ti     0.1578   0.25   0.3188
Er87     Er     0.1286   0.0483   0.4665
Er88     Er     0.8714   0.0483   0.4665
Ti89     Ti     0.0   0.0922   0.4312
Er90     Er     0.8714   0.4517   0.4665
Er91     Er     0.1286   0.4517   0.4665
Ti92     Ti     0.0   0.4078   0.4312
V93     V     0.0   0.1217   0.3898
V94     V     0.0   0.3783   0.3898
V95     V     0.1283   0.25   0.3602
V96     V     0.8717   0.25   0.3602
loop_
_geom_bond_atom_site_label_1
_geom_bond_atom_site_label_2
_geom_bond_distance
_geom_bond_site_symmetry_2
_ccdc_geom_bond_type
Ce1     Ce2    9.993   .     S
Ce1     Ce3    10.006   .     S
Ce1     Er63    10.009   .     S
Ce2     Ce4    10.006   .     S
Ce2     Er12    10.009   .     S
Ce3     Ce4    9.993   .     S
Ce3     Er64    10.009   1_545     S
Ce4     Er13    10.009   1_545     S
Ce5     Ce6    9.993   1_544     S
Ce5     Ce7    10.006   1_655     S
Ce5     Er36    10.009   .     S
Ce6     Ce5    9.993   1_566     S
Ce6     Ce8    10.006   1_655     S
Ce6     Er23    10.009   .     S
Ce7     Ce8    9.993   1_544     S
Ce7     Ce5    10.006   1_455     S
Ce7     Er37    10.009   .     S
Ce8     Ce7    9.993   1_566     S
Ce8     Ce6    10.006   1_455     S
Ce8     Er22    10.009   .     S
Er9     Ti11    9.994   .     S
Er9     Er10    10.003   .     S
Er9     Ce27    10.009   .     S
Er10     Ti11    9.994   .     S
Er10     Ce26    10.009   .     S
Ti11     V18    10.001   .     S
Er12     Ti14    9.994   .     S
Er12     Er13    10.003   .     S
Er13     Ti14    9.994   .     S
Er13     Ce4    10.009   1_565     S
Ti14     V21    10.001   .     S
Er15     Ti17    9.994   .     S
Er15     Er16    10.003   .     S
Er15     Ce54    10.009   .     S
Er16     Ti17    9.994   .     S
Er16     Ce56    10.009   1_565     S
Ti17     V20    10.001   .     S
V18     V21    9.997   .     S
V18     V20    9.997   .     S
V18     V19    9.98   .     S
V19     V21    9.997   .     S
V19     V20    9.997   .     S
V19     Ti24    10.001   .     S
V20     V21    9.98   .     S
Er22     Ti24    9.994   .     S
Er22     Er23    10.003   .     S
Er23     Ti24    9.994   .     S
Ce25     Ce26    9.993   1_554     S
Ce25     Ce28    10.006   1_655     S
Ce25     Er34    10.009   .     S
Ce26     Ce25    9.993   1_556     S
Ce26     Ce27    10.006   1_655     S
Ce27     Ce28    9.993   1_556     S
Ce27     Ce26    10.006   1_455     S
Ce28     Ce27    9.993   1_554     S
Ce28     Ce25    10.006   1_455     S
Ce28     Er33    10.009   .     S
Ce29     Ce30    9.993   .     S
Ce29     Ce31    10.006   .     S
Ce29     Er82    10.009   .     S
Ce30     Ce32    10.006   .     S
Ce30     Er46    10.009   .     S
Ce31     Ce32    9.993   .     S
Ce31     Er81    10.009   1_565     S
Ce32     Er47    10.009   1_565     S
Er33     Ti35    9.994   .     S
Er33     Er34    10.003   .     S
Er34     Ti35    9.994   .     S
Ti35     V43    10.001   .     S
Er36     Ti38    9.994   .     S
Er36     Er37    10.003   .     S
Er37     Ti38    9.994   .     S
Ti38     V42    10.001   .     S
Er39     Ti41    9.994   .     S
Er39     Er40    10.003   .     S
Er39     Ce52    10.009   1_545     S
Er40     Ti41    9.994   .     S
Er40     Ce49    10.009   .     S
Ti41     V45    10.001   .     S
V42     V45    9.997   .     S
V42     V44    9.997   .     S
V42     V43    9.98   .     S
V43     V44    9.997   .     S
V43     V45    9.997   .     S
V44     Ti48    10.001   .     S
V44     V45    9.98   .     S
Er46     Ti48    9.994   .     S
Er46     Er47    10.003   .     S
Er47     Ti48    9.994   .     S
Er47     Ce32    10.009   1_545     S
Ce49     Ce50    9.993   .     S
Ce49     Ce52    10.006   .     S
Ce50     Ce51    10.006   .     S
Ce50     Er84    10.009   .     S
Ce51     Ce52    9.993   .     S
Ce51     Er85    10.009   1_565     S
Ce52     Er39    10.009   1_565     S
Ce53     Ce54    9.993   .     S
Ce53     Ce55    10.006   .     S
Ce53     Er60    10.009   .     S
Ce54     Ce56    10.006   .     S
Ce55     Ce56    9.993   .     S
Ce55     Er61    10.009   1_545     S
Ce56     Er16    10.009   1_545     S
Er57     Ti59    9.994   .     S
Er57     Er58    10.003   1_455     S
Er57     Ce75    10.009   .     S
Er58     Ti59    9.994   1_655     S
Er58     Er57    10.003   1_655     S
Er58     Ce73    10.009   .     S
Ti59     Er58    9.994   1_455     S
Ti59     V66    10.001   .     S
Er60     Ti62    9.994   .     S
Er60     Er61    10.003   .     S
Er61     Ti62    9.994   .     S
Er61     Ce55    10.009   1_565     S
Ti62     V69    10.001   .     S
Er63     Ti65    9.994   .     S
Er63     Er64    10.003   .     S
Er64     Ti65    9.994   .     S
Er64     Ce3    10.009   1_565     S
Ti65     V68    10.001   .     S
V66     V69    9.997   1_455     S
V66     V68    9.997   .     S
V66     V67    9.98   .     S
V67     V68    9.997   .     S
V67     V69    9.997   1_455     S
V67     Ti72    10.001   .     S
V68     V69    9.98   1_455     S
V69     V66    9.997   1_655     S
V69     V67    9.997   1_655     S
V69     V68    9.98   1_655     S
Er70     Ti72    9.994   .     S
Er70     Er71    10.003   1_455     S
Er70     Ce79    10.009   .     S
Er71     Ti72    9.994   1_655     S
Er71     Er70    10.003   1_655     S
Er71     Ce77    10.009   .     S
Ti72     Er71    9.994   1_455     S
Ce73     Ce74    9.993   .     S
Ce73     Ce75    10.006   .     S
Ce74     Ce76    10.006   .     S
Ce74     Er90    10.009   .     S
Ce75     Ce76    9.993   .     S
Ce76     Er91    10.009   .     S
Ce77     Ce78    9.993   1_565     S
Ce77     Ce79    10.006   .     S
Ce78     Ce77    9.993   1_545     S
Ce78     Ce80    10.006   .     S
Ce78     Er88    10.009   .     S
Ce79     Ce80    9.993   1_565     S
Ce80     Ce79    9.993   1_545     S
Ce80     Er87    10.009   .     S
Er81     Ti83    9.994   .     S
Er81     Er82    10.003   .     S
Er81     Ce31    10.009   1_545     S
Er82     Ti83    9.994   .     S
Ti83     V96    10.001   .     S
Er84     Ti86    9.994   .     S
Er84     Er85    10.003   .     S
Er85     Ti86    9.994   .     S
Er85     Ce51    10.009   1_545     S
Ti86     V95    10.001   .     S
Er87     Ti89    9.994   .     S
Er87     Er88    10.003   1_455     S
Er88     Ti89    9.994   1_655     S
Er88     Er87    10.003   1_655     S
Ti89     Er88    9.994   1_455     S
Ti89     V93    10.001   .     S
Er90     Ti92    9.994   1_655     S
Er90     Er91    10.003   1_655     S
Er91     Ti92    9.994   .     S
Er91     Er90    10.003   1_455     S
Ti92     Er90    9.994   1_455     S
Ti92     V94    10.001   .     S
V93     V95    9.997   .     S
V93     V96    9.997   1_455     S
V93     V94    9.98   .     S
V94     V96    9.997   1_455     S
V94     V95    9.997   .     S
V95     V96    9.98   1_455     S
V96     V93    9.997   1_655     S
V96     V94    9.997   1_655     S
V96     V95    9.98   1_655     S
