data_epma
_audit_creation_date              2020-02-04
_audit_creation_method            'Pymatgen'
_symmetry_space_group_name_H-M    'P1'
_symmetry_Int_Tables_number       1
loop_
_symmetry_equiv_pos_as_xyz
  x,y,z
_cell_length_a                    111.6333
_cell_length_b                    111.6333
_cell_length_c                    111.6333
_cell_angle_alpha                 90.0
_cell_angle_beta                 90.0
_cell_angle_gamma                 90.0
loop_
_atom_site_label
_atom_site_type_symbol
_atom_site_fract_x
_atom_site_fract_y
_atom_site_fract_z
Ce1     Ce     0.2052   0.75   0.4683
Ce2     Ce     0.25   0.7948   0.5317
Ce3     Ce     0.2948   0.75   0.4683
Ce4     Ce     0.25   0.7052   0.5317
Ce5     Ce     0.4683   0.2052   0.75
Ce6     Ce     0.5317   0.25   0.7948
Ce7     Ce     0.4683   0.2948   0.75
Ce8     Ce     0.5317   0.25   0.7052
Ce9     Ce     0.75   0.4683   0.2052
Ce10     Ce     0.7948   0.5317   0.25
Ce11     Ce     0.75   0.4683   0.2948
Ce12     Ce     0.7052   0.5317   0.25
Er13     Er     0.2875   0.5702   0.6336
Er14     Er     0.2875   0.6336   0.5702
V15     V     0.3526   0.5721   0.5721
Er16     Er     0.6336   0.2875   0.5702
Er17     Er     0.5702   0.2875   0.6336
V18     V     0.5721   0.3526   0.5721
Er19     Er     0.3664   0.7125   0.4298
Er20     Er     0.4298   0.7125   0.3664
V21     V     0.4279   0.6474   0.4279
Er22     Er     0.7125   0.4298   0.3664
Er23     Er     0.7125   0.3664   0.4298
V24     V     0.6474   0.4279   0.4279
Er25     Er     0.4298   0.3664   0.7125
Er26     Er     0.3664   0.4298   0.7125
V27     V     0.4279   0.4279   0.6474
Er28     Er     0.6336   0.5702   0.2875
Er29     Er     0.5702   0.6336   0.2875
V30     V     0.5721   0.5721   0.3526
Ti31     Ti     0.5363   0.5363   0.4266
Ti32     Ti     0.4637   0.5734   0.4637
Ti33     Ti     0.5734   0.4637   0.4637
Ti34     Ti     0.5363   0.4266   0.5363
Ti35     Ti     0.4637   0.4637   0.5734
Ti36     Ti     0.4266   0.5363   0.5363
Ce37     Ce     0.7948   0.25   0.5317
Ce38     Ce     0.75   0.2052   0.4683
Ce39     Ce     0.75   0.2948   0.4683
Ce40     Ce     0.7052   0.25   0.5317
Ce41     Ce     0.25   0.5317   0.7948
Ce42     Ce     0.2052   0.4683   0.75
Ce43     Ce     0.2948   0.4683   0.75
Ce44     Ce     0.25   0.5317   0.7052
Ce45     Ce     0.5317   0.7948   0.25
Ce46     Ce     0.4683   0.75   0.2052
Ce47     Ce     0.4683   0.75   0.2948
Ce48     Ce     0.5317   0.7052   0.25
Ce49     Ce     0.2948   0.75   0.0317
Ce50     Ce     0.25   0.7948   0.9683
Ce51     Ce     0.2052   0.75   0.0317
Ce52     Ce     0.25   0.7052   0.9683
Ce53     Ce     0.0317   0.2948   0.75
Ce54     Ce     0.9683   0.25   0.7948
Ce55     Ce     0.0317   0.2052   0.75
Ce56     Ce     0.9683   0.25   0.7052
Er57     Er     0.7875   0.3664   0.0702
Er58     Er     0.7875   0.4298   0.1336
V59     V     0.8526   0.4279   0.0721
Er60     Er     0.1336   0.4298   0.7875
Er61     Er     0.0702   0.3664   0.7875
V62     V     0.0721   0.4279   0.8526
Er63     Er     0.2125   0.6336   0.9298
Er64     Er     0.2125   0.5702   0.8664
V65     V     0.1474   0.5721   0.9279
Er66     Er     0.8664   0.5702   0.2125
Er67     Er     0.9298   0.6336   0.2125
V68     V     0.9279   0.5721   0.1474
Er69     Er     0.8664   0.2875   0.9298
Er70     Er     0.9298   0.2875   0.8664
V71     V     0.9279   0.3526   0.9279
Ti72     Ti     0.0363   0.5734   0.0363
Ti73     Ti     0.9266   0.4637   0.0363
Ti74     Ti     0.9637   0.5363   0.0735
Ti75     Ti     0.9637   0.4266   0.9637
Ti76     Ti     0.0363   0.4637   0.9266
Ti77     Ti     0.0735   0.5363   0.9637
Er78     Er     0.1336   0.7125   0.0702
Er79     Er     0.0702   0.7125   0.1336
V80     V     0.0721   0.6474   0.0721
Ce81     Ce     0.0317   0.75   0.2052
Ce82     Ce     0.9683   0.7052   0.25
Ce83     Ce     0.0317   0.75   0.2948
Ce84     Ce     0.9683   0.7948   0.25
Ce85     Ce     0.75   0.0317   0.2052
Ce86     Ce     0.7052   0.9683   0.25
Ce87     Ce     0.75   0.0317   0.2948
Ce88     Ce     0.7948   0.9683   0.25
Er89     Er     0.0702   0.7875   0.3664
Er90     Er     0.1336   0.7875   0.4298
V91     V     0.0721   0.8526   0.4279
Er92     Er     0.7875   0.1336   0.4298
Er93     Er     0.7875   0.0702   0.3664
V94     V     0.8526   0.0721   0.4279
Er95     Er     0.2125   0.8664   0.5702
Er96     Er     0.2125   0.9298   0.6336
V97     V     0.1474   0.9279   0.5721
Er98     Er     0.9298   0.2125   0.6336
Er99     Er     0.8664   0.2125   0.5702
V100     V     0.9279   0.1474   0.5721
Er101     Er     0.9298   0.8664   0.2875
Er102     Er     0.8664   0.9298   0.2875
V103     V     0.9279   0.9279   0.3526
Ti104     Ti     0.0363   0.0363   0.5734
Ti105     Ti     0.0735   0.9637   0.5363
Ti106     Ti     0.0363   0.9266   0.4637
Ti107     Ti     0.9266   0.0363   0.4637
Ti108     Ti     0.9637   0.0735   0.5363
Ti109     Ti     0.9637   0.9637   0.4266
Er110     Er     0.1336   0.0702   0.7125
Er111     Er     0.0702   0.1336   0.7125
V112     V     0.0721   0.0721   0.6474
Ce113     Ce     0.2948   0.0317   0.75
Ce114     Ce     0.25   0.9683   0.7948
Ce115     Ce     0.2052   0.0317   0.75
Ce116     Ce     0.25   0.9683   0.7052
Er117     Er     0.4298   0.7875   0.1336
Er118     Er     0.3664   0.7875   0.0702
V119     V     0.4279   0.8526   0.0721
Er120     Er     0.3664   0.0702   0.7875
Er121     Er     0.4298   0.1336   0.7875
V122     V     0.4279   0.0721   0.8526
Er123     Er     0.5702   0.2125   0.8664
Er124     Er     0.6336   0.2125   0.9298
V125     V     0.5721   0.1474   0.9279
Er126     Er     0.6336   0.9298   0.2125
Er127     Er     0.5702   0.8664   0.2125
V128     V     0.5721   0.9279   0.1474
Er129     Er     0.2875   0.8664   0.9298
Er130     Er     0.2875   0.9298   0.8664
V131     V     0.3526   0.9279   0.9279
Ti132     Ti     0.5734   0.0363   0.0363
Ti133     Ti     0.4637   0.9266   0.0363
Ti134     Ti     0.5363   0.9637   0.0735
Ti135     Ti     0.5363   0.0735   0.9637
Ti136     Ti     0.4637   0.0363   0.9266
Ti137     Ti     0.4266   0.9637   0.9637
Er138     Er     0.7125   0.1336   0.0702
Er139     Er     0.7125   0.0702   0.1336
V140     V     0.6474   0.0721   0.0721
Ce141     Ce     0.7948   0.25   0.9683
Ce142     Ce     0.75   0.2948   0.0317
Ce143     Ce     0.75   0.2052   0.0317
Ce144     Ce     0.7052   0.25   0.9683
loop_
_geom_bond_atom_site_label_1
_geom_bond_atom_site_label_2
_geom_bond_distance
_geom_bond_site_symmetry_2
_ccdc_geom_bond_type
Ce1     Ce2    9.995   .     S
Ce1     Ce3    9.998   .     S
Ce1     Ce4    9.999   .     S
Ce1     Er90    10.003   .     S
Ce2     Ce3    9.999   .     S
Ce2     Ce4    9.998   .     S
Ce2     Er95    10.003   .     S
Ce3     Ce4    9.995   .     S
Ce3     Er19    10.003   .     S
Ce4     Er14    10.003   .     S
Ce5     Ce6    9.995   .     S
Ce5     Ce7    9.998   .     S
Ce5     Ce8    9.999   .     S
Ce5     Er121    10.003   .     S
Ce6     Ce7    9.999   .     S
Ce6     Ce8    9.998   .     S
Ce6     Er123    10.003   .     S
Ce7     Ce8    9.995   .     S
Ce7     Er25    10.003   .     S
Ce8     Er17    10.003   .     S
Ce9     Ce10    9.995   .     S
Ce9     Ce12    9.999   .     S
Ce9     Ce11    9.998   .     S
Ce9     Er58    10.003   .     S
Ce10     Ce12    9.998   .     S
Ce10     Ce11    9.999   .     S
Ce10     Er66    10.003   .     S
Ce11     Ce12    9.995   .     S
Ce11     Er22    10.003   .     S
Ce12     Er28    10.003   .     S
Er13     V15    10.0   .     S
Er13     Er14    9.998   .     S
Er13     Ce44    10.003   .     S
Er14     V15    10.0   .     S
V15     Ti36    10.002   .     S
Er16     V18    10.0   .     S
Er16     Er17    9.998   .     S
Er16     Ce40    10.003   .     S
Er17     V18    10.0   .     S
V18     Ti34    10.002   .     S
Er19     V21    10.0   .     S
Er19     Er20    9.998   .     S
Er20     V21    10.0   .     S
Er20     Ce47    10.003   .     S
V21     Ti32    10.002   .     S
Er22     V24    10.0   .     S
Er22     Er23    9.998   .     S
Er23     V24    10.0   .     S
Er23     Ce39    10.003   .     S
V24     Ti33    10.002   .     S
Er25     V27    10.0   .     S
Er25     Er26    9.998   .     S
Er26     V27    10.0   .     S
Er26     Ce43    10.003   .     S
V27     Ti35    10.002   .     S
Er28     V30    10.0   .     S
Er28     Er29    9.998   .     S
Er29     V30    10.0   .     S
Er29     Ce48    10.003   .     S
V30     Ti31    10.002   .     S
Ti31     Ti32    10.001   .     S
Ti31     Ti33    10.001   .     S
Ti32     Ti36    10.001   .     S
Ti33     Ti34    10.001   .     S
Ti34     Ti35    10.001   .     S
Ti35     Ti36    10.001   .     S
Ce37     Ce38    9.995   .     S
Ce37     Ce40    9.998   .     S
Ce37     Ce39    9.999   .     S
Ce37     Er99    10.003   .     S
Ce38     Ce40    9.999   .     S
Ce38     Ce39    9.998   .     S
Ce38     Er92    10.003   .     S
Ce39     Ce40    9.995   .     S
Ce41     Ce42    9.995   .     S
Ce41     Ce43    9.999   .     S
Ce41     Ce44    9.998   .     S
Ce41     Er64    10.003   .     S
Ce42     Ce43    9.998   .     S
Ce42     Ce44    9.999   .     S
Ce42     Er60    10.003   .     S
Ce43     Ce44    9.995   .     S
Ce45     Ce46    9.995   .     S
Ce45     Ce48    9.998   .     S
Ce45     Ce47    9.999   .     S
Ce45     Er127    10.003   .     S
Ce46     Ce48    9.999   .     S
Ce46     Ce47    9.998   .     S
Ce46     Er117    10.003   .     S
Ce47     Ce48    9.995   .     S
Ce49     Ce50    9.995   1_554     S
Ce49     Ce51    9.998   .     S
Ce49     Ce52    9.999   1_554     S
Ce49     Er118    10.003   .     S
Ce50     Ce49    9.995   1_556     S
Ce50     Ce51    9.999   1_556     S
Ce50     Ce52    9.998   .     S
Ce50     Er129    10.003   .     S
Ce51     Ce50    9.999   1_554     S
Ce51     Ce52    9.995   1_554     S
Ce51     Er78    10.003   .     S
Ce52     Ce49    9.999   1_556     S
Ce52     Ce51    9.995   1_556     S
Ce52     Er63    10.003   .     S
Ce53     Ce54    9.995   1_455     S
Ce53     Ce55    9.998   .     S
Ce53     Ce56    9.999   1_455     S
Ce53     Er61    10.003   .     S
Ce54     Ce53    9.995   1_655     S
Ce54     Ce55    9.999   1_655     S
Ce54     Ce56    9.998   .     S
Ce54     Er70    10.003   .     S
Ce55     Ce54    9.999   1_455     S
Ce55     Ce56    9.995   1_455     S
Ce55     Er111    10.003   .     S
Ce56     Ce53    9.999   1_655     S
Ce56     Ce55    9.995   1_655     S
Ce56     Er98    10.003   .     S
Er57     V59    10.0   .     S
Er57     Er58    9.998   .     S
Er57     Ce142    10.003   .     S
Er58     V59    10.0   .     S
V59     Ti73    10.002   .     S
Er60     V62    10.0   .     S
Er60     Er61    9.998   .     S
Er61     V62    10.0   .     S
V62     Ti76    10.002   .     S
Er63     V65    10.0   .     S
Er63     Er64    9.998   .     S
Er64     V65    10.0   .     S
V65     Ti77    10.002   .     S
Er66     V68    10.0   .     S
Er66     Er67    9.998   .     S
Er67     V68    10.0   .     S
Er67     Ce82    10.003   .     S
V68     Ti74    10.002   .     S
Er69     V71    10.0   .     S
Er69     Er70    9.998   .     S
Er69     Ce141    10.003   .     S
Er70     V71    10.0   .     S
V71     Ti75    10.002   .     S
Ti72     Ti74    10.001   1_455     S
Ti72     Ti77    10.001   1_554     S
Ti72     V80    10.002   .     S
Ti73     Ti75    10.001   1_554     S
Ti73     Ti74    10.001   .     S
Ti74     Ti72    10.001   1_655     S
Ti75     Ti73    10.001   1_556     S
Ti75     Ti76    10.001   1_655     S
Ti76     Ti75    10.001   1_455     S
Ti76     Ti77    10.001   .     S
Ti77     Ti72    10.001   1_556     S
Er78     V80    10.0   .     S
Er78     Er79    9.998   .     S
Er79     V80    10.0   .     S
Er79     Ce81    10.003   .     S
Ce81     Ce82    9.995   1_455     S
Ce81     Ce84    9.999   1_455     S
Ce81     Ce83    9.998   .     S
Ce82     Ce81    9.995   1_655     S
Ce82     Ce83    9.999   1_655     S
Ce82     Ce84    9.998   .     S
Ce83     Ce82    9.999   1_455     S
Ce83     Ce84    9.995   1_455     S
Ce83     Er89    10.003   .     S
Ce84     Ce81    9.999   1_655     S
Ce84     Ce83    9.995   1_655     S
Ce84     Er101    10.003   .     S
Ce85     Ce86    9.995   1_545     S
Ce85     Ce88    9.999   1_545     S
Ce85     Ce87    9.998   .     S
Ce85     Er139    10.003   .     S
Ce86     Ce85    9.995   1_565     S
Ce86     Ce87    9.999   1_565     S
Ce86     Ce88    9.998   .     S
Ce86     Er126    10.003   .     S
Ce87     Ce86    9.999   1_545     S
Ce87     Ce88    9.995   1_545     S
Ce87     Er93    10.003   .     S
Ce88     Ce85    9.999   1_565     S
Ce88     Ce87    9.995   1_565     S
Ce88     Er102    10.003   .     S
Er89     V91    10.0   .     S
Er89     Er90    9.998   .     S
Er90     V91    10.0   .     S
V91     Ti106    10.002   .     S
Er92     V94    10.0   .     S
Er92     Er93    9.998   .     S
Er93     V94    10.0   .     S
V94     Ti107    10.002   .     S
Er95     V97    10.0   .     S
Er95     Er96    9.998   .     S
Er96     V97    10.0   .     S
Er96     Ce116    10.003   .     S
V97     Ti105    10.002   .     S
Er98     V100    10.0   .     S
Er98     Er99    9.998   .     S
Er99     V100    10.0   .     S
V100     Ti108    10.002   .     S
Er101     V103    10.0   .     S
Er101     Er102    9.998   .     S
Er102     V103    10.0   .     S
V103     Ti109    10.002   .     S
Ti104     Ti105    10.001   1_545     S
Ti104     Ti108    10.001   1_455     S
Ti104     V112    10.002   .     S
Ti105     Ti104    10.001   1_565     S
Ti105     Ti106    10.001   .     S
Ti106     Ti109    10.001   1_455     S
Ti107     Ti108    10.001   .     S
Ti107     Ti109    10.001   1_545     S
Ti108     Ti104    10.001   1_655     S
Ti109     Ti106    10.001   1_655     S
Ti109     Ti107    10.001   1_565     S
Er110     V112    10.0   .     S
Er110     Er111    9.998   .     S
Er110     Ce115    10.003   .     S
Er111     V112    10.0   .     S
Ce113     Ce114    9.995   1_545     S
Ce113     Ce115    9.998   .     S
Ce113     Ce116    9.999   1_545     S
Ce113     Er120    10.003   .     S
Ce114     Ce113    9.995   1_565     S
Ce114     Ce115    9.999   1_565     S
Ce114     Ce116    9.998   .     S
Ce114     Er130    10.003   .     S
Ce115     Ce114    9.999   1_545     S
Ce115     Ce116    9.995   1_545     S
Ce116     Ce113    9.999   1_565     S
Ce116     Ce115    9.995   1_565     S
Er117     V119    10.0   .     S
Er117     Er118    9.998   .     S
Er118     V119    10.0   .     S
V119     Ti133    10.002   .     S
Er120     V122    10.0   .     S
Er120     Er121    9.998   .     S
Er121     V122    10.0   .     S
V122     Ti136    10.002   .     S
Er123     V125    10.0   .     S
Er123     Er124    9.998   .     S
Er124     V125    10.0   .     S
Er124     Ce144    10.003   .     S
V125     Ti135    10.002   .     S
Er126     V128    10.0   .     S
Er126     Er127    9.998   .     S
Er127     V128    10.0   .     S
V128     Ti134    10.002   .     S
Er129     V131    10.0   .     S
Er129     Er130    9.998   .     S
Er130     V131    10.0   .     S
V131     Ti137    10.002   .     S
Ti132     Ti135    10.001   1_554     S
Ti132     Ti134    10.001   1_545     S
Ti132     V140    10.002   .     S
Ti133     Ti134    10.001   .     S
Ti133     Ti137    10.001   1_554     S
Ti134     Ti132    10.001   1_565     S
Ti135     Ti132    10.001   1_556     S
Ti135     Ti136    10.001   .     S
Ti136     Ti137    10.001   1_545     S
Ti137     Ti133    10.001   1_556     S
Ti137     Ti136    10.001   1_565     S
Er138     V140    10.0   .     S
Er138     Er139    9.998   .     S
Er138     Ce143    10.003   .     S
Er139     V140    10.0   .     S
Ce141     Ce142    9.995   1_556     S
Ce141     Ce143    9.999   1_556     S
Ce141     Ce144    9.998   .     S
Ce142     Ce141    9.995   1_554     S
Ce142     Ce144    9.999   1_554     S
Ce142     Ce143    9.998   .     S
Ce143     Ce141    9.999   1_554     S
Ce143     Ce144    9.995   1_554     S
Ce144     Ce142    9.999   1_556     S
Ce144     Ce143    9.995   1_556     S
