data_epna
_audit_creation_date              2020-02-04
_audit_creation_method            'Pymatgen'
_symmetry_space_group_name_H-M    'P1'
_symmetry_Int_Tables_number       1
loop_
_symmetry_equiv_pos_as_xyz
  x,y,z
_cell_length_a                    115.1652
_cell_length_b                    115.1652
_cell_length_c                    115.1652
_cell_angle_alpha                 90.0
_cell_angle_beta                 90.0
_cell_angle_gamma                 90.0
loop_
_atom_site_label
_atom_site_type_symbol
_atom_site_fract_x
_atom_site_fract_y
_atom_site_fract_z
Ce1     Ce     0.8029   0.8029   0.7415
Ce2     Ce     0.7415   0.8029   0.8029
Ce3     Ce     0.8029   0.7415   0.8029
Ce4     Ce     0.8029   0.7415   0.1971
Ce5     Ce     0.7415   0.8029   0.1971
Ce6     Ce     0.8029   0.8029   0.2585
Ce7     Ce     0.7415   0.1971   0.8029
Ce8     Ce     0.8029   0.1971   0.7415
Ce9     Ce     0.8029   0.2585   0.8029
Ce10     Ce     0.1971   0.7415   0.8029
Ce11     Ce     0.1971   0.8029   0.7415
Ce12     Ce     0.2585   0.8029   0.8029
Ce13     Ce     0.1971   0.7415   0.1971
Ce14     Ce     0.1971   0.8029   0.2585
Ce15     Ce     0.2585   0.8029   0.1971
Ti16     Ti     0.8378   0.4566   0.9566
Ti17     Ti     0.8378   0.4566   0.0434
Ti18     Ti     0.8378   0.5434   0.9566
Ti19     Ti     0.8378   0.5434   0.0434
Er20     Er     0.8989   0.3917   0.8375
Er21     Er     0.8375   0.3917   0.8989
V22     V     0.8379   0.3299   0.8379
Er23     Er     0.8989   0.6083   0.8375
Er24     Er     0.8375   0.6083   0.8989
V25     V     0.8379   0.6701   0.8379
Ti26     Ti     0.9566   0.4566   0.8378
Ti27     Ti     0.0434   0.4566   0.8378
Ti28     Ti     0.0434   0.5434   0.8378
Ti29     Ti     0.9566   0.5434   0.8378
Er30     Er     0.8989   0.6083   0.1625
Er31     Er     0.8375   0.6083   0.1011
V32     V     0.8379   0.6701   0.1621
Er33     Er     0.8989   0.3917   0.1625
Er34     Er     0.8375   0.3917   0.1011
V35     V     0.8379   0.3299   0.1621
Ti36     Ti     0.0434   0.5434   0.1621
Ti37     Ti     0.9566   0.5434   0.1621
Ti38     Ti     0.9566   0.4566   0.1621
Ti39     Ti     0.0434   0.4566   0.1621
Er40     Er     0.1625   0.6083   0.1011
Er41     Er     0.1011   0.6083   0.1625
V42     V     0.1621   0.6701   0.1621
Er43     Er     0.1625   0.3917   0.1011
Er44     Er     0.1011   0.3917   0.1625
V45     V     0.1621   0.3299   0.1621
Er46     Er     0.1625   0.3917   0.8989
Er47     Er     0.1011   0.3917   0.8375
V48     V     0.1621   0.3299   0.8379
Er49     Er     0.1625   0.6083   0.8989
Er50     Er     0.1011   0.6083   0.8375
V51     V     0.1621   0.6701   0.8379
Ti52     Ti     0.1621   0.4566   0.9566
Ti53     Ti     0.1621   0.4566   0.0434
Ti54     Ti     0.1621   0.5434   0.0434
Ti55     Ti     0.1621   0.5434   0.9566
Ce56     Ce     0.7415   0.1971   0.1971
Ce57     Ce     0.8029   0.1971   0.2585
Ce58     Ce     0.8029   0.2585   0.1971
Er59     Er     0.3917   0.1625   0.8989
Er60     Er     0.3917   0.1011   0.8375
V61     V     0.3299   0.1621   0.8379
Er62     Er     0.6083   0.1625   0.8989
Er63     Er     0.6083   0.1011   0.8375
V64     V     0.6701   0.1621   0.8379
Ti65     Ti     0.5434   0.1621   0.9566
Ti66     Ti     0.5434   0.1621   0.0434
Ti67     Ti     0.4566   0.1621   0.9566
Ti68     Ti     0.4566   0.1621   0.0434
Ti69     Ti     0.4566   0.9566   0.8378
Ti70     Ti     0.4566   0.0434   0.8378
Ti71     Ti     0.5434   0.9566   0.8378
Ti72     Ti     0.5434   0.0434   0.8378
Er73     Er     0.3917   0.8375   0.8989
Er74     Er     0.3917   0.8989   0.8375
V75     V     0.3299   0.8379   0.8379
Er76     Er     0.6083   0.8375   0.8989
Er77     Er     0.6083   0.8989   0.8375
V78     V     0.6701   0.8379   0.8379
Ti79     Ti     0.4566   0.8378   0.9566
Ti80     Ti     0.4566   0.8378   0.0434
Ti81     Ti     0.5434   0.8378   0.9566
Ti82     Ti     0.5434   0.8378   0.0434
Er83     Er     0.6083   0.1011   0.1625
Er84     Er     0.6083   0.1625   0.1011
V85     V     0.6701   0.1621   0.1621
Er86     Er     0.3917   0.1011   0.1625
Er87     Er     0.3917   0.1625   0.1011
V88     V     0.3299   0.1621   0.1621
Er89     Er     0.3917   0.8989   0.1625
Er90     Er     0.3917   0.8375   0.1011
V91     V     0.3299   0.8379   0.1621
Er92     Er     0.6083   0.8989   0.1625
Er93     Er     0.6083   0.8375   0.1011
V94     V     0.6701   0.8379   0.1621
Ti95     Ti     0.4566   0.9566   0.1621
Ti96     Ti     0.4566   0.0434   0.1621
Ti97     Ti     0.5434   0.0434   0.1621
Ti98     Ti     0.5434   0.9566   0.1621
Ce99     Ce     0.1971   0.1971   0.7415
Ce100     Ce     0.1971   0.2585   0.8029
Ce101     Ce     0.2585   0.1971   0.8029
Er102     Er     0.1625   0.8989   0.3917
Er103     Er     0.1011   0.8375   0.3917
V104     V     0.1621   0.8379   0.3299
Er105     Er     0.1625   0.8989   0.6083
Er106     Er     0.1011   0.8375   0.6083
V107     V     0.1621   0.8379   0.6701
Ti108     Ti     0.1621   0.9566   0.5434
Ti109     Ti     0.1621   0.0434   0.5434
Ti110     Ti     0.1621   0.9566   0.4566
Ti111     Ti     0.1621   0.0434   0.4566
Ti112     Ti     0.9566   0.8378   0.4566
Ti113     Ti     0.0434   0.8378   0.4566
Ti114     Ti     0.9566   0.8378   0.5434
Ti115     Ti     0.0434   0.8378   0.5434
Er116     Er     0.8375   0.8989   0.3917
Er117     Er     0.8989   0.8375   0.3917
V118     V     0.8379   0.8379   0.3299
Er119     Er     0.8375   0.8989   0.6083
Er120     Er     0.8989   0.8375   0.6083
V121     V     0.8379   0.8379   0.6701
Ti122     Ti     0.8378   0.9566   0.4566
Ti123     Ti     0.8378   0.0434   0.4566
Ti124     Ti     0.8378   0.0434   0.5434
Ti125     Ti     0.8378   0.9566   0.5434
Er126     Er     0.1011   0.1625   0.6083
Er127     Er     0.1625   0.1011   0.6083
V128     V     0.1621   0.1621   0.6701
Er129     Er     0.1011   0.1625   0.3917
Er130     Er     0.1625   0.1011   0.3917
V131     V     0.1621   0.1621   0.3299
Er132     Er     0.8989   0.1625   0.3917
Er133     Er     0.8375   0.1011   0.3917
V134     V     0.8379   0.1621   0.3299
Er135     Er     0.8989   0.1625   0.6083
Er136     Er     0.8375   0.1011   0.6083
V137     V     0.8379   0.1621   0.6701
Ti138     Ti     0.9566   0.1621   0.4566
Ti139     Ti     0.0434   0.1621   0.4566
Ti140     Ti     0.0434   0.1621   0.5434
Ti141     Ti     0.9566   0.1621   0.5434
Ce142     Ce     0.1971   0.1971   0.2585
Ce143     Ce     0.1971   0.2585   0.1971
Ce144     Ce     0.2585   0.1971   0.1971
loop_
_geom_bond_atom_site_label_1
_geom_bond_atom_site_label_2
_geom_bond_distance
_geom_bond_site_symmetry_2
_ccdc_geom_bond_type
Ce1     Ce2    10.002   .     S
Ce1     Ce3    10.002   .     S
Ce1     V121    10.003   .     S
Ce2     Ce3    10.002   .     S
Ce2     V78    10.003   .     S
Ce3     V25    10.003   .     S
Ce4     Ce6    10.002   .     S
Ce4     Ce5    10.002   .     S
Ce4     V32    10.003   .     S
Ce5     Ce6    10.002   .     S
Ce5     V94    10.003   .     S
Ce6     V118    10.003   .     S
Ce7     Ce9    10.002   .     S
Ce7     Ce8    10.002   .     S
Ce7     V64    10.003   .     S
Ce8     Ce9    10.002   .     S
Ce8     V137    10.003   .     S
Ce9     V22    10.003   .     S
Ce10     Ce12    10.002   .     S
Ce10     Ce11    10.002   .     S
Ce10     V51    10.003   .     S
Ce11     Ce12    10.002   .     S
Ce11     V107    10.003   .     S
Ce12     V75    10.003   .     S
Ce13     Ce14    10.002   .     S
Ce13     Ce15    10.002   .     S
Ce13     V42    10.003   .     S
Ce14     Ce15    10.002   .     S
Ce14     V104    10.003   .     S
Ce15     V91    10.003   .     S
Ti16     Ti17    9.999   1_556     S
Ti16     Ti18    9.999   .     S
Ti16     Er21    10.001   .     S
Ti17     Ti16    9.999   1_554     S
Ti17     Ti19    9.999   .     S
Ti17     Er34    10.001   .     S
Ti18     Ti19    9.999   1_556     S
Ti18     Er24    10.001   .     S
Ti19     Ti18    9.999   1_554     S
Ti19     Er31    10.001   .     S
Er20     V22    10.0   .     S
Er20     Er21    9.997   .     S
Er20     Ti26    10.001   .     S
Er21     V22    10.0   .     S
Er23     V25    10.0   .     S
Er23     Er24    9.997   .     S
Er23     Ti29    10.001   .     S
Er24     V25    10.0   .     S
Ti26     Ti27    9.999   1_655     S
Ti26     Ti29    9.999   .     S
Ti27     Ti26    9.999   1_455     S
Ti27     Ti28    9.999   .     S
Ti27     Er47    10.001   .     S
Ti28     Ti29    9.999   1_455     S
Ti28     Er50    10.001   .     S
Ti29     Ti28    9.999   1_655     S
Er30     V32    10.0   .     S
Er30     Er31    9.997   .     S
Er30     Ti37    10.001   .     S
Er31     V32    10.0   .     S
Er33     V35    10.0   .     S
Er33     Er34    9.997   .     S
Er33     Ti38    10.001   .     S
Er34     V35    10.0   .     S
V35     Ce58    10.003   .     S
Ti36     Ti39    9.999   .     S
Ti36     Ti37    9.999   1_455     S
Ti36     Er41    10.001   .     S
Ti37     Ti36    9.999   1_655     S
Ti37     Ti38    9.999   .     S
Ti38     Ti39    9.999   1_655     S
Ti39     Ti38    9.999   1_455     S
Ti39     Er44    10.001   .     S
Er40     V42    10.0   .     S
Er40     Er41    9.997   .     S
Er40     Ti54    10.001   .     S
Er41     V42    10.0   .     S
Er43     V45    10.0   .     S
Er43     Er44    9.997   .     S
Er43     Ti53    10.001   .     S
Er44     V45    10.0   .     S
V45     Ce143    10.003   .     S
Er46     V48    10.0   .     S
Er46     Er47    9.997   .     S
Er46     Ti52    10.001   .     S
Er47     V48    10.0   .     S
V48     Ce100    10.003   .     S
Er49     V51    10.0   .     S
Er49     Er50    9.997   .     S
Er49     Ti55    10.001   .     S
Er50     V51    10.0   .     S
Ti52     Ti53    9.999   1_556     S
Ti52     Ti55    9.999   .     S
Ti53     Ti52    9.999   1_554     S
Ti53     Ti54    9.999   .     S
Ti54     Ti55    9.999   1_554     S
Ti55     Ti54    9.999   1_556     S
Ce56     Ce57    10.002   .     S
Ce56     Ce58    10.002   .     S
Ce56     V85    10.003   .     S
Ce57     Ce58    10.002   .     S
Ce57     V134    10.003   .     S
Er59     V61    10.0   .     S
Er59     Er60    9.997   .     S
Er59     Ti67    10.001   .     S
Er60     V61    10.0   .     S
Er60     Ti70    10.001   .     S
V61     Ce101    10.003   .     S
Er62     V64    10.0   .     S
Er62     Er63    9.997   .     S
Er62     Ti65    10.001   .     S
Er63     V64    10.0   .     S
Er63     Ti72    10.001   .     S
Ti65     Ti67    9.999   .     S
Ti65     Ti66    9.999   1_556     S
Ti66     Ti65    9.999   1_554     S
Ti66     Ti68    9.999   .     S
Ti66     Er84    10.001   .     S
Ti67     Ti68    9.999   1_556     S
Ti68     Ti67    9.999   1_554     S
Ti68     Er87    10.001   .     S
Ti69     Ti70    9.999   1_565     S
Ti69     Ti71    9.999   .     S
Ti69     Er74    10.001   .     S
Ti70     Ti69    9.999   1_545     S
Ti70     Ti72    9.999   .     S
Ti71     Ti72    9.999   1_565     S
Ti71     Er77    10.001   .     S
Ti72     Ti71    9.999   1_545     S
Er73     V75    10.0   .     S
Er73     Er74    9.997   .     S
Er73     Ti79    10.001   .     S
Er74     V75    10.0   .     S
Er76     V78    10.0   .     S
Er76     Er77    9.997   .     S
Er76     Ti81    10.001   .     S
Er77     V78    10.0   .     S
Ti79     Ti80    9.999   1_556     S
Ti79     Ti81    9.999   .     S
Ti80     Ti79    9.999   1_554     S
Ti80     Ti82    9.999   .     S
Ti80     Er90    10.001   .     S
Ti81     Ti82    9.999   1_556     S
Ti82     Ti81    9.999   1_554     S
Ti82     Er93    10.001   .     S
Er83     V85    10.0   .     S
Er83     Er84    9.997   .     S
Er83     Ti97    10.001   .     S
Er84     V85    10.0   .     S
Er86     V88    10.0   .     S
Er86     Er87    9.997   .     S
Er86     Ti96    10.001   .     S
Er87     V88    10.0   .     S
V88     Ce144    10.003   .     S
Er89     V91    10.0   .     S
Er89     Er90    9.997   .     S
Er89     Ti95    10.001   .     S
Er90     V91    10.0   .     S
Er92     V94    10.0   .     S
Er92     Er93    9.997   .     S
Er92     Ti98    10.001   .     S
Er93     V94    10.0   .     S
Ti95     Ti96    9.999   1_565     S
Ti95     Ti98    9.999   .     S
Ti96     Ti95    9.999   1_545     S
Ti96     Ti97    9.999   .     S
Ti97     Ti98    9.999   1_545     S
Ti98     Ti97    9.999   1_565     S
Ce99     Ce101    10.002   .     S
Ce99     Ce100    10.002   .     S
Ce99     V128    10.003   .     S
Ce100     Ce101    10.002   .     S
Er102     V104    10.0   .     S
Er102     Er103    9.997   .     S
Er102     Ti110    10.001   .     S
Er103     V104    10.0   .     S
Er103     Ti113    10.001   .     S
Er105     V107    10.0   .     S
Er105     Er106    9.997   .     S
Er105     Ti108    10.001   .     S
Er106     V107    10.0   .     S
Er106     Ti115    10.001   .     S
Ti108     Ti110    9.999   .     S
Ti108     Ti109    9.999   1_565     S
Ti109     Ti108    9.999   1_545     S
Ti109     Ti111    9.999   .     S
Ti109     Er127    10.001   .     S
Ti110     Ti111    9.999   1_565     S
Ti111     Ti110    9.999   1_545     S
Ti111     Er130    10.001   .     S
Ti112     Ti113    9.999   1_655     S
Ti112     Ti114    9.999   .     S
Ti112     Er117    10.001   .     S
Ti113     Ti112    9.999   1_455     S
Ti113     Ti115    9.999   .     S
Ti114     Ti115    9.999   1_655     S
Ti114     Er120    10.001   .     S
Ti115     Ti114    9.999   1_455     S
Er116     V118    10.0   .     S
Er116     Er117    9.997   .     S
Er116     Ti122    10.001   .     S
Er117     V118    10.0   .     S
Er119     V121    10.0   .     S
Er119     Er120    9.997   .     S
Er119     Ti125    10.001   .     S
Er120     V121    10.0   .     S
Ti122     Ti123    9.999   1_565     S
Ti122     Ti125    9.999   .     S
Ti123     Ti122    9.999   1_545     S
Ti123     Ti124    9.999   .     S
Ti123     Er133    10.001   .     S
Ti124     Ti125    9.999   1_545     S
Ti124     Er136    10.001   .     S
Ti125     Ti124    9.999   1_565     S
Er126     V128    10.0   .     S
Er126     Er127    9.997   .     S
Er126     Ti140    10.001   .     S
Er127     V128    10.0   .     S
Er129     V131    10.0   .     S
Er129     Er130    9.997   .     S
Er129     Ti139    10.001   .     S
Er130     V131    10.0   .     S
V131     Ce142    10.003   .     S
Er132     V134    10.0   .     S
Er132     Er133    9.997   .     S
Er132     Ti138    10.001   .     S
Er133     V134    10.0   .     S
Er135     V137    10.0   .     S
Er135     Er136    9.997   .     S
Er135     Ti141    10.001   .     S
Er136     V137    10.0   .     S
Ti138     Ti139    9.999   1_655     S
Ti138     Ti141    9.999   .     S
Ti139     Ti138    9.999   1_455     S
Ti139     Ti140    9.999   .     S
Ti140     Ti141    9.999   1_455     S
Ti141     Ti140    9.999   1_655     S
Ce142     Ce143    10.002   .     S
Ce142     Ce144    10.002   .     S
Ce143     Ce144    10.002   .     S
