data_epp
_audit_creation_date              2020-02-04
_audit_creation_method            'Pymatgen'
_symmetry_space_group_name_H-M    'P1'
_symmetry_Int_Tables_number       1
loop_
_symmetry_equiv_pos_as_xyz
  x,y,z
_cell_length_a                    62.9273
_cell_length_b                    62.9273
_cell_length_c                    62.9273
_cell_angle_alpha                 90.0
_cell_angle_beta                 90.0
_cell_angle_gamma                 90.0
loop_
_atom_site_label
_atom_site_type_symbol
_atom_site_fract_x
_atom_site_fract_y
_atom_site_fract_z
V1     V     0.1939   0.1939   0.5
V2     V     0.1939   0.5   0.1939
V3     V     0.5   0.1939   0.1939
V4     V     0.1939   0.8061   0.5
V5     V     0.8061   0.1939   0.5
V6     V     0.8061   0.8061   0.5
V7     V     0.5   0.1939   0.8061
V8     V     0.1939   0.5   0.8061
V9     V     0.5   0.8061   0.1939
V10     V     0.8061   0.5   0.1939
V11     V     0.8061   0.5   0.8061
V12     V     0.5   0.8061   0.8061
Er13     Er     0.6377   0.75   0.8623
Er14     Er     0.75   0.6377   0.8623
Er15     Er     0.8623   0.6377   0.75
Er16     Er     0.8623   0.75   0.6377
Er17     Er     0.75   0.8623   0.6377
Er18     Er     0.6377   0.8623   0.75
Ti19     Ti     0.75   0.75   0.75
V20     V     0.6939   0.6939   0.0
V21     V     0.6939   0.0   0.6939
V22     V     0.0   0.6939   0.6939
Er23     Er     0.75   0.3623   0.8623
Er24     Er     0.6377   0.25   0.8623
Er25     Er     0.8623   0.3623   0.75
Er26     Er     0.8623   0.25   0.6377
Er27     Er     0.75   0.1377   0.6377
Er28     Er     0.6377   0.1377   0.75
Ti29     Ti     0.75   0.25   0.75
Er30     Er     0.3623   0.75   0.8623
Er31     Er     0.25   0.6377   0.8623
Er32     Er     0.3623   0.8623   0.75
Er33     Er     0.25   0.8623   0.6377
Er34     Er     0.1377   0.6377   0.75
Er35     Er     0.1377   0.75   0.6377
Ti36     Ti     0.25   0.75   0.75
V37     V     0.3061   0.0   0.6939
Er38     Er     0.3623   0.25   0.8623
Er39     Er     0.25   0.3623   0.8623
Er40     Er     0.25   0.1377   0.6377
Er41     Er     0.3623   0.1377   0.75
Er42     Er     0.1377   0.25   0.6377
Er43     Er     0.1377   0.3623   0.75
Ti44     Ti     0.25   0.25   0.75
V45     V     0.0   0.3061   0.6939
V46     V     0.3061   0.3061   0.0
V47     V     0.3061   0.0   0.3061
Er48     Er     0.25   0.3623   0.1377
Er49     Er     0.3623   0.25   0.1377
Er50     Er     0.3623   0.1377   0.25
Er51     Er     0.25   0.1377   0.3623
Er52     Er     0.1377   0.25   0.3623
Er53     Er     0.1377   0.3623   0.25
Ti54     Ti     0.25   0.25   0.25
V55     V     0.0   0.3061   0.3061
V56     V     0.6939   0.3061   0.0
Er57     Er     0.8623   0.3623   0.25
Er58     Er     0.8623   0.25   0.3623
Er59     Er     0.6377   0.25   0.1377
Er60     Er     0.75   0.3623   0.1377
Er61     Er     0.6377   0.1377   0.25
Er62     Er     0.75   0.1377   0.3623
Ti63     Ti     0.75   0.25   0.25
V64     V     0.6939   0.0   0.3061
Er65     Er     0.75   0.8623   0.3623
Er66     Er     0.6377   0.8623   0.25
Er67     Er     0.8623   0.75   0.3623
Er68     Er     0.8623   0.6377   0.25
Er69     Er     0.6377   0.75   0.1377
Er70     Er     0.75   0.6377   0.1377
Ti71     Ti     0.75   0.75   0.25
V72     V     0.0   0.6939   0.3061
Er73     Er     0.25   0.8623   0.3623
Er74     Er     0.3623   0.8623   0.25
Er75     Er     0.25   0.6377   0.1377
Er76     Er     0.1377   0.6377   0.25
Er77     Er     0.1377   0.75   0.3623
Er78     Er     0.3623   0.75   0.1377
Ti79     Ti     0.25   0.75   0.25
V80     V     0.3061   0.6939   0.0
loop_
_geom_bond_atom_site_label_1
_geom_bond_atom_site_label_2
_geom_bond_distance
_geom_bond_site_symmetry_2
_ccdc_geom_bond_type
V1     Er52    10.002   .     S
V1     Er51    10.002   .     S
V1     Er40    10.002   .     S
V1     Er42    10.002   .     S
V2     Er48    10.002   .     S
V2     Er53    10.002   .     S
V2     Er76    10.002   .     S
V2     Er75    10.002   .     S
V3     Er50    10.002   .     S
V3     Er49    10.002   .     S
V3     Er59    10.002   .     S
V3     Er61    10.002   .     S
V4     Er73    10.002   .     S
V4     Er77    10.002   .     S
V4     Er35    10.002   .     S
V4     Er33    10.002   .     S
V5     Er62    10.002   .     S
V5     Er58    10.002   .     S
V5     Er26    10.002   .     S
V5     Er27    10.002   .     S
V6     Er67    10.002   .     S
V6     Er65    10.002   .     S
V6     Er17    10.002   .     S
V6     Er16    10.002   .     S
V7     Er38    10.002   .     S
V7     Er41    10.002   .     S
V7     Er28    10.002   .     S
V7     Er24    10.002   .     S
V8     Er43    10.002   .     S
V8     Er39    10.002   .     S
V8     Er31    10.002   .     S
V8     Er34    10.002   .     S
V9     Er78    10.002   .     S
V9     Er74    10.002   .     S
V9     Er66    10.002   .     S
V9     Er69    10.002   .     S
V10     Er57    10.002   .     S
V10     Er60    10.002   .     S
V10     Er70    10.002   .     S
V10     Er68    10.002   .     S
V11     Er23    10.002   .     S
V11     Er25    10.002   .     S
V11     Er15    10.002   .     S
V11     Er14    10.002   .     S
V12     Er32    10.002   .     S
V12     Er30    10.002   .     S
V12     Er13    10.002   .     S
V12     Er18    10.002   .     S
Er13     Ti19    9.997   .     S
Er13     V20    10.002   1_556     S
Er14     Ti19    9.997   .     S
Er14     V20    10.002   1_556     S
Er15     Ti19    9.997   .     S
Er15     V22    10.002   1_655     S
Er16     Ti19    9.997   .     S
Er16     V22    10.002   1_655     S
Er17     Ti19    9.997   .     S
Er17     V21    10.002   1_565     S
Er18     Ti19    9.997   .     S
Er18     V21    10.002   1_565     S
V20     Er70    10.002   .     S
V20     Er69    10.002   .     S
V20     Er13    10.002   1_554     S
V20     Er14    10.002   1_554     S
V21     Er28    10.002   .     S
V21     Er27    10.002   .     S
V21     Er17    10.002   1_545     S
V21     Er18    10.002   1_545     S
V22     Er35    10.002   .     S
V22     Er34    10.002   .     S
V22     Er15    10.002   1_455     S
V22     Er16    10.002   1_455     S
Er23     Ti29    9.997   .     S
Er23     V56    10.002   1_556     S
Er24     Ti29    9.997   .     S
Er24     V56    10.002   1_556     S
Er25     Ti29    9.997   .     S
Er25     V45    10.002   1_655     S
Er26     Ti29    9.997   .     S
Er26     V45    10.002   1_655     S
Er27     Ti29    9.997   .     S
Er28     Ti29    9.997   .     S
Er30     Ti36    9.997   .     S
Er30     V80    10.002   1_556     S
Er31     Ti36    9.997   .     S
Er31     V80    10.002   1_556     S
Er32     Ti36    9.997   .     S
Er32     V37    10.002   1_565     S
Er33     Ti36    9.997   .     S
Er33     V37    10.002   1_565     S
Er34     Ti36    9.997   .     S
Er35     Ti36    9.997   .     S
V37     Er40    10.002   .     S
V37     Er41    10.002   .     S
V37     Er32    10.002   1_545     S
V37     Er33    10.002   1_545     S
Er38     Ti44    9.997   .     S
Er38     V46    10.002   1_556     S
Er39     Ti44    9.997   .     S
Er39     V46    10.002   1_556     S
Er40     Ti44    9.997   .     S
Er41     Ti44    9.997   .     S
Er42     Ti44    9.997   .     S
Er42     V45    10.002   .     S
Er43     Ti44    9.997   .     S
Er43     V45    10.002   .     S
V45     Er26    10.002   1_455     S
V45     Er25    10.002   1_455     S
V46     Er48    10.002   .     S
V46     Er49    10.002   .     S
V46     Er38    10.002   1_554     S
V46     Er39    10.002   1_554     S
V47     Er50    10.002   .     S
V47     Er51    10.002   .     S
V47     Er73    10.002   1_545     S
V47     Er74    10.002   1_545     S
Er48     Ti54    9.997   .     S
Er49     Ti54    9.997   .     S
Er50     Ti54    9.997   .     S
Er51     Ti54    9.997   .     S
Er52     Ti54    9.997   .     S
Er52     V55    10.002   .     S
Er53     Ti54    9.997   .     S
Er53     V55    10.002   .     S
V55     Er57    10.002   1_455     S
V55     Er58    10.002   1_455     S
V56     Er59    10.002   .     S
V56     Er60    10.002   .     S
V56     Er23    10.002   1_554     S
V56     Er24    10.002   1_554     S
Er57     V55    10.002   1_655     S
Er57     Ti63    9.997   .     S
Er58     V55    10.002   1_655     S
Er58     Ti63    9.997   .     S
Er59     Ti63    9.997   .     S
Er60     Ti63    9.997   .     S
Er61     Ti63    9.997   .     S
Er61     V64    10.002   .     S
Er62     Ti63    9.997   .     S
Er62     V64    10.002   .     S
V64     Er66    10.002   1_545     S
V64     Er65    10.002   1_545     S
Er65     V64    10.002   1_565     S
Er65     Ti71    9.997   .     S
Er66     V64    10.002   1_565     S
Er66     Ti71    9.997   .     S
Er67     Ti71    9.997   .     S
Er67     V72    10.002   1_655     S
Er68     Ti71    9.997   .     S
Er68     V72    10.002   1_655     S
Er69     Ti71    9.997   .     S
Er70     Ti71    9.997   .     S
V72     Er76    10.002   .     S
V72     Er77    10.002   .     S
V72     Er67    10.002   1_455     S
V72     Er68    10.002   1_455     S
Er73     V47    10.002   1_565     S
Er73     Ti79    9.997   .     S
Er74     V47    10.002   1_565     S
Er74     Ti79    9.997   .     S
Er75     Ti79    9.997   .     S
Er75     V80    10.002   .     S
Er76     Ti79    9.997   .     S
Er77     Ti79    9.997   .     S
Er78     Ti79    9.997   .     S
Er78     V80    10.002   .     S
V80     Er31    10.002   1_554     S
V80     Er30    10.002   1_554     S
