data_eppa
_audit_creation_date              2020-02-04
_audit_creation_method            'Pymatgen'
_symmetry_space_group_name_H-M    'P1'
_symmetry_Int_Tables_number       1
loop_
_symmetry_equiv_pos_as_xyz
  x,y,z
_cell_length_a                    147.106
_cell_length_b                    147.106
_cell_length_c                    147.106
_cell_angle_alpha                 90.0
_cell_angle_beta                 90.0
_cell_angle_gamma                 90.0
loop_
_atom_site_label
_atom_site_type_symbol
_atom_site_fract_x
_atom_site_fract_y
_atom_site_fract_z
V1     V     0.8658   0.7639   0.5903
V2     V     0.9097   0.7361   0.6342
Ti3     Ti     0.7981   0.75   0.7019
Er4     Er     0.8461   0.75   0.6539
V5     V     0.8658   0.5903   0.7639
V6     V     0.9097   0.6342   0.7361
Ti7     Ti     0.7981   0.7019   0.75
Er8     Er     0.8461   0.6539   0.75
V9     V     0.7639   0.8658   0.5903
V10     V     0.7361   0.9097   0.6342
Ti11     Ti     0.75   0.7981   0.7019
Er12     Er     0.75   0.8461   0.6539
V13     V     0.5903   0.8658   0.7639
V14     V     0.6342   0.9097   0.7361
Ti15     Ti     0.7019   0.7981   0.75
Er16     Er     0.6539   0.8461   0.75
V17     V     0.7639   0.5903   0.8658
V18     V     0.7361   0.6342   0.9097
Ti19     Ti     0.75   0.7019   0.7981
Er20     Er     0.75   0.6539   0.8461
V21     V     0.6342   0.7361   0.9097
V22     V     0.5903   0.7639   0.8658
Ti23     Ti     0.7019   0.75   0.7981
Er24     Er     0.6539   0.75   0.8461
Ce25     Ce     0.7905   0.8386   0.534
Ce26     Ce     0.7905   0.8386   0.466
Ce27     Ce     0.8386   0.7905   0.466
Ce28     Ce     0.8386   0.7905   0.534
Ce29     Ce     0.534   0.7905   0.8386
Ce30     Ce     0.466   0.7905   0.8386
Ce31     Ce     0.466   0.8386   0.7905
Ce32     Ce     0.534   0.8386   0.7905
Ce33     Ce     0.8386   0.466   0.7905
Ce34     Ce     0.8386   0.534   0.7905
Ce35     Ce     0.7905   0.466   0.8386
Ce36     Ce     0.7905   0.534   0.8386
Ce37     Ce     0.6614   0.7095   0.966
Ce38     Ce     0.6614   0.7095   0.034
Ce39     Ce     0.7095   0.6614   0.966
Ce40     Ce     0.7095   0.6614   0.034
Ce41     Ce     0.3386   0.2905   0.966
Ce42     Ce     0.3386   0.2905   0.034
Ce43     Ce     0.2905   0.3386   0.966
Ce44     Ce     0.2905   0.3386   0.034
Ce45     Ce     0.7095   0.966   0.6614
Ce46     Ce     0.7095   0.034   0.6614
Ce47     Ce     0.6614   0.966   0.7095
Ce48     Ce     0.6614   0.034   0.7095
Ce49     Ce     0.2905   0.966   0.3386
Ce50     Ce     0.2905   0.034   0.3386
Ce51     Ce     0.3386   0.966   0.2905
Ce52     Ce     0.3386   0.034   0.2905
Ce53     Ce     0.966   0.6614   0.7095
Ce54     Ce     0.034   0.6614   0.7095
Ce55     Ce     0.966   0.7095   0.6614
Ce56     Ce     0.034   0.7095   0.6614
Ce57     Ce     0.966   0.3386   0.2905
Ce58     Ce     0.034   0.3386   0.2905
Ce59     Ce     0.966   0.2905   0.3386
Ce60     Ce     0.034   0.2905   0.3386
V61     V     0.7639   0.8658   0.4097
V62     V     0.7361   0.9097   0.3658
Ti63     Ti     0.75   0.7981   0.2981
Er64     Er     0.75   0.8461   0.3461
V65     V     0.8658   0.7639   0.4097
V66     V     0.9097   0.7361   0.3658
Ti67     Ti     0.7981   0.75   0.2981
Er68     Er     0.8461   0.75   0.3461
V69     V     0.8658   0.5903   0.2361
V70     V     0.9097   0.6342   0.2639
Ti71     Ti     0.7981   0.7019   0.25
Er72     Er     0.8461   0.6539   0.25
V73     V     0.5903   0.8658   0.2361
V74     V     0.6342   0.9097   0.2639
Ti75     Ti     0.7019   0.7981   0.25
Er76     Er     0.6539   0.8461   0.25
V77     V     0.5903   0.7639   0.1342
Ti78     Ti     0.7019   0.75   0.2019
Er79     Er     0.6539   0.75   0.1539
V80     V     0.6342   0.7361   0.0903
V81     V     0.7639   0.5903   0.1342
Ti82     Ti     0.75   0.7019   0.2019
Er83     Er     0.75   0.6539   0.1539
V84     V     0.7361   0.6342   0.0903
Ce85     Ce     0.8386   0.534   0.2095
Ce86     Ce     0.8386   0.466   0.2095
Ce87     Ce     0.7905   0.466   0.1614
Ce88     Ce     0.7905   0.534   0.1614
Ce89     Ce     0.466   0.2095   0.8386
Ce90     Ce     0.534   0.2095   0.8386
Ce91     Ce     0.534   0.1614   0.7905
Ce92     Ce     0.466   0.1614   0.7905
Ce93     Ce     0.2095   0.534   0.8386
Ce94     Ce     0.2095   0.466   0.8386
Ce95     Ce     0.1614   0.466   0.7905
Ce96     Ce     0.1614   0.534   0.7905
Ce97     Ce     0.466   0.8386   0.2095
Ce98     Ce     0.534   0.8386   0.2095
Ce99     Ce     0.466   0.7905   0.1614
Ce100     Ce     0.534   0.7905   0.1614
V101     V     0.7639   0.4097   0.8658
V102     V     0.7361   0.3658   0.9097
Ti103     Ti     0.75   0.2981   0.7981
Er104     Er     0.75   0.3461   0.8461
V105     V     0.8658   0.4097   0.7639
V106     V     0.9097   0.3658   0.7361
Ti107     Ti     0.7981   0.2981   0.75
Er108     Er     0.8461   0.3461   0.75
V109     V     0.5903   0.2361   0.8658
V110     V     0.6342   0.2639   0.9097
Ti111     Ti     0.7019   0.25   0.7981
Er112     Er     0.6539   0.25   0.8461
V113     V     0.8658   0.2361   0.5903
V114     V     0.9097   0.2639   0.6342
Ti115     Ti     0.7981   0.25   0.7019
Er116     Er     0.8461   0.25   0.6539
V117     V     0.5903   0.1342   0.7639
Ti118     Ti     0.7019   0.2019   0.75
Er119     Er     0.6539   0.1539   0.75
V120     V     0.6342   0.0903   0.7361
V121     V     0.7639   0.1342   0.5903
Ti122     Ti     0.75   0.2019   0.7019
Er123     Er     0.75   0.1539   0.6539
V124     V     0.7361   0.0903   0.6342
V125     V     0.4097   0.7639   0.8658
V126     V     0.3658   0.7361   0.9097
Ti127     Ti     0.2981   0.75   0.7981
Er128     Er     0.3461   0.75   0.8461
V129     V     0.4097   0.8658   0.7639
V130     V     0.3658   0.9097   0.7361
Ti131     Ti     0.2981   0.7981   0.75
Er132     Er     0.3461   0.8461   0.75
V133     V     0.2361   0.8658   0.5903
V134     V     0.2639   0.9097   0.6342
Ti135     Ti     0.25   0.7981   0.7019
Er136     Er     0.25   0.8461   0.6539
V137     V     0.2361   0.5903   0.8658
V138     V     0.2639   0.6342   0.9097
Ti139     Ti     0.25   0.7019   0.7981
Er140     Er     0.25   0.6539   0.8461
V141     V     0.1342   0.5903   0.7639
Ti142     Ti     0.2019   0.7019   0.75
Er143     Er     0.1539   0.6539   0.75
V144     V     0.0903   0.6342   0.7361
V145     V     0.1342   0.7639   0.5903
Ti146     Ti     0.2019   0.75   0.7019
Er147     Er     0.1539   0.75   0.6539
V148     V     0.0903   0.7361   0.6342
Ce149     Ce     0.2095   0.8386   0.466
Ce150     Ce     0.2095   0.8386   0.534
Ce151     Ce     0.1614   0.7905   0.466
Ce152     Ce     0.1614   0.7905   0.534
Ce153     Ce     0.8386   0.2095   0.466
Ce154     Ce     0.8386   0.2095   0.534
Ce155     Ce     0.7905   0.1614   0.466
Ce156     Ce     0.7905   0.1614   0.534
Ce157     Ce     0.966   0.2905   0.6614
Ce158     Ce     0.034   0.2905   0.6614
Ce159     Ce     0.966   0.3386   0.7095
Ce160     Ce     0.034   0.3386   0.7095
Ce161     Ce     0.2905   0.966   0.6614
Ce162     Ce     0.2905   0.034   0.6614
Ce163     Ce     0.3386   0.966   0.7095
Ce164     Ce     0.3386   0.034   0.7095
Ti165     Ti     0.2019   0.2981   0.75
Er166     Er     0.1539   0.3461   0.75
V167     V     0.0903   0.3658   0.7361
V168     V     0.1342   0.4097   0.7639
V169     V     0.2361   0.4097   0.8658
V170     V     0.2639   0.3658   0.9097
Ti171     Ti     0.25   0.2981   0.7981
Er172     Er     0.25   0.3461   0.8461
V173     V     0.4097   0.2361   0.8658
V174     V     0.3658   0.2639   0.9097
Ti175     Ti     0.2981   0.25   0.7981
Er176     Er     0.3461   0.25   0.8461
Ti177     Ti     0.2981   0.2019   0.75
Er178     Er     0.3461   0.1539   0.75
V179     V     0.3658   0.0903   0.7361
V180     V     0.4097   0.1342   0.7639
V181     V     0.1342   0.2361   0.5903
Ti182     Ti     0.2019   0.25   0.7019
Er183     Er     0.1539   0.25   0.6539
V184     V     0.0903   0.2639   0.6342
V185     V     0.2361   0.1342   0.5903
Ti186     Ti     0.25   0.2019   0.7019
Er187     Er     0.25   0.1539   0.6539
V188     V     0.2639   0.0903   0.6342
Ce189     Ce     0.2905   0.6614   0.966
Ce190     Ce     0.2905   0.6614   0.034
Ce191     Ce     0.3386   0.7095   0.966
Ce192     Ce     0.3386   0.7095   0.034
Ce193     Ce     0.966   0.6614   0.2905
Ce194     Ce     0.034   0.6614   0.2905
Ce195     Ce     0.966   0.7095   0.3386
Ce196     Ce     0.034   0.7095   0.3386
Ti197     Ti     0.2981   0.75   0.2019
Er198     Er     0.3461   0.75   0.1539
V199     V     0.3658   0.7361   0.0903
V200     V     0.4097   0.7639   0.1342
V201     V     0.4097   0.8658   0.2361
V202     V     0.3658   0.9097   0.2639
Ti203     Ti     0.2981   0.7981   0.25
Er204     Er     0.3461   0.8461   0.25
V205     V     0.2361   0.8658   0.4097
V206     V     0.2639   0.9097   0.3658
Ti207     Ti     0.25   0.7981   0.2981
Er208     Er     0.25   0.8461   0.3461
Ti209     Ti     0.2019   0.75   0.2981
Er210     Er     0.1539   0.75   0.3461
V211     V     0.0903   0.7361   0.3658
V212     V     0.1342   0.7639   0.4097
V213     V     0.2361   0.5903   0.1342
Ti214     Ti     0.25   0.7019   0.2019
Er215     Er     0.25   0.6539   0.1539
V216     V     0.2639   0.6342   0.0903
V217     V     0.1342   0.5903   0.2361
Ti218     Ti     0.2019   0.7019   0.25
Er219     Er     0.1539   0.6539   0.25
V220     V     0.0903   0.6342   0.2639
Ce221     Ce     0.6614   0.966   0.2905
Ce222     Ce     0.6614   0.034   0.2905
Ce223     Ce     0.7095   0.966   0.3386
Ce224     Ce     0.7095   0.034   0.3386
Ce225     Ce     0.6614   0.2905   0.966
Ce226     Ce     0.6614   0.2905   0.034
Ce227     Ce     0.7095   0.3386   0.966
Ce228     Ce     0.7095   0.3386   0.034
Ti229     Ti     0.75   0.2981   0.2019
Er230     Er     0.75   0.3461   0.1539
V231     V     0.7361   0.3658   0.0903
V232     V     0.7639   0.4097   0.1342
V233     V     0.8658   0.4097   0.2361
V234     V     0.9097   0.3658   0.2639
Ti235     Ti     0.7981   0.2981   0.25
Er236     Er     0.8461   0.3461   0.25
V237     V     0.8658   0.2361   0.4097
V238     V     0.9097   0.2639   0.3658
Ti239     Ti     0.7981   0.25   0.2981
Er240     Er     0.8461   0.25   0.3461
Ti241     Ti     0.75   0.2019   0.2981
Er242     Er     0.75   0.1539   0.3461
V243     V     0.7361   0.0903   0.3658
V244     V     0.7639   0.1342   0.4097
V245     V     0.5903   0.1342   0.2361
Ti246     Ti     0.7019   0.2019   0.25
Er247     Er     0.6539   0.1539   0.25
V248     V     0.6342   0.0903   0.2639
V249     V     0.5903   0.2361   0.1342
Ti250     Ti     0.7019   0.25   0.2019
Er251     Er     0.6539   0.25   0.1539
V252     V     0.6342   0.2639   0.0903
Ce253     Ce     0.2095   0.1614   0.466
Ce254     Ce     0.2095   0.1614   0.534
Ce255     Ce     0.1614   0.2095   0.466
Ce256     Ce     0.1614   0.2095   0.534
Ce257     Ce     0.534   0.2095   0.1614
Ce258     Ce     0.466   0.2095   0.1614
Ce259     Ce     0.466   0.1614   0.2095
Ce260     Ce     0.534   0.1614   0.2095
Ce261     Ce     0.1614   0.466   0.2095
Ce262     Ce     0.1614   0.534   0.2095
Ce263     Ce     0.2095   0.466   0.1614
Ce264     Ce     0.2095   0.534   0.1614
Ti265     Ti     0.25   0.2019   0.2981
Er266     Er     0.25   0.1539   0.3461
V267     V     0.2639   0.0903   0.3658
V268     V     0.2361   0.1342   0.4097
Ti269     Ti     0.2981   0.2019   0.25
Er270     Er     0.3461   0.1539   0.25
V271     V     0.3658   0.0903   0.2639
V272     V     0.4097   0.1342   0.2361
Ti273     Ti     0.2981   0.25   0.2019
Er274     Er     0.3461   0.25   0.1539
V275     V     0.3658   0.2639   0.0903
V276     V     0.4097   0.2361   0.1342
Ti277     Ti     0.25   0.2981   0.2019
Er278     Er     0.25   0.3461   0.1539
V279     V     0.2639   0.3658   0.0903
V280     V     0.2361   0.4097   0.1342
Ti281     Ti     0.2019   0.2981   0.25
Er282     Er     0.1539   0.3461   0.25
V283     V     0.0903   0.3658   0.2639
V284     V     0.1342   0.4097   0.2361
Er285     Er     0.1539   0.25   0.3461
Ti286     Ti     0.2019   0.25   0.2981
V287     V     0.0903   0.2639   0.3658
V288     V     0.1342   0.2361   0.4097
loop_
_geom_bond_atom_site_label_1
_geom_bond_atom_site_label_2
_geom_bond_distance
_geom_bond_site_symmetry_2
_ccdc_geom_bond_type
V1     Er4    9.999   .     S
V1     V2    10.0   .     S
V1     Ce28    10.002   .     S
V2     Er4    9.999   .     S
V2     Ce55    10.002   .     S
Ti3     Er4    9.998   .     S
Ti3     Ti7    10.0   .     S
Ti3     Ti11    10.0   .     S
V5     Er8    9.999   .     S
V5     V6    10.0   .     S
V5     Ce34    10.002   .     S
V6     Er8    9.999   .     S
V6     Ce53    10.002   .     S
Ti7     Er8    9.998   .     S
Ti7     Ti19    10.0   .     S
V9     Er12    9.999   .     S
V9     V10    10.0   .     S
V9     Ce25    10.002   .     S
V10     Er12    9.999   .     S
V10     Ce45    10.002   .     S
Ti11     Er12    9.998   .     S
Ti11     Ti15    10.0   .     S
V13     Er16    9.999   .     S
V13     V14    10.0   .     S
V13     Ce32    10.002   .     S
V14     Er16    9.999   .     S
V14     Ce47    10.002   .     S
Ti15     Er16    9.998   .     S
Ti15     Ti23    10.0   .     S
V17     Er20    9.999   .     S
V17     V18    10.0   .     S
V17     Ce36    10.002   .     S
V18     Er20    9.999   .     S
V18     Ce39    10.002   .     S
Ti19     Er20    9.998   .     S
Ti19     Ti23    10.0   .     S
V21     Er24    9.999   .     S
V21     V22    10.0   .     S
V21     Ce37    10.002   .     S
V22     Er24    9.999   .     S
V22     Ce29    10.002   .     S
Ti23     Er24    9.998   .     S
Ce25     Ce26    10.0   .     S
Ce25     Ce28    10.0   .     S
Ce26     Ce27    10.0   .     S
Ce26     V61    10.002   .     S
Ce27     Ce28    10.0   .     S
Ce27     V65    10.002   .     S
Ce29     Ce30    10.0   .     S
Ce29     Ce32    10.0   .     S
Ce30     Ce31    10.0   .     S
Ce30     V125    10.002   .     S
Ce31     Ce32    10.0   .     S
Ce31     V129    10.002   .     S
Ce33     Ce34    10.0   .     S
Ce33     Ce35    10.0   .     S
Ce33     V105    10.002   .     S
Ce34     Ce36    10.0   .     S
Ce35     Ce36    10.0   .     S
Ce35     V101    10.002   .     S
Ce37     Ce38    10.0   1_556     S
Ce37     Ce39    10.0   .     S
Ce38     Ce37    10.0   1_554     S
Ce38     Ce40    10.0   .     S
Ce38     V80    10.002   .     S
Ce39     Ce40    10.0   1_556     S
Ce40     Ce39    10.0   1_554     S
Ce40     V84    10.002   .     S
Ce41     Ce42    10.0   1_556     S
Ce41     Ce43    10.0   .     S
Ce41     V174    10.002   .     S
Ce42     Ce41    10.0   1_554     S
Ce42     Ce44    10.0   .     S
Ce42     V275    10.002   .     S
Ce43     Ce44    10.0   1_556     S
Ce43     V170    10.002   .     S
Ce44     Ce43    10.0   1_554     S
Ce44     V279    10.002   .     S
Ce45     Ce46    10.0   1_565     S
Ce45     Ce47    10.0   .     S
Ce46     Ce45    10.0   1_545     S
Ce46     Ce48    10.0   .     S
Ce46     V124    10.002   .     S
Ce47     Ce48    10.0   1_565     S
Ce48     Ce47    10.0   1_545     S
Ce48     V120    10.002   .     S
Ce49     Ce50    10.0   1_565     S
Ce49     Ce51    10.0   .     S
Ce49     V206    10.002   .     S
Ce50     Ce49    10.0   1_545     S
Ce50     Ce52    10.0   .     S
Ce50     V267    10.002   .     S
Ce51     Ce52    10.0   1_565     S
Ce51     V202    10.002   .     S
Ce52     Ce51    10.0   1_545     S
Ce52     V271    10.002   .     S
Ce53     Ce54    10.0   1_655     S
Ce53     Ce55    10.0   .     S
Ce54     Ce53    10.0   1_455     S
Ce54     Ce56    10.0   .     S
Ce54     V144    10.002   .     S
Ce55     Ce56    10.0   1_655     S
Ce56     Ce55    10.0   1_455     S
Ce56     V148    10.002   .     S
Ce57     Ce58    10.0   1_655     S
Ce57     Ce59    10.0   .     S
Ce57     V234    10.002   .     S
Ce58     Ce57    10.0   1_455     S
Ce58     Ce60    10.0   .     S
Ce58     V283    10.002   .     S
Ce59     Ce60    10.0   1_655     S
Ce59     V238    10.002   .     S
Ce60     Ce59    10.0   1_455     S
Ce60     V287    10.002   .     S
V61     Er64    9.999   .     S
V61     V62    10.0   .     S
V62     Er64    9.999   .     S
V62     Ce223    10.002   .     S
Ti63     Er64    9.998   .     S
Ti63     Ti75    10.0   .     S
Ti63     Ti67    10.0   .     S
V65     Er68    9.999   .     S
V65     V66    10.0   .     S
V66     Er68    9.999   .     S
V66     Ce195    10.002   .     S
Ti67     Er68    9.998   .     S
Ti67     Ti71    10.0   .     S
V69     Er72    9.999   .     S
V69     V70    10.0   .     S
V69     Ce85    10.002   .     S
V70     Er72    9.999   .     S
V70     Ce193    10.002   .     S
Ti71     Er72    9.998   .     S
Ti71     Ti82    10.0   .     S
V73     Er76    9.999   .     S
V73     V74    10.0   .     S
V73     Ce98    10.002   .     S
V74     Er76    9.999   .     S
V74     Ce221    10.002   .     S
Ti75     Er76    9.998   .     S
Ti75     Ti78    10.0   .     S
V77     Er79    9.999   .     S
V77     V80    10.0   .     S
V77     Ce100    10.002   .     S
Ti78     Er79    9.998   .     S
Ti78     Ti82    10.0   .     S
Er79     V80    9.999   .     S
V81     Er83    9.999   .     S
V81     V84    10.0   .     S
V81     Ce88    10.002   .     S
Ti82     Er83    9.998   .     S
Er83     V84    9.999   .     S
Ce85     Ce86    10.0   .     S
Ce85     Ce88    10.0   .     S
Ce86     Ce87    10.0   .     S
Ce86     V233    10.002   .     S
Ce87     Ce88    10.0   .     S
Ce87     V232    10.002   .     S
Ce89     Ce90    10.0   .     S
Ce89     Ce92    10.0   .     S
Ce89     V173    10.002   .     S
Ce90     Ce91    10.0   .     S
Ce90     V109    10.002   .     S
Ce91     Ce92    10.0   .     S
Ce91     V117    10.002   .     S
Ce92     V180    10.002   .     S
Ce93     Ce94    10.0   .     S
Ce93     Ce96    10.0   .     S
Ce93     V137    10.002   .     S
Ce94     Ce95    10.0   .     S
Ce94     V169    10.002   .     S
Ce95     Ce96    10.0   .     S
Ce95     V168    10.002   .     S
Ce96     V141    10.002   .     S
Ce97     Ce98    10.0   .     S
Ce97     Ce99    10.0   .     S
Ce97     V201    10.002   .     S
Ce98     Ce100    10.0   .     S
Ce99     Ce100    10.0   .     S
Ce99     V200    10.002   .     S
V101     Er104    9.999   .     S
V101     V102    10.0   .     S
V102     Er104    9.999   .     S
V102     Ce227    10.002   .     S
Ti103     Er104    9.998   .     S
Ti103     Ti111    10.0   .     S
Ti103     Ti107    10.0   .     S
V105     Er108    9.999   .     S
V105     V106    10.0   .     S
V106     Er108    9.999   .     S
V106     Ce159    10.002   .     S
Ti107     Er108    9.998   .     S
Ti107     Ti115    10.0   .     S
V109     Er112    9.999   .     S
V109     V110    10.0   .     S
V110     Er112    9.999   .     S
V110     Ce225    10.002   .     S
Ti111     Er112    9.998   .     S
Ti111     Ti118    10.0   .     S
V113     Er116    9.999   .     S
V113     V114    10.0   .     S
V113     Ce154    10.002   .     S
V114     Er116    9.999   .     S
V114     Ce157    10.002   .     S
Ti115     Er116    9.998   .     S
Ti115     Ti122    10.0   .     S
V117     Er119    9.999   .     S
V117     V120    10.0   .     S
Ti118     Er119    9.998   .     S
Ti118     Ti122    10.0   .     S
Er119     V120    9.999   .     S
V121     Er123    9.999   .     S
V121     V124    10.0   .     S
V121     Ce156    10.002   .     S
Ti122     Er123    9.998   .     S
Er123     V124    9.999   .     S
V125     Er128    9.999   .     S
V125     V126    10.0   .     S
V126     Er128    9.999   .     S
V126     Ce191    10.002   .     S
Ti127     Er128    9.998   .     S
Ti127     Ti139    10.0   .     S
Ti127     Ti131    10.0   .     S
V129     Er132    9.999   .     S
V129     V130    10.0   .     S
V130     Er132    9.999   .     S
V130     Ce163    10.002   .     S
Ti131     Er132    9.998   .     S
Ti131     Ti135    10.0   .     S
V133     Er136    9.999   .     S
V133     V134    10.0   .     S
V133     Ce150    10.002   .     S
V134     Er136    9.999   .     S
V134     Ce161    10.002   .     S
Ti135     Er136    9.998   .     S
Ti135     Ti146    10.0   .     S
V137     Er140    9.999   .     S
V137     V138    10.0   .     S
V138     Er140    9.999   .     S
V138     Ce189    10.002   .     S
Ti139     Er140    9.998   .     S
Ti139     Ti142    10.0   .     S
V141     Er143    9.999   .     S
V141     V144    10.0   .     S
Ti142     Er143    9.998   .     S
Ti142     Ti146    10.0   .     S
Er143     V144    9.999   .     S
V145     Er147    9.999   .     S
V145     V148    10.0   .     S
V145     Ce152    10.002   .     S
Ti146     Er147    9.998   .     S
Er147     V148    9.999   .     S
Ce149     Ce150    10.0   .     S
Ce149     Ce151    10.0   .     S
Ce149     V205    10.002   .     S
Ce150     Ce152    10.0   .     S
Ce151     Ce152    10.0   .     S
Ce151     V212    10.002   .     S
Ce153     Ce154    10.0   .     S
Ce153     Ce155    10.0   .     S
Ce153     V237    10.002   .     S
Ce154     Ce156    10.0   .     S
Ce155     Ce156    10.0   .     S
Ce155     V244    10.002   .     S
Ce157     Ce158    10.0   1_655     S
Ce157     Ce159    10.0   .     S
Ce158     Ce157    10.0   1_455     S
Ce158     Ce160    10.0   .     S
Ce158     V184    10.002   .     S
Ce159     Ce160    10.0   1_655     S
Ce160     Ce159    10.0   1_455     S
Ce160     V167    10.002   .     S
Ce161     Ce162    10.0   1_565     S
Ce161     Ce163    10.0   .     S
Ce162     Ce161    10.0   1_545     S
Ce162     Ce164    10.0   .     S
Ce162     V188    10.002   .     S
Ce163     Ce164    10.0   1_565     S
Ce164     Ce163    10.0   1_545     S
Ce164     V179    10.002   .     S
Ti165     Er166    9.998   .     S
Ti165     Ti182    10.0   .     S
Ti165     Ti171    10.0   .     S
Er166     V167    9.999   .     S
Er166     V168    9.999   .     S
V167     V168    10.0   .     S
V169     Er172    9.999   .     S
V169     V170    10.0   .     S
V170     Er172    9.999   .     S
Ti171     Er172    9.998   .     S
Ti171     Ti175    10.0   .     S
V173     Er176    9.999   .     S
V173     V174    10.0   .     S
V174     Er176    9.999   .     S
Ti175     Er176    9.998   .     S
Ti175     Ti177    10.0   .     S
Ti177     Er178    9.998   .     S
Ti177     Ti186    10.0   .     S
Er178     V179    9.999   .     S
Er178     V180    9.999   .     S
V179     V180    10.0   .     S
V181     Er183    9.999   .     S
V181     V184    10.0   .     S
V181     Ce256    10.002   .     S
Ti182     Er183    9.998   .     S
Ti182     Ti186    10.0   .     S
Er183     V184    9.999   .     S
V185     Er187    9.999   .     S
V185     V188    10.0   .     S
V185     Ce254    10.002   .     S
Ti186     Er187    9.998   .     S
Er187     V188    9.999   .     S
Ce189     Ce190    10.0   1_556     S
Ce189     Ce191    10.0   .     S
Ce190     Ce189    10.0   1_554     S
Ce190     Ce192    10.0   .     S
Ce190     V216    10.002   .     S
Ce191     Ce192    10.0   1_556     S
Ce192     Ce191    10.0   1_554     S
Ce192     V199    10.002   .     S
Ce193     Ce194    10.0   1_655     S
Ce193     Ce195    10.0   .     S
Ce194     Ce193    10.0   1_455     S
Ce194     Ce196    10.0   .     S
Ce194     V220    10.002   .     S
Ce195     Ce196    10.0   1_655     S
Ce196     Ce195    10.0   1_455     S
Ce196     V211    10.002   .     S
Ti197     Er198    9.998   .     S
Ti197     Ti214    10.0   .     S
Ti197     Ti203    10.0   .     S
Er198     V199    9.999   .     S
Er198     V200    9.999   .     S
V199     V200    10.0   .     S
V201     Er204    9.999   .     S
V201     V202    10.0   .     S
V202     Er204    9.999   .     S
Ti203     Er204    9.998   .     S
Ti203     Ti207    10.0   .     S
V205     Er208    9.999   .     S
V205     V206    10.0   .     S
V206     Er208    9.999   .     S
Ti207     Er208    9.998   .     S
Ti207     Ti209    10.0   .     S
Ti209     Er210    9.998   .     S
Ti209     Ti218    10.0   .     S
Er210     V211    9.999   .     S
Er210     V212    9.999   .     S
V211     V212    10.0   .     S
V213     Er215    9.999   .     S
V213     V216    10.0   .     S
V213     Ce264    10.002   .     S
Ti214     Er215    9.998   .     S
Ti214     Ti218    10.0   .     S
Er215     V216    9.999   .     S
V217     Er219    9.999   .     S
V217     V220    10.0   .     S
V217     Ce262    10.002   .     S
Ti218     Er219    9.998   .     S
Er219     V220    9.999   .     S
Ce221     Ce222    10.0   1_565     S
Ce221     Ce223    10.0   .     S
Ce222     Ce221    10.0   1_545     S
Ce222     Ce224    10.0   .     S
Ce222     V248    10.002   .     S
Ce223     Ce224    10.0   1_565     S
Ce224     Ce223    10.0   1_545     S
Ce224     V243    10.002   .     S
Ce225     Ce226    10.0   1_556     S
Ce225     Ce227    10.0   .     S
Ce226     Ce225    10.0   1_554     S
Ce226     Ce228    10.0   .     S
Ce226     V252    10.002   .     S
Ce227     Ce228    10.0   1_556     S
Ce228     Ce227    10.0   1_554     S
Ce228     V231    10.002   .     S
Ti229     Er230    9.998   .     S
Ti229     Ti250    10.0   .     S
Ti229     Ti235    10.0   .     S
Er230     V231    9.999   .     S
Er230     V232    9.999   .     S
V231     V232    10.0   .     S
V233     Er236    9.999   .     S
V233     V234    10.0   .     S
V234     Er236    9.999   .     S
Ti235     Er236    9.998   .     S
Ti235     Ti239    10.0   .     S
V237     Er240    9.999   .     S
V237     V238    10.0   .     S
V238     Er240    9.999   .     S
Ti239     Er240    9.998   .     S
Ti239     Ti241    10.0   .     S
Ti241     Er242    9.998   .     S
Ti241     Ti246    10.0   .     S
Er242     V243    9.999   .     S
Er242     V244    9.999   .     S
V243     V244    10.0   .     S
V245     Er247    9.999   .     S
V245     V248    10.0   .     S
V245     Ce260    10.002   .     S
Ti246     Er247    9.998   .     S
Ti246     Ti250    10.0   .     S
Er247     V248    9.999   .     S
V249     Er251    9.999   .     S
V249     V252    10.0   .     S
V249     Ce257    10.002   .     S
Ti250     Er251    9.998   .     S
Er251     V252    9.999   .     S
Ce253     Ce254    10.0   .     S
Ce253     Ce255    10.0   .     S
Ce253     V268    10.002   .     S
Ce254     Ce256    10.0   .     S
Ce255     Ce256    10.0   .     S
Ce255     V288    10.002   .     S
Ce257     Ce258    10.0   .     S
Ce257     Ce260    10.0   .     S
Ce258     Ce259    10.0   .     S
Ce258     V276    10.002   .     S
Ce259     Ce260    10.0   .     S
Ce259     V272    10.002   .     S
Ce261     Ce262    10.0   .     S
Ce261     Ce263    10.0   .     S
Ce261     V284    10.002   .     S
Ce262     Ce264    10.0   .     S
Ce263     Ce264    10.0   .     S
Ce263     V280    10.002   .     S
Ti265     Er266    9.998   .     S
Ti265     Ti269    10.0   .     S
Ti265     Ti286    10.0   .     S
Er266     V267    9.999   .     S
Er266     V268    9.999   .     S
V267     V268    10.0   .     S
Ti269     Er270    9.998   .     S
Ti269     Ti273    10.0   .     S
Er270     V271    9.999   .     S
Er270     V272    9.999   .     S
V271     V272    10.0   .     S
Ti273     Er274    9.998   .     S
Ti273     Ti277    10.0   .     S
Er274     V275    9.999   .     S
Er274     V276    9.999   .     S
V275     V276    10.0   .     S
Ti277     Er278    9.998   .     S
Ti277     Ti281    10.0   .     S
Er278     V279    9.999   .     S
Er278     V280    9.999   .     S
V279     V280    10.0   .     S
Ti281     Er282    9.998   .     S
Ti281     Ti286    10.0   .     S
Er282     V283    9.999   .     S
Er282     V284    9.999   .     S
V283     V284    10.0   .     S
Er285     Ti286    9.998   .     S
Er285     V287    9.999   .     S
Er285     V288    9.999   .     S
V287     V288    10.0   .     S
