data_epqa
_audit_creation_date              2020-02-04
_audit_creation_method            'Pymatgen'
_symmetry_space_group_name_H-M    'P1'
_symmetry_Int_Tables_number       1
loop_
_symmetry_equiv_pos_as_xyz
  x,y,z
_cell_length_a                    94.7347
_cell_length_b                    94.7347
_cell_length_c                    94.7347
_cell_angle_alpha                 90.0
_cell_angle_beta                 90.0
_cell_angle_gamma                 90.0
loop_
_atom_site_label
_atom_site_type_symbol
_atom_site_fract_x
_atom_site_fract_y
_atom_site_fract_z
Ti1     Ti     0.8981   0.5528   0.8235
Ti2     Ti     0.8235   0.5528   0.8981
Ti3     Ti     0.8981   0.4472   0.8235
Ti4     Ti     0.8235   0.4472   0.8981
Ti5     Ti     0.5528   0.8235   0.8981
Ti6     Ti     0.5528   0.8981   0.8235
Ti7     Ti     0.4472   0.8981   0.8235
Ti8     Ti     0.4472   0.8235   0.8981
Ti9     Ti     0.8235   0.8981   0.5528
Ti10     Ti     0.8981   0.8235   0.5528
Ti11     Ti     0.8981   0.8235   0.4472
Ti12     Ti     0.8235   0.8981   0.4472
Ti13     Ti     0.5528   0.1019   0.8235
Ti14     Ti     0.5528   0.1765   0.8981
Ti15     Ti     0.4472   0.1019   0.8235
Ti16     Ti     0.4472   0.1765   0.8981
Ti17     Ti     0.1019   0.5528   0.8235
Ti18     Ti     0.1765   0.5528   0.8981
Ti19     Ti     0.1019   0.4472   0.8235
Ti20     Ti     0.1765   0.4472   0.8981
Ti21     Ti     0.5528   0.8235   0.1019
Ti22     Ti     0.5528   0.8981   0.1765
Ti23     Ti     0.4472   0.8235   0.1019
Ti24     Ti     0.4472   0.8981   0.1765
Ti25     Ti     0.8235   0.5528   0.1019
Ti26     Ti     0.8981   0.5528   0.1765
Ti27     Ti     0.8235   0.4472   0.1019
Ti28     Ti     0.8981   0.4472   0.1765
Ti29     Ti     0.8235   0.1019   0.5528
Ti30     Ti     0.8981   0.1765   0.5528
Ti31     Ti     0.8235   0.1019   0.4472
Ti32     Ti     0.8981   0.1765   0.4472
Ti33     Ti     0.1019   0.8235   0.5528
Ti34     Ti     0.1765   0.8981   0.5528
Ti35     Ti     0.1019   0.8235   0.4472
Ti36     Ti     0.1765   0.8981   0.4472
Ti37     Ti     0.1019   0.5528   0.1765
Ti38     Ti     0.1765   0.5528   0.1019
Ti39     Ti     0.1019   0.4472   0.1765
Ti40     Ti     0.1765   0.4472   0.1019
Ti41     Ti     0.5528   0.1765   0.1019
Ti42     Ti     0.5528   0.1019   0.1765
Ti43     Ti     0.4472   0.1019   0.1765
Ti44     Ti     0.4472   0.1765   0.1019
Ti45     Ti     0.1765   0.1019   0.5528
Ti46     Ti     0.1019   0.1765   0.5528
Ti47     Ti     0.1019   0.1765   0.4472
Ti48     Ti     0.1765   0.1019   0.4472
V49     V     0.3692   0.772   0.9472
V50     V     0.3692   0.772   0.0528
V51     V     0.772   0.3692   0.9472
V52     V     0.772   0.3692   0.0528
V53     V     0.9472   0.3692   0.772
V54     V     0.0528   0.3692   0.772
V55     V     0.3692   0.9472   0.772
V56     V     0.3692   0.0528   0.772
V57     V     0.9472   0.772   0.3692
V58     V     0.0528   0.772   0.3692
V59     V     0.772   0.9472   0.3692
V60     V     0.772   0.0528   0.3692
Er61     Er     0.7154   0.7154   0.9193
Er62     Er     0.9193   0.7154   0.7154
Ce63     Ce     0.7595   0.8341   0.7595
Ce64     Ce     0.8341   0.7595   0.7595
Ce65     Ce     0.7595   0.7595   0.8341
Er66     Er     0.7154   0.9193   0.7154
V67     V     0.6308   0.772   0.9472
V68     V     0.6308   0.772   0.0528
V69     V     0.9472   0.6308   0.772
V70     V     0.0528   0.6308   0.772
V71     V     0.772   0.9472   0.6308
V72     V     0.772   0.0528   0.6308
V73     V     0.772   0.6308   0.9472
V74     V     0.772   0.6308   0.0528
V75     V     0.6308   0.9472   0.772
V76     V     0.6308   0.0528   0.772
V77     V     0.9472   0.772   0.6308
V78     V     0.0528   0.772   0.6308
Er79     Er     0.7154   0.7154   0.0807
Er80     Er     0.9193   0.7154   0.2846
Ce81     Ce     0.7595   0.8341   0.2405
Ce82     Ce     0.8341   0.7595   0.2405
Ce83     Ce     0.7595   0.7595   0.1659
Er84     Er     0.7154   0.9193   0.2846
V85     V     0.6308   0.9472   0.228
V86     V     0.6308   0.0528   0.228
Er87     Er     0.7154   0.0807   0.2846
Er88     Er     0.7154   0.2846   0.0807
Ce89     Ce     0.7595   0.1659   0.2405
Ce90     Ce     0.7595   0.2405   0.1659
Ce91     Ce     0.8341   0.2405   0.2405
Er92     Er     0.9193   0.2846   0.2846
V93     V     0.6308   0.228   0.9472
V94     V     0.6308   0.228   0.0528
Er95     Er     0.7154   0.0807   0.7154
Er96     Er     0.7154   0.2846   0.9193
Ce97     Ce     0.8341   0.2405   0.7595
Ce98     Ce     0.7595   0.2405   0.8341
Ce99     Ce     0.7595   0.1659   0.7595
Er100     Er     0.9193   0.2846   0.7154
V101     V     0.9472   0.228   0.6308
V102     V     0.0528   0.228   0.6308
Er103     Er     0.0807   0.2846   0.7154
Er104     Er     0.2846   0.0807   0.7154
Ce105     Ce     0.1659   0.2405   0.7595
Ce106     Ce     0.2405   0.1659   0.7595
Ce107     Ce     0.2405   0.2405   0.8341
Er108     Er     0.2846   0.2846   0.9193
V109     V     0.228   0.9472   0.6308
V110     V     0.228   0.0528   0.6308
Er111     Er     0.0807   0.7154   0.7154
Er112     Er     0.2846   0.9193   0.7154
Ce113     Ce     0.2405   0.7595   0.8341
Ce114     Ce     0.2405   0.8341   0.7595
Ce115     Ce     0.1659   0.7595   0.7595
Er116     Er     0.2846   0.7154   0.9193
V117     V     0.228   0.6308   0.9472
V118     V     0.228   0.6308   0.0528
V119     V     0.9472   0.6308   0.228
V120     V     0.0528   0.6308   0.228
Er121     Er     0.2846   0.7154   0.0807
Er122     Er     0.0807   0.7154   0.2846
Ce123     Ce     0.2405   0.7595   0.1659
Ce124     Ce     0.1659   0.7595   0.2405
Ce125     Ce     0.2405   0.8341   0.2405
Er126     Er     0.2846   0.9193   0.2846
V127     V     0.3692   0.228   0.9472
V128     V     0.3692   0.228   0.0528
V129     V     0.9472   0.3692   0.228
V130     V     0.0528   0.3692   0.228
V131     V     0.228   0.9472   0.3692
V132     V     0.228   0.0528   0.3692
V133     V     0.228   0.3692   0.9472
V134     V     0.228   0.3692   0.0528
V135     V     0.3692   0.9472   0.228
V136     V     0.3692   0.0528   0.228
V137     V     0.9472   0.228   0.3692
V138     V     0.0528   0.228   0.3692
Er139     Er     0.2846   0.0807   0.2846
Er140     Er     0.0807   0.2846   0.2846
Ce141     Ce     0.1659   0.2405   0.2405
Ce142     Ce     0.2405   0.1659   0.2405
Ce143     Ce     0.2405   0.2405   0.1659
Er144     Er     0.2846   0.2846   0.0807
loop_
_geom_bond_atom_site_label_1
_geom_bond_atom_site_label_2
_geom_bond_distance
_geom_bond_site_symmetry_2
_ccdc_geom_bond_type
Ti1     Ti2    9.999   .     S
Ti1     Ti3    10.0   .     S
Ti1     V69    10.002   .     S
Ti2     Ti4    10.0   .     S
Ti2     V73    10.002   .     S
Ti3     Ti4    9.999   .     S
Ti3     V53    10.002   .     S
Ti4     V51    10.002   .     S
Ti5     Ti6    9.999   .     S
Ti5     Ti8    10.0   .     S
Ti5     V67    10.002   .     S
Ti6     Ti7    10.0   .     S
Ti6     V75    10.002   .     S
Ti7     Ti8    9.999   .     S
Ti7     V55    10.002   .     S
Ti8     V49    10.002   .     S
Ti9     Ti10    9.999   .     S
Ti9     Ti12    10.0   .     S
Ti9     V71    10.002   .     S
Ti10     Ti11    10.0   .     S
Ti10     V77    10.002   .     S
Ti11     Ti12    9.999   .     S
Ti11     V57    10.002   .     S
Ti12     V59    10.002   .     S
Ti13     Ti14    9.999   .     S
Ti13     Ti15    10.0   .     S
Ti13     V76    10.002   .     S
Ti14     Ti16    10.0   .     S
Ti14     V93    10.002   .     S
Ti15     Ti16    9.999   .     S
Ti15     V56    10.002   .     S
Ti16     V127    10.002   .     S
Ti17     Ti18    9.999   .     S
Ti17     Ti19    10.0   .     S
Ti17     V70    10.002   .     S
Ti18     Ti20    10.0   .     S
Ti18     V117    10.002   .     S
Ti19     Ti20    9.999   .     S
Ti19     V54    10.002   .     S
Ti20     V133    10.002   .     S
Ti21     Ti22    9.999   .     S
Ti21     Ti23    10.0   .     S
Ti21     V68    10.002   .     S
Ti22     Ti24    10.0   .     S
Ti22     V85    10.002   .     S
Ti23     Ti24    9.999   .     S
Ti23     V50    10.002   .     S
Ti24     V135    10.002   .     S
Ti25     Ti26    9.999   .     S
Ti25     Ti27    10.0   .     S
Ti25     V74    10.002   .     S
Ti26     Ti28    10.0   .     S
Ti26     V119    10.002   .     S
Ti27     Ti28    9.999   .     S
Ti27     V52    10.002   .     S
Ti28     V129    10.002   .     S
Ti29     Ti30    9.999   .     S
Ti29     Ti31    10.0   .     S
Ti29     V72    10.002   .     S
Ti30     Ti32    10.0   .     S
Ti30     V101    10.002   .     S
Ti31     Ti32    9.999   .     S
Ti31     V60    10.002   .     S
Ti32     V137    10.002   .     S
Ti33     Ti34    9.999   .     S
Ti33     Ti35    10.0   .     S
Ti33     V78    10.002   .     S
Ti34     Ti36    10.0   .     S
Ti34     V109    10.002   .     S
Ti35     Ti36    9.999   .     S
Ti35     V58    10.002   .     S
Ti36     V131    10.002   .     S
Ti37     Ti38    9.999   .     S
Ti37     Ti39    10.0   .     S
Ti37     V120    10.002   .     S
Ti38     Ti40    10.0   .     S
Ti38     V118    10.002   .     S
Ti39     Ti40    9.999   .     S
Ti39     V130    10.002   .     S
Ti40     V134    10.002   .     S
Ti41     Ti42    9.999   .     S
Ti41     Ti44    10.0   .     S
Ti41     V94    10.002   .     S
Ti42     Ti43    10.0   .     S
Ti42     V86    10.002   .     S
Ti43     Ti44    9.999   .     S
Ti43     V136    10.002   .     S
Ti44     V128    10.002   .     S
Ti45     Ti46    9.999   .     S
Ti45     Ti48    10.0   .     S
Ti45     V110    10.002   .     S
Ti46     Ti47    10.0   .     S
Ti46     V102    10.002   .     S
Ti47     Ti48    9.999   .     S
Ti47     V138    10.002   .     S
Ti48     V132    10.002   .     S
V49     V50    10.0   1_556     S
V49     Er116    10.001   .     S
V50     V49    10.0   1_554     S
V50     Er121    10.001   .     S
V51     V52    10.0   1_556     S
V51     Er96    10.001   .     S
V52     V51    10.0   1_554     S
V52     Er88    10.001   .     S
V53     V54    10.0   1_655     S
V53     Er100    10.001   .     S
V54     V53    10.0   1_455     S
V54     Er103    10.001   .     S
V55     V56    10.0   1_565     S
V55     Er112    10.001   .     S
V56     V55    10.0   1_545     S
V56     Er104    10.001   .     S
V57     V58    10.0   1_655     S
V57     Er80    10.001   .     S
V58     V57    10.0   1_455     S
V58     Er122    10.001   .     S
V59     V60    10.0   1_565     S
V59     Er84    10.001   .     S
V60     V59    10.0   1_545     S
V60     Er87    10.001   .     S
Er61     Ce65    9.999   .     S
Er61     V67    10.001   .     S
Er61     V73    10.001   .     S
Er62     Ce64    9.999   .     S
Er62     V69    10.001   .     S
Er62     V77    10.001   .     S
Ce63     Ce64    9.996   .     S
Ce63     Ce65    9.996   .     S
Ce63     Er66    9.999   .     S
Ce64     Ce65    9.996   .     S
Er66     V71    10.001   .     S
Er66     V75    10.001   .     S
V67     V68    10.0   1_556     S
V68     V67    10.0   1_554     S
V68     Er79    10.001   .     S
V69     V70    10.0   1_655     S
V70     V69    10.0   1_455     S
V70     Er111    10.001   .     S
V71     V72    10.0   1_565     S
V72     V71    10.0   1_545     S
V72     Er95    10.001   .     S
V73     V74    10.0   1_556     S
V74     V73    10.0   1_554     S
V74     Er79    10.001   .     S
V75     V76    10.0   1_565     S
V76     V75    10.0   1_545     S
V76     Er95    10.001   .     S
V77     V78    10.0   1_655     S
V78     V77    10.0   1_455     S
V78     Er111    10.001   .     S
Er79     Ce83    9.999   .     S
Er80     Ce82    9.999   .     S
Er80     V119    10.001   .     S
Ce81     Ce82    9.996   .     S
Ce81     Ce83    9.996   .     S
Ce81     Er84    9.999   .     S
Ce82     Ce83    9.996   .     S
Er84     V85    10.001   .     S
V85     V86    10.0   1_565     S
V86     V85    10.0   1_545     S
V86     Er87    10.001   .     S
Er87     Ce89    9.999   .     S
Er88     Ce90    9.999   .     S
Er88     V94    10.001   .     S
Ce89     Ce91    9.996   .     S
Ce89     Ce90    9.996   .     S
Ce90     Ce91    9.996   .     S
Ce91     Er92    9.999   .     S
Er92     V129    10.001   .     S
Er92     V137    10.001   .     S
V93     V94    10.0   1_556     S
V93     Er96    10.001   .     S
V94     V93    10.0   1_554     S
Er95     Ce99    9.999   .     S
Er96     Ce98    9.999   .     S
Ce97     Ce98    9.996   .     S
Ce97     Ce99    9.996   .     S
Ce97     Er100    9.999   .     S
Ce98     Ce99    9.996   .     S
Er100     V101    10.001   .     S
V101     V102    10.0   1_655     S
V102     V101    10.0   1_455     S
V102     Er103    10.001   .     S
Er103     Ce105    9.999   .     S
Er104     Ce106    9.999   .     S
Er104     V110    10.001   .     S
Ce105     Ce107    9.996   .     S
Ce105     Ce106    9.996   .     S
Ce106     Ce107    9.996   .     S
Ce107     Er108    9.999   .     S
Er108     V127    10.001   .     S
Er108     V133    10.001   .     S
V109     V110    10.0   1_565     S
V109     Er112    10.001   .     S
V110     V109    10.0   1_545     S
Er111     Ce115    9.999   .     S
Er112     Ce114    9.999   .     S
Ce113     Ce114    9.996   .     S
Ce113     Ce115    9.996   .     S
Ce113     Er116    9.999   .     S
Ce114     Ce115    9.996   .     S
Er116     V117    10.001   .     S
V117     V118    10.0   1_556     S
V118     V117    10.0   1_554     S
V118     Er121    10.001   .     S
V119     V120    10.0   1_655     S
V120     V119    10.0   1_455     S
V120     Er122    10.001   .     S
Er121     Ce123    9.999   .     S
Er122     Ce124    9.999   .     S
Ce123     Ce125    9.996   .     S
Ce123     Ce124    9.996   .     S
Ce124     Ce125    9.996   .     S
Ce125     Er126    9.999   .     S
Er126     V131    10.001   .     S
Er126     V135    10.001   .     S
V127     V128    10.0   1_556     S
V128     V127    10.0   1_554     S
V128     Er144    10.001   .     S
V129     V130    10.0   1_655     S
V130     V129    10.0   1_455     S
V130     Er140    10.001   .     S
V131     V132    10.0   1_565     S
V132     V131    10.0   1_545     S
V132     Er139    10.001   .     S
V133     V134    10.0   1_556     S
V134     V133    10.0   1_554     S
V134     Er144    10.001   .     S
V135     V136    10.0   1_565     S
V136     V135    10.0   1_545     S
V136     Er139    10.001   .     S
V137     V138    10.0   1_655     S
V138     V137    10.0   1_455     S
V138     Er140    10.001   .     S
Er139     Ce142    9.999   .     S
Er140     Ce141    9.999   .     S
Ce141     Ce142    9.996   .     S
Ce141     Ce143    9.996   .     S
Ce142     Ce143    9.996   .     S
Ce143     Er144    9.999   .     S
