data_epua
_audit_creation_date              2020-02-04
_audit_creation_method            'Pymatgen'
_symmetry_space_group_name_H-M    'P1'
_symmetry_Int_Tables_number       1
loop_
_symmetry_equiv_pos_as_xyz
  x,y,z
_cell_length_a                    70.0158
_cell_length_b                    70.0158
_cell_length_c                    86.5469
_cell_angle_alpha                 90.0
_cell_angle_beta                 90.0
_cell_angle_gamma                 120.0
loop_
_atom_site_label
_atom_site_type_symbol
_atom_site_fract_x
_atom_site_fract_y
_atom_site_fract_z
Ti1     Ti     0.6229   0.0645   0.964
Ti2     Ti     0.5584   0.9355   0.036
Er3     Er     0.7144   0.0   0.0
Ti4     Ti     0.3771   0.4416   0.036
Ti5     Ti     0.4416   0.3771   0.964
Er6     Er     0.2856   0.2856   0.0
Ti7     Ti     0.4416   0.0645   0.964
Ti8     Ti     0.3771   0.9355   0.036
Er9     Er     0.2856   0.0   0.0
Ti10     Ti     0.0645   0.4416   0.036
Ti11     Ti     0.9355   0.3771   0.964
Er12     Er     0.0   0.2856   0.0
Ti13     Ti     0.0645   0.6229   0.036
Ti14     Ti     0.9355   0.5584   0.964
Er15     Er     0.0   0.7144   0.0
V16     V     0.0   0.8572   0.0
V17     V     0.8572   0.0   0.0
V18     V     0.8572   0.8572   0.0
V19     V     0.1428   0.1428   0.0
V20     V     0.0   0.1428   0.0
V21     V     0.1428   0.0   0.0
Ti22     Ti     0.5584   0.6229   0.036
Ti23     Ti     0.6229   0.5584   0.964
Er24     Er     0.7144   0.7144   0.0
Ce25     Ce     0.5238   0.1905   0.7756
Ce26     Ce     0.5238   0.1905   0.8911
Ce27     Ce     0.6667   0.1905   0.8911
Ce28     Ce     0.6667   0.1905   0.7756
Ce29     Ce     0.5238   0.3333   0.8911
Ce30     Ce     0.5238   0.3333   0.7756
Ce31     Ce     0.6667   0.4762   0.7756
Ce32     Ce     0.6667   0.4762   0.8911
Ce33     Ce     0.8095   0.3333   0.7756
Ce34     Ce     0.8095   0.3333   0.8911
Ce35     Ce     0.8095   0.4762   0.7756
Ce36     Ce     0.8095   0.4762   0.8911
Ti37     Ti     0.7749   0.7311   0.6306
Ti38     Ti     0.7104   0.6022   0.7027
Er39     Er     0.619   0.6667   0.6667
Ti40     Ti     0.7104   0.1082   0.7027
Ti41     Ti     0.7749   0.0438   0.6306
Er42     Er     0.619   0.9523   0.6667
Ti43     Ti     0.8918   0.2896   0.7027
Ti44     Ti     0.9562   0.2251   0.6306
Er45     Er     0.0477   0.381   0.6667
Ti46     Ti     0.8918   0.6022   0.7027
Ti47     Ti     0.9562   0.7311   0.6306
Er48     Er     0.0477   0.6667   0.6667
Ti49     Ti     0.3978   0.2896   0.7027
Ti50     Ti     0.2689   0.2251   0.6306
Er51     Er     0.3333   0.381   0.6667
V52     V     0.4762   0.6667   0.6667
V53     V     0.3333   0.5238   0.6667
V54     V     0.1905   0.6667   0.6667
V55     V     0.1905   0.5238   0.6667
V56     V     0.3333   0.8095   0.6667
V57     V     0.4762   0.8095   0.6667
Ti58     Ti     0.3978   0.1082   0.7027
Ti59     Ti     0.2689   0.0438   0.6306
Er60     Er     0.3333   0.9523   0.6667
Ce61     Ce     0.0   0.8572   0.4422
Ce62     Ce     0.0   0.8572   0.5578
Ce63     Ce     0.8572   0.8572   0.5578
Ce64     Ce     0.8572   0.8572   0.4422
Ce65     Ce     0.8572   0.0   0.5578
Ce66     Ce     0.8572   0.0   0.4422
Ce67     Ce     0.1428   0.0   0.4422
Ce68     Ce     0.1428   0.0   0.5578
Ce69     Ce     0.1428   0.1428   0.5578
Ce70     Ce     0.1428   0.1428   0.4422
Ce71     Ce     0.0   0.1428   0.4422
Ce72     Ce     0.0   0.1428   0.5578
Ce73     Ce     0.4762   0.6667   0.2244
Ce74     Ce     0.4762   0.6667   0.1089
Ce75     Ce     0.3333   0.5238   0.1089
Ce76     Ce     0.3333   0.5238   0.2244
Ce77     Ce     0.1905   0.5238   0.2244
Ce78     Ce     0.1905   0.5238   0.1089
Ce79     Ce     0.1905   0.6667   0.1089
Ce80     Ce     0.1905   0.6667   0.2244
Ce81     Ce     0.3333   0.8095   0.2244
Ce82     Ce     0.3333   0.8095   0.1089
Ce83     Ce     0.4762   0.8095   0.1089
Ce84     Ce     0.4762   0.8095   0.2244
Ti85     Ti     0.2896   0.3978   0.2973
Ti86     Ti     0.2251   0.2689   0.3694
Er87     Er     0.381   0.3333   0.3333
Ti88     Ti     0.1082   0.7104   0.2973
Ti89     Ti     0.0438   0.7749   0.3694
Er90     Er     0.9523   0.619   0.3333
Ti91     Ti     0.7311   0.7749   0.3694
Ti92     Ti     0.6022   0.7104   0.2973
Er93     Er     0.6667   0.619   0.3333
Ti94     Ti     0.2251   0.9562   0.3694
Ti95     Ti     0.2896   0.8918   0.2973
Er96     Er     0.381   0.0477   0.3333
Ti97     Ti     0.7311   0.9562   0.3694
Ti98     Ti     0.6022   0.8918   0.2973
Er99     Er     0.6667   0.0477   0.3333
V100     V     0.5238   0.1905   0.3333
V101     V     0.6667   0.1905   0.3333
V102     V     0.5238   0.3333   0.3333
V103     V     0.6667   0.4762   0.3333
V104     V     0.8095   0.3333   0.3333
V105     V     0.8095   0.4762   0.3333
Ti106     Ti     0.1082   0.3978   0.2973
Ti107     Ti     0.0438   0.2689   0.3694
Er108     Er     0.9523   0.3333   0.3333
loop_
_geom_bond_atom_site_label_1
_geom_bond_atom_site_label_2
_geom_bond_distance
_geom_bond_site_symmetry_2
_ccdc_geom_bond_type
Ti1     Ce27    10.0   .     S
Ti1     Er3    10.0   1_556     S
Ti1     Ti2    10.0   1_546     S
Ti2     Ce83    10.0   .     S
Ti2     Er3    10.0   1_565     S
Ti2     Ti1    10.0   1_564     S
Er3     V17    10.0   .     S
Er3     Ti1    10.0   1_554     S
Er3     Ti2    10.0   1_545     S
Ti4     Ce75    10.0   .     S
Ti4     Er6    10.0   .     S
Ti4     Ti5    10.0   1_554     S
Ti5     Ce29    10.0   .     S
Ti5     Er6    10.0   1_556     S
Ti5     Ti4    10.0   1_556     S
Er6     Ti5    10.0   1_554     S
Er6     V19    10.0   .     S
Ti7     Ce26    10.0   .     S
Ti7     Er9    10.0   1_556     S
Ti7     Ti8    10.0   1_546     S
Ti8     Ce82    10.0   .     S
Ti8     Er9    10.0   1_565     S
Ti8     Ti7    10.0   1_564     S
Er9     Ti8    10.0   1_545     S
Er9     Ti7    10.0   1_554     S
Er9     V21    10.0   .     S
Ti10     Ce78    10.0   .     S
Ti10     Er12    10.0   .     S
Ti10     Ti11    10.0   1_454     S
Ti11     Ce34    10.0   .     S
Ti11     Er12    10.0   1_656     S
Ti11     Ti10    10.0   1_656     S
Er12     Ti11    10.0   1_454     S
Er12     V20    10.0   .     S
Ti13     Ce79    10.0   .     S
Ti13     Er15    10.0   .     S
Ti13     Ti14    10.0   1_454     S
Ti14     Ce36    10.0   .     S
Ti14     Er15    10.0   1_656     S
Ti14     Ti13    10.0   1_656     S
Er15     V16    10.0   .     S
Er15     Ti14    10.0   1_454     S
V16     V18    10.0   1_455     S
V16     V21    10.0   1_565     S
V17     V18    10.0   1_545     S
V17     V20    10.0   1_655     S
V18     V16    10.0   1_655     S
V18     V17    10.0   1_565     S
V18     Er24    10.0   .     S
V19     V21    10.0   .     S
V19     V20    10.0   .     S
V20     V17    10.0   1_455     S
V21     V16    10.0   1_545     S
Ti22     Ce74    10.0   .     S
Ti22     Er24    10.0   .     S
Ti22     Ti23    10.0   1_554     S
Ti23     Ce32    10.0   .     S
Ti23     Er24    10.0   1_556     S
Ti23     Ti22    10.0   1_556     S
Er24     Ti23    10.0   1_554     S
Ce25     Ce26    10.0   .     S
Ce25     Ce28    10.0   .     S
Ce25     Ce30    10.0   .     S
Ce25     Ti58    10.0   .     S
Ce26     Ce27    10.0   .     S
Ce26     Ce29    10.0   .     S
Ce27     Ce28    10.0   .     S
Ce27     Ce34    10.0   .     S
Ce28     Ce33    10.0   .     S
Ce28     Ti40    10.0   .     S
Ce29     Ce30    10.0   .     S
Ce29     Ce32    10.0   .     S
Ce30     Ce31    10.0   .     S
Ce30     Ti49    10.0   .     S
Ce31     Ce32    10.0   .     S
Ce31     Ce35    10.0   .     S
Ce31     Ti38    10.0   .     S
Ce32     Ce36    10.0   .     S
Ce33     Ce34    10.0   .     S
Ce33     Ce35    10.0   .     S
Ce33     Ti43    10.0   .     S
Ce34     Ce36    10.0   .     S
Ce35     Ce36    10.0   .     S
Ce35     Ti46    10.0   .     S
Ti37     Ce63    10.0   .     S
Ti37     Er39    10.0   .     S
Ti37     Ti38    10.0   .     S
Ti38     Er39    10.0   .     S
Er39     V52    10.0   .     S
Ti40     Er42    10.0   1_545     S
Ti40     Ti41    10.0   .     S
Ti41     Ce65    10.0   .     S
Ti41     Er42    10.0   1_545     S
Er42     V57    10.0   .     S
Er42     Ti41    10.0   1_565     S
Er42     Ti40    10.0   1_565     S
Ti43     Er45    10.0   1_655     S
Ti43     Ti44    10.0   .     S
Ti44     Ce72    10.0   1_655     S
Ti44     Er45    10.0   1_655     S
Er45     Ti43    10.0   1_455     S
Er45     Ti44    10.0   1_455     S
Er45     V55    10.0   .     S
Ti46     Er48    10.0   1_655     S
Ti46     Ti47    10.0   .     S
Ti47     Ce62    10.0   1_655     S
Ti47     Er48    10.0   1_655     S
Er48     Ti47    10.0   1_455     S
Er48     Ti46    10.0   1_455     S
Er48     V54    10.0   .     S
Ti49     Er51    10.0   .     S
Ti49     Ti50    10.0   .     S
Ti50     Ce69    10.0   .     S
Ti50     Er51    10.0   .     S
Er51     V53    10.0   .     S
V52     V53    10.0   .     S
V52     V57    10.0   .     S
V53     V55    10.0   .     S
V54     V55    10.0   .     S
V54     V56    10.0   .     S
V56     V57    10.0   .     S
V56     Er60    10.0   .     S
Ti58     Er60    10.0   1_545     S
Ti58     Ti59    10.0   .     S
Ti59     Ce68    10.0   .     S
Ti59     Er60    10.0   1_545     S
Er60     Ti58    10.0   1_565     S
Er60     Ti59    10.0   1_565     S
Ce61     Ce62    10.0   .     S
Ce61     Ce64    10.0   1_455     S
Ce61     Ce67    10.0   1_565     S
Ce61     Ti89    10.0   .     S
Ce62     Ti47    10.0   1_455     S
Ce62     Ce63    10.0   1_455     S
Ce62     Ce68    10.0   1_565     S
Ce63     Ce62    10.0   1_655     S
Ce63     Ce64    10.0   .     S
Ce63     Ce65    10.0   1_565     S
Ce64     Ce61    10.0   1_655     S
Ce64     Ce66    10.0   1_565     S
Ce64     Ti91    10.0   .     S
Ce65     Ce66    10.0   .     S
Ce65     Ce63    10.0   1_545     S
Ce65     Ce72    10.0   1_655     S
Ce66     Ce64    10.0   1_545     S
Ce66     Ce71    10.0   1_655     S
Ce66     Ti97    10.0   1_545     S
Ce67     Ce61    10.0   1_545     S
Ce67     Ce68    10.0   .     S
Ce67     Ce70    10.0   .     S
Ce67     Ti94    10.0   1_545     S
Ce68     Ce62    10.0   1_545     S
Ce68     Ce69    10.0   .     S
Ce69     Ce70    10.0   .     S
Ce69     Ce72    10.0   .     S
Ce70     Ce71    10.0   .     S
Ce70     Ti86    10.0   .     S
Ce71     Ce72    10.0   .     S
Ce71     Ce66    10.0   1_455     S
Ce71     Ti107    10.0   .     S
Ce72     Ti44    10.0   1_455     S
Ce72     Ce65    10.0   1_455     S
Ce73     Ce74    10.0   .     S
Ce73     Ce76    10.0   .     S
Ce73     Ce84    10.0   .     S
Ce73     Ti92    10.0   .     S
Ce74     Ce75    10.0   .     S
Ce74     Ce83    10.0   .     S
Ce75     Ce76    10.0   .     S
Ce75     Ce78    10.0   .     S
Ce76     Ce77    10.0   .     S
Ce76     Ti85    10.0   .     S
Ce77     Ce78    10.0   .     S
Ce77     Ce80    10.0   .     S
Ce77     Ti106    10.0   .     S
Ce78     Ce79    10.0   .     S
Ce79     Ce80    10.0   .     S
Ce79     Ce82    10.0   .     S
Ce80     Ce81    10.0   .     S
Ce80     Ti88    10.0   .     S
Ce81     Ce82    10.0   .     S
Ce81     Ce84    10.0   .     S
Ce81     Ti95    10.0   .     S
Ce82     Ce83    10.0   .     S
Ce83     Ce84    10.0   .     S
Ce84     Ti98    10.0   .     S
Ti85     Er87    10.0   .     S
Ti85     Ti86    10.0   .     S
Ti86     Er87    10.0   .     S
Er87     V102    10.0   .     S
Ti88     Er90    10.0   1_455     S
Ti88     Ti89    10.0   .     S
Ti89     Er90    10.0   1_455     S
Er90     V105    10.0   .     S
Er90     Ti88    10.0   1_655     S
Er90     Ti89    10.0   1_655     S
Ti91     Er93    10.0   .     S
Ti91     Ti92    10.0   .     S
Ti92     Er93    10.0   .     S
Er93     V103    10.0   .     S
Ti94     Ce67    10.0   1_565     S
Ti94     Er96    10.0   1_565     S
Ti94     Ti95    10.0   .     S
Ti95     Er96    10.0   1_565     S
Er96     Ti94    10.0   1_545     S
Er96     Ti95    10.0   1_545     S
Er96     V100    10.0   .     S
Ti97     Ce66    10.0   1_565     S
Ti97     Er99    10.0   1_565     S
Ti97     Ti98    10.0   .     S
Ti98     Er99    10.0   1_565     S
Er99     Ti98    10.0   1_545     S
Er99     Ti97    10.0   1_545     S
Er99     V101    10.0   .     S
V100     V101    10.0   .     S
V100     V102    10.0   .     S
V101     V104    10.0   .     S
V102     V103    10.0   .     S
V103     V105    10.0   .     S
V104     V105    10.0   .     S
V104     Er108    10.0   .     S
Ti106     Er108    10.0   1_455     S
Ti106     Ti107    10.0   .     S
Ti107     Er108    10.0   1_455     S
Er108     Ti107    10.0   1_655     S
Er108     Ti106    10.0   1_655     S
