data_epv
_audit_creation_date              2020-02-04
_audit_creation_method            'Pymatgen'
_symmetry_space_group_name_H-M    'P1'
_symmetry_Int_Tables_number       1
loop_
_symmetry_equiv_pos_as_xyz
  x,y,z
_cell_length_a                    18.3916
_cell_length_b                    18.3916
_cell_length_c                    77.2648
_cell_angle_alpha                 90.0
_cell_angle_beta                 90.0
_cell_angle_gamma                 120.0
loop_
_atom_site_label
_atom_site_type_symbol
_atom_site_fract_x
_atom_site_fract_y
_atom_site_fract_z
Er1     Er     0.7863   0.5726   0.7137
Er2     Er     0.4274   0.2137   0.7137
Er3     Er     0.7863   0.2137   0.7137
Ti4     Ti     0.6667   0.3333   0.8333
Er5     Er     0.9059   0.453   0.953
Er6     Er     0.547   0.453   0.953
Er7     Er     0.547   0.0941   0.953
V8     V     0.3333   0.6667   0.6667
Er9     Er     0.2392   0.1196   0.6197
Er10     Er     0.8804   0.1196   0.6197
Er11     Er     0.8804   0.7608   0.6197
Er12     Er     0.1196   0.2392   0.3803
Er13     Er     0.7608   0.8804   0.3803
Er14     Er     0.1196   0.8804   0.3803
Ti15     Ti     0.0   0.0   0.5
V16     V     0.0   0.0   0.0
Ti17     Ti     0.3333   0.6667   0.1667
Er18     Er     0.5726   0.7863   0.2863
Er19     Er     0.2137   0.7863   0.2863
Er20     Er     0.2137   0.4274   0.2863
Er21     Er     0.453   0.547   0.047
Er22     Er     0.453   0.9059   0.047
Er23     Er     0.0941   0.547   0.047
V24     V     0.6667   0.3333   0.3333
loop_
_geom_bond_atom_site_label_1
_geom_bond_atom_site_label_2
_geom_bond_distance
_geom_bond_site_symmetry_2
_ccdc_geom_bond_type
Er1     Ti4    10.0   .     S
Er1     V8    10.0   1_655     S
Er1     V8    10.0   .     S
Er2     Ti4    10.0   .     S
Er2     V8    10.0   .     S
Er2     V8    10.0   1_545     S
Er3     Ti4    10.0   .     S
Er3     V8    10.0   1_655     S
Er3     V8    10.0   1_545     S
Ti4     Er6    10.0   .     S
Ti4     Er7    10.0   .     S
Ti4     Er5    10.0   .     S
Er5     V16    10.0   1_656     S
Er5     V16    10.0   1_666     S
Er6     V16    10.0   1_556     S
Er6     V16    10.0   1_666     S
Er7     V16    10.0   1_556     S
Er7     V16    10.0   1_656     S
V8     Er9    10.0   .     S
V8     Er10    10.0   1_455     S
V8     Er1    10.0   1_455     S
V8     Er3    10.0   1_455     S
V8     Er11    10.0   1_455     S
V8     Er9    10.0   1_565     S
V8     Er10    10.0   1_565     S
V8     Er11    10.0   .     S
V8     Er3    10.0   1_565     S
V8     Er2    10.0   1_565     S
Er9     V8    10.0   1_545     S
Er9     Ti15    10.0   .     S
Er10     V8    10.0   1_655     S
Er10     V8    10.0   1_545     S
Er10     Ti15    10.0   1_655     S
Er11     V8    10.0   1_655     S
Er11     Ti15    10.0   1_665     S
Er12     Ti15    10.0   .     S
Er12     V24    10.0   .     S
Er12     V24    10.0   1_455     S
Er13     Ti15    10.0   1_665     S
Er13     V24    10.0   .     S
Er13     V24    10.0   1_565     S
Er14     Ti15    10.0   1_565     S
Er14     V24    10.0   1_565     S
Er14     V24    10.0   1_455     S
Ti15     Er10    10.0   1_455     S
Ti15     Er11    10.0   1_445     S
Ti15     Er14    10.0   1_545     S
Ti15     Er13    10.0   1_445     S
V16     Er6    10.0   1_554     S
V16     Er7    10.0   1_554     S
V16     Er21    10.0   .     S
V16     Er23    10.0   .     S
V16     Er7    10.0   1_454     S
V16     Er5    10.0   1_454     S
V16     Er23    10.0   1_545     S
V16     Er22    10.0   1_545     S
V16     Er22    10.0   1_445     S
V16     Er21    10.0   1_445     S
V16     Er5    10.0   1_444     S
V16     Er6    10.0   1_444     S
Ti17     Er21    10.0   .     S
Ti17     Er22    10.0   .     S
Ti17     Er23    10.0   .     S
Ti17     Er19    10.0   .     S
Ti17     Er18    10.0   .     S
Ti17     Er20    10.0   .     S
Er18     V24    10.0   .     S
Er18     V24    10.0   1_565     S
Er19     V24    10.0   1_455     S
Er19     V24    10.0   1_565     S
Er20     V24    10.0   .     S
Er20     V24    10.0   1_455     S
Er21     V16    10.0   1_665     S
Er22     V16    10.0   1_565     S
Er22     V16    10.0   1_665     S
Er23     V16    10.0   1_565     S
V24     Er14    10.0   1_545     S
V24     Er19    10.0   1_655     S
V24     Er20    10.0   1_655     S
V24     Er14    10.0   1_655     S
V24     Er18    10.0   1_545     S
V24     Er19    10.0   1_545     S
V24     Er13    10.0   1_545     S
V24     Er12    10.0   1_655     S
