data_epza
_audit_creation_date              2020-02-04
_audit_creation_method            'Pymatgen'
_symmetry_space_group_name_H-M    'P1'
_symmetry_Int_Tables_number       1
loop_
_symmetry_equiv_pos_as_xyz
  x,y,z
_cell_length_a                    86.8869
_cell_length_b                    86.8869
_cell_length_c                    102.9132
_cell_angle_alpha                 90.0
_cell_angle_beta                 90.0
_cell_angle_gamma                 90.0
loop_
_atom_site_label
_atom_site_type_symbol
_atom_site_fract_x
_atom_site_fract_y
_atom_site_fract_z
Ce1     Ce     0.7929   0.8743   0.9514
Ce2     Ce     0.7929   0.8743   0.0486
Ce3     Ce     0.8743   0.7929   0.9514
Ce4     Ce     0.8743   0.7929   0.0486
Ce5     Ce     0.2071   0.8743   0.9514
Ce6     Ce     0.2071   0.8743   0.0486
Ce7     Ce     0.1257   0.7929   0.9514
Ce8     Ce     0.1257   0.7929   0.0486
Ce9     Ce     0.8743   0.2071   0.9514
Ce10     Ce     0.8743   0.2071   0.0486
Ce11     Ce     0.7929   0.1257   0.9514
Ce12     Ce     0.7929   0.1257   0.0486
Ce13     Ce     0.2071   0.1257   0.9514
Ce14     Ce     0.2071   0.1257   0.0486
Ce15     Ce     0.1257   0.2071   0.9514
Ce16     Ce     0.1257   0.2071   0.0486
Ce17     Ce     0.2929   0.3743   0.5486
Ce18     Ce     0.2929   0.3743   0.4514
Ce19     Ce     0.3743   0.2929   0.5486
Ce20     Ce     0.3743   0.2929   0.4514
Ti21     Ti     0.5576   0.7775   0.4005
Er22     Er     0.5   0.8535   0.3461
Ti23     Ti     0.4424   0.7775   0.4005
Ti24     Ti     0.2775   0.0576   0.0995
Er25     Er     0.3535   0.0   0.1539
Ti26     Ti     0.2775   0.9424   0.0995
Ti27     Ti     0.7225   0.9424   0.0995
Er28     Er     0.6465   0.0   0.1539
Ti29     Ti     0.7225   0.0576   0.0995
Ti30     Ti     0.5576   0.2225   0.4005
Er31     Er     0.5   0.1465   0.3461
Ti32     Ti     0.4424   0.2225   0.4005
V33     V     0.4424   0.0   0.2156
V34     V     0.5   0.0576   0.2844
V35     V     0.5576   0.0   0.2156
V36     V     0.5   0.9424   0.2844
Ce37     Ce     0.7071   0.3743   0.5486
Ce38     Ce     0.7071   0.3743   0.4514
Ce39     Ce     0.6257   0.2929   0.5486
Ce40     Ce     0.6257   0.2929   0.4514
Ti41     Ti     0.7225   0.0576   0.9005
Er42     Er     0.6465   0.0   0.8461
Ti43     Ti     0.7225   0.9424   0.9005
Ti44     Ti     0.2775   0.9424   0.9005
Er45     Er     0.3535   0.0   0.8461
Ti46     Ti     0.2775   0.0576   0.9005
Ti47     Ti     0.5576   0.7775   0.5995
Er48     Er     0.5   0.8535   0.6539
Ti49     Ti     0.4424   0.7775   0.5995
Ti50     Ti     0.5576   0.2225   0.5995
Er51     Er     0.5   0.1465   0.6539
Ti52     Ti     0.4424   0.2225   0.5995
V53     V     0.4424   0.0   0.7844
V54     V     0.5   0.9424   0.7156
V55     V     0.5576   0.0   0.7844
V56     V     0.5   0.0576   0.7156
Ce57     Ce     0.6257   0.7071   0.5486
Ce58     Ce     0.6257   0.7071   0.4514
Ce59     Ce     0.7071   0.6257   0.5486
Ce60     Ce     0.7071   0.6257   0.4514
Ti61     Ti     0.0576   0.2775   0.9005
Er62     Er     0.0   0.3535   0.8461
Ti63     Ti     0.9424   0.2775   0.9005
Ti64     Ti     0.9424   0.7225   0.9005
Er65     Er     0.0   0.6465   0.8461
Ti66     Ti     0.0576   0.7225   0.9005
Ti67     Ti     0.7775   0.5576   0.5995
Er68     Er     0.8535   0.5   0.6539
Ti69     Ti     0.7775   0.4424   0.5995
Ti70     Ti     0.2225   0.5576   0.5995
Er71     Er     0.1465   0.5   0.6539
Ti72     Ti     0.2225   0.4424   0.5995
V73     V     0.0   0.4424   0.7844
V74     V     0.0576   0.5   0.7156
V75     V     0.0   0.5576   0.7844
V76     V     0.9424   0.5   0.7156
Ce77     Ce     0.3743   0.7071   0.5486
Ce78     Ce     0.3743   0.7071   0.4514
Ce79     Ce     0.2929   0.6257   0.5486
Ce80     Ce     0.2929   0.6257   0.4514
Ti81     Ti     0.7775   0.5576   0.4005
Er82     Er     0.8535   0.5   0.3461
Ti83     Ti     0.7775   0.4424   0.4005
Ti84     Ti     0.0576   0.7225   0.0995
Er85     Er     0.0   0.6465   0.1539
Ti86     Ti     0.9424   0.7225   0.0995
Ti87     Ti     0.9424   0.2775   0.0995
Er88     Er     0.0   0.3535   0.1539
Ti89     Ti     0.0576   0.2775   0.0995
Ti90     Ti     0.2225   0.5576   0.4005
Er91     Er     0.1465   0.5   0.3461
Ti92     Ti     0.2225   0.4424   0.4005
V93     V     0.0   0.4424   0.2156
V94     V     0.0   0.5576   0.2156
V95     V     0.9424   0.5   0.2844
V96     V     0.0576   0.5   0.2844
loop_
_geom_bond_atom_site_label_1
_geom_bond_atom_site_label_2
_geom_bond_distance
_geom_bond_site_symmetry_2
_ccdc_geom_bond_type
Ce1     Ce2    9.999   1_556     S
Ce1     Ce3    10.0   .     S
Ce1     Ti43    10.0   .     S
Ce2     Ce1    9.999   1_554     S
Ce2     Ce4    10.0   .     S
Ce2     Ti27    10.0   .     S
Ce3     Ce4    9.999   1_556     S
Ce3     Ti64    10.0   .     S
Ce4     Ce3    9.999   1_554     S
Ce4     Ti86    10.0   .     S
Ce5     Ce6    9.999   1_556     S
Ce5     Ce7    10.0   .     S
Ce5     Ti44    10.0   .     S
Ce6     Ce5    9.999   1_554     S
Ce6     Ce8    10.0   .     S
Ce6     Ti26    10.0   .     S
Ce7     Ce8    9.999   1_556     S
Ce7     Ti66    10.0   .     S
Ce8     Ce7    9.999   1_554     S
Ce8     Ti84    10.0   .     S
Ce9     Ce10    9.999   1_556     S
Ce9     Ce11    10.0   .     S
Ce9     Ti63    10.0   .     S
Ce10     Ce9    9.999   1_554     S
Ce10     Ce12    10.0   .     S
Ce10     Ti87    10.0   .     S
Ce11     Ce12    9.999   1_556     S
Ce11     Ti41    10.0   .     S
Ce12     Ce11    9.999   1_554     S
Ce12     Ti29    10.0   .     S
Ce13     Ce14    9.999   1_556     S
Ce13     Ce15    10.0   .     S
Ce13     Ti46    10.0   .     S
Ce14     Ce13    9.999   1_554     S
Ce14     Ce16    10.0   .     S
Ce14     Ti24    10.0   .     S
Ce15     Ce16    9.999   1_556     S
Ce15     Ti61    10.0   .     S
Ce16     Ce15    9.999   1_554     S
Ce16     Ti89    10.0   .     S
Ce17     Ce18    9.999   .     S
Ce17     Ce19    10.0   .     S
Ce17     Ti72    10.0   .     S
Ce18     Ce20    10.0   .     S
Ce18     Ti92    10.0   .     S
Ce19     Ce20    9.999   .     S
Ce19     Ti52    10.0   .     S
Ce20     Ti32    10.0   .     S
Ti21     Ce58    10.0   .     S
Ti21     Er22    10.0   .     S
Ti21     Ti23    10.001   .     S
Er22     Ti23    10.0   .     S
Er22     V36    10.0   .     S
Ti23     Ce78    10.0   .     S
Ti24     Er25    10.0   .     S
Ti24     Ti26    10.001   1_545     S
Er25     Ti26    10.0   1_545     S
Er25     V33    10.0   .     S
Ti26     Er25    10.0   1_565     S
Ti26     Ti24    10.001   1_565     S
Ti27     Er28    10.0   1_565     S
Ti27     Ti29    10.001   1_565     S
Er28     Ti29    10.0   .     S
Er28     Ti27    10.0   1_545     S
Er28     V35    10.0   .     S
Ti29     Ti27    10.001   1_545     S
Ti30     Ce40    10.0   .     S
Ti30     Er31    10.0   .     S
Ti30     Ti32    10.001   .     S
Er31     Ti32    10.0   .     S
Er31     V34    10.0   .     S
V33     V35    10.001   .     S
V33     V36    10.0   1_545     S
V33     V34    10.0   .     S
V34     V36    10.001   1_545     S
V34     V35    10.0   .     S
V35     V36    10.0   1_545     S
V36     V35    10.0   1_565     S
V36     V34    10.001   1_565     S
V36     V33    10.0   1_565     S
Ce37     Ce38    9.999   .     S
Ce37     Ce39    10.0   .     S
Ce37     Ti69    10.0   .     S
Ce38     Ce40    10.0   .     S
Ce38     Ti83    10.0   .     S
Ce39     Ce40    9.999   .     S
Ce39     Ti50    10.0   .     S
Ti41     Er42    10.0   .     S
Ti41     Ti43    10.001   1_545     S
Er42     Ti43    10.0   1_545     S
Er42     V55    10.0   .     S
Ti43     Er42    10.0   1_565     S
Ti43     Ti41    10.001   1_565     S
Ti44     Er45    10.0   1_565     S
Ti44     Ti46    10.001   1_565     S
Er45     Ti46    10.0   .     S
Er45     Ti44    10.0   1_545     S
Er45     V53    10.0   .     S
Ti46     Ti44    10.001   1_545     S
Ti47     Ce57    10.0   .     S
Ti47     Er48    10.0   .     S
Ti47     Ti49    10.001   .     S
Er48     Ti49    10.0   .     S
Er48     V54    10.0   .     S
Ti49     Ce77    10.0   .     S
Ti50     Er51    10.0   .     S
Ti50     Ti52    10.001   .     S
Er51     Ti52    10.0   .     S
Er51     V56    10.0   .     S
V53     V55    10.001   .     S
V53     V54    10.0   1_545     S
V53     V56    10.0   .     S
V54     V55    10.0   1_565     S
V54     V56    10.001   1_565     S
V54     V53    10.0   1_565     S
V55     V54    10.0   1_545     S
V55     V56    10.0   .     S
V56     V54    10.001   1_545     S
Ce57     Ce58    9.999   .     S
Ce57     Ce59    10.0   .     S
Ce58     Ce60    10.0   .     S
Ce59     Ce60    9.999   .     S
Ce59     Ti67    10.0   .     S
Ce60     Ti81    10.0   .     S
Ti61     Er62    10.0   .     S
Ti61     Ti63    10.001   1_455     S
Er62     Ti63    10.0   1_455     S
Er62     V73    10.0   .     S
Ti63     Er62    10.0   1_655     S
Ti63     Ti61    10.001   1_655     S
Ti64     Er65    10.0   1_655     S
Ti64     Ti66    10.001   1_655     S
Er65     Ti66    10.0   .     S
Er65     Ti64    10.0   1_455     S
Er65     V75    10.0   .     S
Ti66     Ti64    10.001   1_455     S
Ti67     Er68    10.0   .     S
Ti67     Ti69    10.001   .     S
Er68     Ti69    10.0   .     S
Er68     V76    10.0   .     S
Ti70     Ce79    10.0   .     S
Ti70     Er71    10.0   .     S
Ti70     Ti72    10.001   .     S
Er71     Ti72    10.0   .     S
Er71     V74    10.0   .     S
V73     V75    10.001   .     S
V73     V76    10.0   1_455     S
V73     V74    10.0   .     S
V74     V76    10.001   1_455     S
V74     V75    10.0   .     S
V75     V76    10.0   1_455     S
V76     V75    10.0   1_655     S
V76     V74    10.001   1_655     S
V76     V73    10.0   1_655     S
Ce77     Ce78    9.999   .     S
Ce77     Ce79    10.0   .     S
Ce78     Ce80    10.0   .     S
Ce79     Ce80    9.999   .     S
Ce80     Ti90    10.0   .     S
Ti81     Er82    10.0   .     S
Ti81     Ti83    10.001   .     S
Er82     Ti83    10.0   .     S
Er82     V95    10.0   .     S
Ti84     Er85    10.0   .     S
Ti84     Ti86    10.001   1_455     S
Er85     Ti86    10.0   1_455     S
Er85     V94    10.0   .     S
Ti86     Er85    10.0   1_655     S
Ti86     Ti84    10.001   1_655     S
Ti87     Er88    10.0   1_655     S
Ti87     Ti89    10.001   1_655     S
Er88     Ti89    10.0   .     S
Er88     Ti87    10.0   1_455     S
Er88     V93    10.0   .     S
Ti89     Ti87    10.001   1_455     S
Ti90     Er91    10.0   .     S
Ti90     Ti92    10.001   .     S
Er91     Ti92    10.0   .     S
Er91     V96    10.0   .     S
V93     V94    10.001   .     S
V93     V95    10.0   1_455     S
V93     V96    10.0   .     S
V94     V95    10.0   1_455     S
V94     V96    10.0   .     S
V95     V94    10.0   1_655     S
V95     V96    10.001   1_655     S
V95     V93    10.0   1_655     S
V96     V95    10.001   1_455     S
