data_eri
_audit_creation_date              2020-02-04
_audit_creation_method            'Pymatgen'
_symmetry_space_group_name_H-M    'P1'
_symmetry_Int_Tables_number       1
loop_
_symmetry_equiv_pos_as_xyz
  x,y,z
_cell_length_a                    42.1644
_cell_length_b                    42.1644
_cell_length_c                    48.4746
_cell_angle_alpha                 90.0
_cell_angle_beta                 90.0
_cell_angle_gamma                 120.0
loop_
_atom_site_label
_atom_site_type_symbol
_atom_site_fract_x
_atom_site_fract_y
_atom_site_fract_z
Er1     Er     0.3333   0.9038   0.25
Er2     Er     0.5705   0.9038   0.25
Er3     Er     0.5705   0.6667   0.25
Er4     Er     0.3333   0.4295   0.25
Er5     Er     0.0962   0.4295   0.25
Er6     Er     0.0962   0.6667   0.25
V7     V     0.0   0.2372   0.8968
V8     V     0.7628   0.0   0.8968
V9     V     0.7628   0.7628   0.1032
V10     V     0.2372   0.2372   0.1032
V11     V     0.0   0.2372   0.1032
V12     V     0.7628   0.0   0.1032
V13     V     0.2372   0.0   0.1032
V14     V     0.0   0.7628   0.1032
V15     V     0.7628   0.7628   0.8968
V16     V     0.2372   0.2372   0.8968
V17     V     0.2372   0.0   0.8968
V18     V     0.0   0.7628   0.8968
Er19     Er     0.9038   0.3333   0.75
Er20     Er     0.9038   0.5705   0.75
Er21     Er     0.6667   0.0962   0.75
Er22     Er     0.6667   0.5705   0.75
Er23     Er     0.4295   0.0962   0.75
Er24     Er     0.4295   0.3333   0.75
V25     V     0.7628   0.7628   0.6032
V26     V     0.7628   0.0   0.6032
V27     V     0.0   0.2372   0.6032
V28     V     0.2372   0.2372   0.6032
V29     V     0.2372   0.0   0.6032
V30     V     0.0   0.7628   0.6032
V31     V     0.0   0.7628   0.3968
V32     V     0.7628   0.7628   0.3969
V33     V     0.2372   0.0   0.3969
V34     V     0.2372   0.2372   0.3968
V35     V     0.0   0.2372   0.3969
V36     V     0.7628   0.0   0.3968
loop_
_geom_bond_atom_site_label_1
_geom_bond_atom_site_label_2
_geom_bond_distance
_geom_bond_site_symmetry_2
_ccdc_geom_bond_type
Er1     Er2    10.0   .     S
Er1     Er6    10.0   .     S
Er1     V13    10.0   1_565     S
Er1     V33    10.0   1_565     S
Er2     Er3    10.0   .     S
Er2     V12    10.0   1_565     S
Er2     V36    10.0   1_565     S
Er3     Er4    10.0   .     S
Er3     V9    10.0   .     S
Er3     V32    10.0   .     S
Er4     Er5    10.0   .     S
Er4     V10    10.0   .     S
Er4     V34    10.0   .     S
Er5     Er6    10.0   .     S
Er5     V11    10.0   .     S
Er5     V35    10.0   .     S
Er6     V14    10.0   .     S
Er6     V31    10.0   .     S
V7     Er19    10.0   1_455     S
V7     V16    10.0   .     S
V7     V8    10.0   1_455     S
V7     V11    10.0   1_556     S
V8     Er21    10.0   .     S
V8     V7    10.0   1_655     S
V8     V12    10.0   1_556     S
V8     V15    10.0   1_545     S
V9     V14    10.0   1_655     S
V9     V12    10.0   1_565     S
V9     V15    10.0   1_554     S
V10     V11    10.0   .     S
V10     V13    10.0   .     S
V10     V16    10.0   1_554     S
V11     V7    10.0   1_554     S
V11     V12    10.0   1_455     S
V12     V8    10.0   1_554     S
V12     V11    10.0   1_655     S
V12     Er2    10.0   1_545     S
V12     V9    10.0   1_545     S
V13     Er1    10.0   1_545     S
V13     V14    10.0   1_545     S
V13     V17    10.0   1_554     S
V14     V9    10.0   1_455     S
V14     V13    10.0   1_565     S
V14     V18    10.0   1_554     S
V15     Er22    10.0   .     S
V15     V8    10.0   1_565     S
V15     V18    10.0   1_655     S
V15     V9    10.0   1_556     S
V16     Er24    10.0   .     S
V16     V17    10.0   .     S
V16     V10    10.0   1_556     S
V17     Er23    10.0   .     S
V17     V18    10.0   1_545     S
V17     V13    10.0   1_556     S
V18     V15    10.0   1_455     S
V18     V17    10.0   1_565     S
V18     Er20    10.0   1_455     S
V18     V14    10.0   1_556     S
Er19     V7    10.0   1_655     S
Er19     Er20    10.0   .     S
Er19     Er21    10.0   .     S
Er19     V27    10.0   1_655     S
Er20     V18    10.0   1_655     S
Er20     Er22    10.0   .     S
Er20     V30    10.0   1_655     S
Er21     Er23    10.0   .     S
Er21     V26    10.0   .     S
Er22     Er24    10.0   .     S
Er22     V25    10.0   .     S
Er23     Er24    10.0   .     S
Er23     V29    10.0   .     S
Er24     V28    10.0   .     S
V25     V26    10.0   1_565     S
V25     V30    10.0   1_655     S
V25     V32    10.0   .     S
V26     V25    10.0   1_545     S
V26     V27    10.0   1_655     S
V26     V36    10.0   .     S
V27     V26    10.0   1_455     S
V27     Er19    10.0   1_455     S
V27     V28    10.0   .     S
V27     V35    10.0   .     S
V28     V29    10.0   .     S
V28     V34    10.0   .     S
V29     V30    10.0   1_545     S
V29     V33    10.0   .     S
V30     V25    10.0   1_455     S
V30     V29    10.0   1_565     S
V30     Er20    10.0   1_455     S
V30     V31    10.0   .     S
V31     V32    10.0   1_455     S
V31     V33    10.0   1_565     S
V32     V31    10.0   1_655     S
V32     V36    10.0   1_565     S
V33     V31    10.0   1_545     S
V33     Er1    10.0   1_545     S
V33     V34    10.0   .     S
V34     V35    10.0   .     S
V35     V36    10.0   1_455     S
V36     V35    10.0   1_655     S
V36     Er2    10.0   1_545     S
V36     V32    10.0   1_545     S
