data_esga
_audit_creation_date              2020-02-04
_audit_creation_method            'Pymatgen'
_symmetry_space_group_name_H-M    'P1'
_symmetry_Int_Tables_number       1
loop_
_symmetry_equiv_pos_as_xyz
  x,y,z
_cell_length_a                    66.6414
_cell_length_b                    30.1505
_cell_length_c                    60.5791
_cell_angle_alpha                 90.0
_cell_angle_beta                 115.3275
_cell_angle_gamma                 90.0
loop_
_atom_site_label
_atom_site_type_symbol
_atom_site_fract_x
_atom_site_fract_y
_atom_site_fract_z
S1     S     0.923   0.6278   0.2669
Ce2     Ce     0.7788   0.526   0.1352
H3     H     0.9211   0.3921   0.1496
Er4     Er     0.5198   0.3435   0.0939
Ti5     Ti     0.6134   0.5581   0.054
V6     V     0.5217   0.3354   0.9299
Er7     Er     0.4802   0.6565   0.9061
Ti8     Ti     0.3866   0.4419   0.946
V9     V     0.4783   0.6646   0.0701
S10     S     0.077   0.3722   0.7331
Ce11     Ce     0.2212   0.474   0.8648
H12     H     0.0789   0.6079   0.8504
S13     S     0.423   0.8722   0.7669
Ce14     Ce     0.2788   0.974   0.6352
H15     H     0.4211   0.1079   0.6496
Er16     Er     0.9802   0.8435   0.4061
Ti17     Ti     0.8866   0.0581   0.446
V18     V     0.9783   0.8354   0.5701
Er19     Er     0.0198   0.1565   0.5939
Ti20     Ti     0.1134   0.9419   0.554
V21     V     0.0217   0.1646   0.4299
S22     S     0.577   0.1278   0.2331
Ce23     Ce     0.7212   0.026   0.3648
H24     H     0.5789   0.8921   0.3504
S25     S     0.577   0.8722   0.7331
Ce26     Ce     0.7212   0.974   0.8648
H27     H     0.5789   0.1079   0.8504
Er28     Er     0.9802   0.1565   0.9061
Ti29     Ti     0.8866   0.9419   0.946
V30     V     0.9783   0.1646   0.0701
Er31     Er     0.0198   0.8435   0.0939
Ti32     Ti     0.1134   0.0581   0.054
V33     V     0.0217   0.8354   0.9299
S34     S     0.423   0.1278   0.2669
Ce35     Ce     0.2788   0.026   0.1352
H36     H     0.4211   0.8921   0.1496
S37     S     0.923   0.3722   0.7669
Ce38     Ce     0.7788   0.474   0.6352
H39     H     0.9211   0.6079   0.6496
Er40     Er     0.5198   0.6565   0.5939
Ti41     Ti     0.6134   0.4419   0.554
V42     V     0.5217   0.6646   0.4299
Er43     Er     0.4802   0.3435   0.4061
Ti44     Ti     0.3866   0.5581   0.446
V45     V     0.4783   0.3354   0.5701
S46     S     0.077   0.6278   0.2331
Ce47     Ce     0.2212   0.526   0.3648
H48     H     0.0789   0.3921   0.3504
loop_
_geom_bond_atom_site_label_1
_geom_bond_atom_site_label_2
_geom_bond_distance
_geom_bond_site_symmetry_2
_ccdc_geom_bond_type
S1     H3    10.012   .     S
S1     Ce2    9.994   .     S
S1     Er16    10.021   .     S
Ce2     H3    9.997   .     S
Ce2     Ti5    10.008   .     S
H3     V30    10.024   .     S
Er4     V6    9.996   1_554     S
Er4     Ti5    9.981   .     S
Er4     V9    10.001   .     S
Er4     Ti8    9.991   1_554     S
Er4     S22    10.021   .     S
Ti5     Er7    9.991   1_554     S
Ti5     V6    9.982   1_554     S
Ti5     V9    9.994   .     S
V6     Ti8    9.994   .     S
V6     Er7    10.001   .     S
V6     Ti5    9.982   1_556     S
V6     Er4    9.996   1_556     S
V6     H27    10.024   .     S
Er7     Ti5    9.991   1_556     S
Er7     V9    9.996   1_556     S
Er7     Ti8    9.981   .     S
Er7     S13    10.021   .     S
Ti8     V9    9.982   1_556     S
Ti8     Er4    9.991   1_556     S
Ti8     Ce11    10.008   .     S
V9     Ti8    9.982   1_554     S
V9     Er7    9.996   1_554     S
V9     H36    10.024   .     S
S10     H12    10.012   .     S
S10     Ce11    9.994   .     S
S10     Er19    10.021   .     S
Ce11     H12    9.997   .     S
H12     V33    10.024   .     S
S13     H15    10.012   1_565     S
S13     Ce14    9.994   .     S
Ce14     H15    9.997   1_565     S
Ce14     Ti20    10.008   .     S
H15     Ce14    9.997   1_545     S
H15     S13    10.012   1_545     S
H15     V45    10.024   .     S
Er16     V18    9.996   .     S
Er16     Ti17    9.981   1_565     S
Er16     V21    10.001   1_665     S
Er16     Ti20    9.991   1_655     S
Ti17     V18    9.982   1_545     S
Ti17     Er16    9.981   1_545     S
Ti17     Er19    9.991   1_655     S
Ti17     V21    9.994   1_655     S
Ti17     Ce23    10.008   .     S
V18     Ti17    9.982   1_565     S
V18     Ti20    9.994   1_655     S
V18     Er19    10.001   1_665     S
V18     H39    10.024   .     S
Er19     V18    10.001   1_445     S
Er19     Ti17    9.991   1_455     S
Er19     V21    9.996   .     S
Er19     Ti20    9.981   1_545     S
Ti20     V18    9.994   1_455     S
Ti20     Er16    9.991   1_455     S
Ti20     V21    9.982   1_565     S
Ti20     Er19    9.981   1_565     S
V21     Ti17    9.994   1_455     S
V21     Er16    10.001   1_445     S
V21     Ti20    9.982   1_545     S
V21     H48    10.024   .     S
S22     H24    10.012   1_545     S
S22     Ce23    9.994   .     S
Ce23     H24    9.997   1_545     S
H24     Ce23    9.997   1_565     S
H24     S22    10.012   1_565     S
H24     V42    10.024   .     S
S25     H27    10.012   1_565     S
S25     Ce26    9.994   .     S
S25     Er40    10.021   .     S
Ce26     H27    9.997   1_565     S
Ce26     Ti29    10.008   .     S
H27     Ce26    9.997   1_545     S
H27     S25    10.012   1_545     S
Er28     V30    9.996   1_556     S
Er28     Ti29    9.981   1_545     S
Er28     V33    10.001   1_645     S
Er28     Ti32    9.991   1_656     S
Er28     S37    10.021   .     S
Ti29     V30    9.982   1_566     S
Ti29     Er28    9.981   1_565     S
Ti29     Er31    9.991   1_656     S
Ti29     V33    9.994   1_655     S
V30     Ti29    9.982   1_544     S
V30     Er28    9.996   1_554     S
V30     Ti32    9.994   1_655     S
V30     Er31    10.001   1_645     S
Er31     V30    10.001   1_465     S
Er31     Ti29    9.991   1_454     S
Er31     V33    9.996   1_554     S
Er31     Ti32    9.981   1_565     S
Er31     S46    10.021   .     S
Ti32     V30    9.994   1_455     S
Ti32     V33    9.982   1_544     S
Ti32     Er31    9.981   1_545     S
Ti32     Er28    9.991   1_454     S
Ti32     Ce35    10.008   .     S
V33     Ti32    9.982   1_566     S
V33     Er31    9.996   1_556     S
V33     Ti29    9.994   1_455     S
V33     Er28    10.001   1_465     S
S34     H36    10.012   1_545     S
S34     Ce35    9.994   .     S
S34     Er43    10.021   .     S
Ce35     H36    9.997   1_545     S
H36     Ce35    9.997   1_565     S
H36     S34    10.012   1_565     S
S37     H39    10.012   .     S
S37     Ce38    9.994   .     S
Ce38     H39    9.997   .     S
Ce38     Ti41    10.008   .     S
Er40     V42    9.996   .     S
Er40     Ti41    9.981   .     S
Er40     V45    10.001   .     S
Er40     Ti44    9.991   .     S
Ti41     Er43    9.991   .     S
Ti41     V42    9.982   .     S
Ti41     V45    9.994   .     S
V42     Ti44    9.994   .     S
V42     Er43    10.001   .     S
Er43     V45    9.996   .     S
Er43     Ti44    9.981   .     S
Ti44     V45    9.982   .     S
Ti44     Ce47    10.008   .     S
S46     H48    10.012   .     S
S46     Ce47    9.994   .     S
Ce47     H48    9.997   .     S
