data_etb
_audit_creation_date              2020-02-04
_audit_creation_method            'Pymatgen'
_symmetry_space_group_name_H-M    'P1'
_symmetry_Int_Tables_number       1
loop_
_symmetry_equiv_pos_as_xyz
  x,y,z
_cell_length_a                    53.7215
_cell_length_b                    53.7215
_cell_length_c                    21.8625
_cell_angle_alpha                 90.0
_cell_angle_beta                 90.0
_cell_angle_gamma                 120.0
loop_
_atom_site_label
_atom_site_type_symbol
_atom_site_fract_x
_atom_site_fract_y
_atom_site_fract_z
V1     V     0.4069   0.4069   0.0
V2     V     0.5931   0.5931   0.0
V3     V     0.2597   0.3333   0.3333
V4     V     0.0736   0.3333   0.3333
V5     V     0.3333   0.2597   0.6667
V6     V     0.3333   0.0736   0.6667
V7     V     0.7403   0.6667   0.6667
V8     V     0.9264   0.6667   0.6667
V9     V     0.6667   0.9264   0.3333
V10     V     0.6667   0.7403   0.3333
V11     V     0.7403   0.0736   0.6667
V12     V     0.9264   0.2597   0.6667
V13     V     0.0   0.5931   0.0
V14     V     0.0   0.4069   0.0
V15     V     0.0736   0.7403   0.3333
V16     V     0.2597   0.9264   0.3333
V17     V     0.4069   0.0   0.0
V18     V     0.5931   0.0   0.0
loop_
_geom_bond_atom_site_label_1
_geom_bond_atom_site_label_2
_geom_bond_distance
_geom_bond_site_symmetry_2
_ccdc_geom_bond_type
V1     V3    10.0   .     S
V1     V2    10.0   .     S
V1     V5    10.0   1_554     S
V2     V7    10.0   1_554     S
V2     V10    10.0   .     S
V3     V4    10.0   .     S
V3     V5    10.0   .     S
V4     V12    10.0   1_455     S
V4     V14    10.0   .     S
V5     V1    10.0   1_556     S
V5     V6    10.0   .     S
V6     V16    10.0   1_545     S
V6     V17    10.0   1_556     S
V7     V2    10.0   1_556     S
V7     V8    10.0   .     S
V7     V10    10.0   .     S
V8     V15    10.0   1_655     S
V8     V13    10.0   1_656     S
V9     V11    10.0   1_565     S
V9     V10    10.0   .     S
V9     V18    10.0   1_565     S
V11     V9    10.0   1_545     S
V11     V12    10.0   .     S
V11     V18    10.0   1_556     S
V12     V4    10.0   1_655     S
V12     V14    10.0   1_656     S
V13     V8    10.0   1_454     S
V13     V14    10.0   .     S
V13     V15    10.0   .     S
V14     V12    10.0   1_454     S
V15     V8    10.0   1_455     S
V15     V16    10.0   .     S
V16     V6    10.0   1_565     S
V16     V17    10.0   1_565     S
V17     V6    10.0   1_554     S
V17     V16    10.0   1_545     S
V17     V18    10.0   .     S
V18     V9    10.0   1_545     S
V18     V11    10.0   1_554     S
