data_eti
_audit_creation_date              2020-02-04
_audit_creation_method            'Pymatgen'
_symmetry_space_group_name_H-M    'P1'
_symmetry_Int_Tables_number       1
loop_
_symmetry_equiv_pos_as_xyz
  x,y,z
_cell_length_a                    54.6504
_cell_length_b                    54.6504
_cell_length_c                    57.5009
_cell_angle_alpha                 90.0
_cell_angle_beta                 90.0
_cell_angle_gamma                 90.0
loop_
_atom_site_label
_atom_site_type_symbol
_atom_site_fract_x
_atom_site_fract_y
_atom_site_fract_z
Er1     Er     0.8095   0.721   0.19
Er2     Er     0.6905   0.779   0.31
V3     V     0.9112   0.4311   0.3073
V4     V     0.9112   0.5689   0.1928
Er5     Er     0.8095   0.279   0.31
Er6     Er     0.6905   0.221   0.19
V7     V     0.5888   0.0689   0.1927
V8     V     0.5888   0.9311   0.3073
Er9     Er     0.8095   0.779   0.69
Er10     Er     0.6905   0.721   0.81
V11     V     0.5888   0.4311   0.6928
V12     V     0.5888   0.5689   0.8072
Er13     Er     0.8095   0.221   0.81
Er14     Er     0.6905   0.279   0.69
V15     V     0.9112   0.0689   0.8072
V16     V     0.9112   0.9311   0.6928
V17     V     0.3189   0.3388   0.5572
V18     V     0.1811   0.3388   0.4428
Er19     Er     0.529   0.5595   0.44
Er20     Er     0.471   0.4405   0.56
Er21     Er     0.971   0.5595   0.56
Er22     Er     0.029   0.4405   0.44
V23     V     0.8189   0.6612   0.5572
V24     V     0.6811   0.6612   0.4428
V25     V     0.8189   0.3388   0.9428
V26     V     0.6811   0.3388   0.0573
Er27     Er     0.971   0.4405   0.94
Er28     Er     0.029   0.5595   0.06
Er29     Er     0.529   0.4405   0.06
Er30     Er     0.471   0.5595   0.94
V31     V     0.3189   0.6612   0.9428
V32     V     0.1811   0.6612   0.0572
Er33     Er     0.1905   0.779   0.19
Er34     Er     0.3095   0.721   0.31
V35     V     0.4112   0.4311   0.1928
V36     V     0.4112   0.5689   0.3073
Er37     Er     0.1905   0.221   0.31
Er38     Er     0.3095   0.279   0.19
V39     V     0.0888   0.0689   0.3073
V40     V     0.0888   0.9311   0.1928
Er41     Er     0.529   0.9405   0.94
Er42     Er     0.471   0.0595   0.06
V43     V     0.8189   0.8388   0.0572
V44     V     0.6811   0.8388   0.9428
Er45     Er     0.971   0.9405   0.06
Er46     Er     0.029   0.0595   0.94
V47     V     0.3189   0.1612   0.0573
V48     V     0.1811   0.1612   0.9428
Er49     Er     0.3095   0.779   0.81
Er50     Er     0.1905   0.721   0.69
V51     V     0.0888   0.4311   0.8072
V52     V     0.0888   0.5689   0.6928
V53     V     0.4112   0.0689   0.6928
V54     V     0.4112   0.9311   0.8072
Er55     Er     0.1905   0.279   0.81
Er56     Er     0.3095   0.221   0.69
V57     V     0.3189   0.8388   0.4428
V58     V     0.1811   0.8388   0.5572
V59     V     0.8189   0.1612   0.4428
V60     V     0.6811   0.1612   0.5572
Er61     Er     0.029   0.9405   0.56
Er62     Er     0.971   0.0595   0.44
Er63     Er     0.471   0.9405   0.44
Er64     Er     0.529   0.0595   0.56
loop_
_geom_bond_atom_site_label_1
_geom_bond_atom_site_label_2
_geom_bond_distance
_geom_bond_site_symmetry_2
_ccdc_geom_bond_type
Er1     Er2    10.0   .     S
Er1     V4    10.0   .     S
Er1     V43    10.0   .     S
Er2     V8    10.0   .     S
Er2     V24    10.0   .     S
V3     V4    10.0   .     S
V3     Er5    10.0   .     S
V3     Er22    10.0   1_655     S
V4     Er28    10.0   1_655     S
Er5     Er6    10.0   .     S
Er5     V59    10.0   .     S
Er6     V7    10.0   .     S
Er6     V26    10.0   .     S
V7     V8    10.0   1_545     S
V7     Er42    10.0   .     S
V8     V7    10.0   1_565     S
V8     Er63    10.0   .     S
Er9     Er10    10.0   .     S
Er9     V16    10.0   .     S
Er9     V23    10.0   .     S
Er10     V12    10.0   .     S
Er10     V44    10.0   .     S
V11     V12    10.0   .     S
V11     Er14    10.0   .     S
V11     Er20    10.0   .     S
V12     Er30    10.0   .     S
Er13     Er14    10.0   .     S
Er13     V15    10.0   .     S
Er13     V25    10.0   .     S
Er14     V60    10.0   .     S
V15     V16    10.0   1_545     S
V15     Er46    10.0   1_655     S
V16     V15    10.0   1_565     S
V16     Er61    10.0   1_655     S
V17     V18    10.0   .     S
V17     Er20    10.0   .     S
V17     Er56    10.0   .     S
V18     Er22    10.0   .     S
V18     Er37    10.0   .     S
Er19     Er20    10.0   .     S
Er19     V24    10.0   .     S
Er19     V36    10.0   .     S
Er21     Er22    10.0   1_655     S
Er21     V23    10.0   .     S
Er21     V52    10.0   1_655     S
Er22     V3    10.0   1_455     S
Er22     Er21    10.0   1_455     S
V23     V24    10.0   .     S
V25     V26    10.0   1_556     S
V25     Er27    10.0   .     S
V26     V25    10.0   1_554     S
V26     Er29    10.0   .     S
Er27     Er28    10.0   1_656     S
Er27     V51    10.0   1_655     S
Er28     Er27    10.0   1_454     S
Er28     V32    10.0   .     S
Er28     V4    10.0   1_455     S
Er29     Er30    10.0   1_554     S
Er29     V35    10.0   .     S
Er30     Er29    10.0   1_556     S
Er30     V31    10.0   .     S
V31     V32    10.0   1_556     S
V31     Er49    10.0   .     S
V32     V31    10.0   1_554     S
V32     Er33    10.0   .     S
Er33     Er34    10.0   .     S
Er33     V40    10.0   .     S
Er34     V36    10.0   .     S
Er34     V57    10.0   .     S
V35     V36    10.0   .     S
V35     Er38    10.0   .     S
Er37     Er38    10.0   .     S
Er37     V39    10.0   .     S
Er38     V47    10.0   .     S
V39     V40    10.0   1_545     S
V39     Er62    10.0   1_455     S
V40     V39    10.0   1_565     S
V40     Er45    10.0   1_455     S
Er41     Er42    10.0   1_566     S
Er41     V44    10.0   .     S
Er41     V54    10.0   .     S
Er42     Er41    10.0   1_544     S
Er42     V47    10.0   .     S
V43     V44    10.0   1_554     S
V43     Er45    10.0   .     S
V44     V43    10.0   1_556     S
Er45     Er46    10.0   1_664     S
Er45     V40    10.0   1_655     S
Er46     Er45    10.0   1_446     S
Er46     V48    10.0   .     S
Er46     V15    10.0   1_455     S
V47     V48    10.0   1_554     S
V48     V47    10.0   1_556     S
V48     Er55    10.0   .     S
Er49     Er50    10.0   .     S
Er49     V54    10.0   .     S
Er50     V52    10.0   .     S
Er50     V58    10.0   .     S
V51     V52    10.0   .     S
V51     Er55    10.0   .     S
V51     Er27    10.0   1_455     S
V52     Er21    10.0   1_455     S
V53     V54    10.0   1_545     S
V53     Er56    10.0   .     S
V53     Er64    10.0   .     S
V54     V53    10.0   1_565     S
Er55     Er56    10.0   .     S
V57     V58    10.0   .     S
V57     Er63    10.0   .     S
V58     Er61    10.0   .     S
V59     V60    10.0   .     S
V59     Er62    10.0   .     S
V60     Er64    10.0   .     S
Er61     Er62    10.0   1_465     S
Er61     V16    10.0   1_455     S
Er62     Er61    10.0   1_645     S
Er62     V39    10.0   1_655     S
Er63     Er64    10.0   1_565     S
Er64     Er63    10.0   1_545     S
