data_etk
_audit_creation_date              2020-02-04
_audit_creation_method            'Pymatgen'
_symmetry_space_group_name_H-M    'P1'
_symmetry_Int_Tables_number       1
loop_
_symmetry_equiv_pos_as_xyz
  x,y,z
_cell_length_a                    91.9887
_cell_length_b                    91.9887
_cell_length_c                    91.9887
_cell_angle_alpha                 90.0
_cell_angle_beta                 90.0
_cell_angle_gamma                 90.0
loop_
_atom_site_label
_atom_site_type_symbol
_atom_site_fract_x
_atom_site_fract_y
_atom_site_fract_z
Er1     Er     0.4137   0.5544   0.2994
Er2     Er     0.4137   0.4456   0.2994
Er3     Er     0.2994   0.4137   0.5544
Er4     Er     0.2994   0.4137   0.4456
Er5     Er     0.5544   0.2994   0.4137
Er6     Er     0.4456   0.2994   0.4137
Er7     Er     0.5544   0.2994   0.5863
Er8     Er     0.4456   0.2994   0.5863
Er9     Er     0.5863   0.4456   0.2994
Er10     Er     0.5863   0.5544   0.2994
Er11     Er     0.2994   0.5863   0.4456
Er12     Er     0.2994   0.5863   0.5544
Er13     Er     0.4456   0.7006   0.4137
Er14     Er     0.5544   0.7006   0.4137
V15     V     0.6136   0.6136   0.3864
Er16     Er     0.4137   0.4456   0.7006
Er17     Er     0.4137   0.5544   0.7006
V18     V     0.3864   0.6136   0.6136
Er19     Er     0.4456   0.7006   0.5863
Er20     Er     0.5544   0.7006   0.5863
Er21     Er     0.7006   0.5863   0.4456
Er22     Er     0.7006   0.5863   0.5544
V23     V     0.6136   0.6136   0.6136
Er24     Er     0.5863   0.5544   0.7006
Er25     Er     0.5863   0.4456   0.7006
Er26     Er     0.7006   0.4137   0.5544
Er27     Er     0.7006   0.4137   0.4456
V28     V     0.6136   0.3864   0.3864
V29     V     0.6136   0.3864   0.6136
V30     V     0.3864   0.3864   0.6136
V31     V     0.3864   0.6136   0.3864
V32     V     0.3864   0.3864   0.3864
Er33     Er     0.4456   0.2006   0.0863
Er34     Er     0.5544   0.2006   0.0863
Er35     Er     0.4456   0.7994   0.9137
Er36     Er     0.5544   0.7994   0.9137
Er37     Er     0.2994   0.0863   0.9456
Er38     Er     0.2994   0.0863   0.0543
V39     V     0.3864   0.1136   0.8864
Er40     Er     0.4137   0.0544   0.2006
Er41     Er     0.4137   0.9456   0.2006
Er42     Er     0.2994   0.9137   0.0544
Er43     Er     0.2994   0.9137   0.9456
Er44     Er     0.4137   0.0544   0.7994
Er45     Er     0.4137   0.9456   0.7994
V46     V     0.3864   0.8864   0.8864
V47     V     0.3864   0.8864   0.1136
Er48     Er     0.4456   0.2006   0.9137
Er49     Er     0.5544   0.2006   0.9137
Er50     Er     0.7006   0.0863   0.0544
Er51     Er     0.7006   0.0863   0.9456
V52     V     0.6136   0.1136   0.8864
V53     V     0.6136   0.1136   0.1136
Er54     Er     0.5544   0.7994   0.0863
Er55     Er     0.4456   0.7994   0.0863
Er56     Er     0.5863   0.0544   0.7994
Er57     Er     0.5863   0.9456   0.7994
Er58     Er     0.7006   0.9137   0.9456
Er59     Er     0.7006   0.9137   0.0543
V60     V     0.6136   0.8864   0.8864
Er61     Er     0.5863   0.0544   0.2006
Er62     Er     0.5863   0.9456   0.2006
V63     V     0.6136   0.8864   0.1136
V64     V     0.3864   0.1136   0.1136
Er65     Er     0.4456   0.4137   0.2006
Er66     Er     0.5544   0.4137   0.2006
Er67     Er     0.5544   0.5863   0.7994
Er68     Er     0.4456   0.5863   0.7994
Er69     Er     0.4456   0.4137   0.7994
Er70     Er     0.5544   0.4137   0.7994
Er71     Er     0.4456   0.5863   0.2006
Er72     Er     0.5544   0.5863   0.2006
Er73     Er     0.5863   0.2994   0.0544
Er74     Er     0.5863   0.2994   0.9456
V75     V     0.6136   0.3864   0.8864
Er76     Er     0.7006   0.4456   0.9137
Er77     Er     0.7006   0.5544   0.9137
Er78     Er     0.7006   0.4456   0.0863
Er79     Er     0.7006   0.5544   0.0863
Er80     Er     0.5863   0.7006   0.0544
Er81     Er     0.5863   0.7006   0.9456
V82     V     0.6136   0.6136   0.8864
V83     V     0.6136   0.6136   0.1136
V84     V     0.6136   0.3864   0.1136
Er85     Er     0.4137   0.2994   0.0544
Er86     Er     0.4137   0.2994   0.9456
Er87     Er     0.2994   0.4456   0.0863
Er88     Er     0.2994   0.5544   0.0863
Er89     Er     0.2994   0.4456   0.9137
Er90     Er     0.2994   0.5544   0.9137
Er91     Er     0.4137   0.7006   0.0544
Er92     Er     0.4137   0.7006   0.9456
V93     V     0.3864   0.6136   0.8864
V94     V     0.3864   0.6136   0.1136
V95     V     0.3864   0.3864   0.8864
V96     V     0.3864   0.3864   0.1136
Er97     Er     0.0863   0.5544   0.2006
Er98     Er     0.0863   0.4456   0.2006
Er99     Er     0.0544   0.2994   0.0863
Er100     Er     0.9456   0.2994   0.0863
Er101     Er     0.7994   0.4137   0.0544
Er102     Er     0.7994   0.4137   0.9456
Er103     Er     0.0863   0.4456   0.7994
Er104     Er     0.0863   0.5544   0.7994
Er105     Er     0.7994   0.5863   0.9456
Er106     Er     0.7994   0.5863   0.0543
Er107     Er     0.2006   0.5863   0.0544
Er108     Er     0.2006   0.5863   0.9456
V109     V     0.1136   0.6136   0.8864
Er110     Er     0.9456   0.7006   0.9137
Er111     Er     0.0543   0.7006   0.9137
V112     V     0.8864   0.6136   0.8864
Er113     Er     0.9137   0.4456   0.2006
Er114     Er     0.9137   0.5544   0.2006
Er115     Er     0.0544   0.7006   0.0863
Er116     Er     0.9456   0.7006   0.0863
V117     V     0.8864   0.6136   0.1136
V118     V     0.1136   0.6136   0.1136
Er119     Er     0.9137   0.5544   0.7994
Er120     Er     0.9137   0.4456   0.7994
Er121     Er     0.2006   0.4137   0.9456
Er122     Er     0.2006   0.4137   0.0543
Er123     Er     0.0544   0.2994   0.9137
Er124     Er     0.9456   0.2994   0.9137
V125     V     0.8864   0.3864   0.8864
V126     V     0.1136   0.3864   0.8864
V127     V     0.8864   0.3864   0.1136
V128     V     0.1136   0.3864   0.1136
Er129     Er     0.2006   0.5544   0.4137
Er130     Er     0.2006   0.4456   0.4137
Er131     Er     0.0863   0.2994   0.5544
Er132     Er     0.0863   0.2994   0.4456
Er133     Er     0.7994   0.4456   0.4137
Er134     Er     0.7994   0.5544   0.4137
Er135     Er     0.0544   0.4137   0.2994
Er136     Er     0.9456   0.4137   0.2994
Er137     Er     0.7994   0.4456   0.5863
Er138     Er     0.7994   0.5544   0.5863
Er139     Er     0.9137   0.2994   0.4456
Er140     Er     0.9137   0.2994   0.5544
Er141     Er     0.0544   0.4137   0.7006
Er142     Er     0.9456   0.4137   0.7006
V143     V     0.8864   0.3864   0.6136
V144     V     0.1136   0.3864   0.6136
Er145     Er     0.2006   0.4456   0.5863
Er146     Er     0.2006   0.5544   0.5863
Er147     Er     0.0544   0.5863   0.2994
Er148     Er     0.9456   0.5863   0.2994
V149     V     0.8864   0.6136   0.3864
Er150     Er     0.9137   0.7006   0.4456
Er151     Er     0.9137   0.7006   0.5544
Er152     Er     0.0863   0.7006   0.4456
Er153     Er     0.0863   0.7006   0.5544
Er154     Er     0.0544   0.5863   0.7006
Er155     Er     0.9456   0.5863   0.7006
V156     V     0.8864   0.6136   0.6136
V157     V     0.1136   0.6136   0.6136
V158     V     0.1136   0.6136   0.3864
V159     V     0.8864   0.3864   0.3864
V160     V     0.1136   0.3864   0.3864
Er161     Er     0.9456   0.2006   0.4137
Er162     Er     0.0543   0.2006   0.4137
Er163     Er     0.0544   0.7994   0.4137
Er164     Er     0.9456   0.7994   0.4137
Er165     Er     0.7994   0.9137   0.4456
Er166     Er     0.7994   0.9137   0.5544
Er167     Er     0.9137   0.0544   0.2994
Er168     Er     0.9137   0.9456   0.2994
V169     V     0.8864   0.8864   0.3864
V170     V     0.8864   0.1136   0.3864
Er171     Er     0.0544   0.7994   0.5863
Er172     Er     0.9456   0.7994   0.5863
Er173     Er     0.7994   0.0863   0.5544
Er174     Er     0.7994   0.0863   0.4456
Er175     Er     0.0544   0.2006   0.5863
Er176     Er     0.9456   0.2006   0.5863
V177     V     0.8864   0.1136   0.6136
Er178     Er     0.9137   0.0544   0.7006
Er179     Er     0.9137   0.9456   0.7006
V180     V     0.8864   0.8864   0.6136
Er181     Er     0.2006   0.0863   0.4456
Er182     Er     0.2006   0.0863   0.5544
Er183     Er     0.0863   0.0544   0.2994
Er184     Er     0.0863   0.9456   0.2994
Er185     Er     0.2006   0.9137   0.4456
Er186     Er     0.2006   0.9137   0.5544
Er187     Er     0.0863   0.0544   0.7006
Er188     Er     0.0863   0.9456   0.7006
V189     V     0.1136   0.8864   0.6136
V190     V     0.1136   0.1136   0.6136
V191     V     0.1136   0.8864   0.3864
V192     V     0.1136   0.1136   0.3864
Er193     Er     0.2006   0.0544   0.0863
Er194     Er     0.2006   0.9456   0.0863
Er195     Er     0.0863   0.2006   0.0544
Er196     Er     0.0863   0.2006   0.9456
Er197     Er     0.7994   0.0544   0.0863
Er198     Er     0.7994   0.9456   0.0863
Er199     Er     0.0544   0.9137   0.2006
Er200     Er     0.9456   0.9137   0.2006
V201     V     0.8864   0.8864   0.1136
Er202     Er     0.9137   0.7994   0.0544
Er203     Er     0.9137   0.7994   0.9456
Er204     Er     0.7994   0.9456   0.9137
Er205     Er     0.7994   0.0543   0.9137
Er206     Er     0.0544   0.9137   0.7994
Er207     Er     0.9456   0.9137   0.7994
V208     V     0.8864   0.8864   0.8864
Er209     Er     0.2006   0.0544   0.9137
Er210     Er     0.2006   0.9456   0.9137
Er211     Er     0.0863   0.7994   0.0544
Er212     Er     0.0863   0.7994   0.9456
V213     V     0.1136   0.8864   0.8864
V214     V     0.1136   0.1136   0.8864
V215     V     0.1136   0.8864   0.1136
Er216     Er     0.0544   0.0863   0.2006
Er217     Er     0.9456   0.0863   0.2006
Er218     Er     0.0544   0.0863   0.7994
Er219     Er     0.9456   0.0863   0.7994
Er220     Er     0.9137   0.2006   0.0544
Er221     Er     0.9137   0.2006   0.9456
V222     V     0.8864   0.1136   0.8864
V223     V     0.8864   0.1136   0.1136
V224     V     0.1136   0.1136   0.1136
Er225     Er     0.4137   0.2006   0.5544
Er226     Er     0.4137   0.2006   0.4456
Er227     Er     0.5863   0.7994   0.4456
Er228     Er     0.5863   0.7994   0.5544
Er229     Er     0.2994   0.9456   0.4137
Er230     Er     0.2994   0.0543   0.4137
Er231     Er     0.4456   0.9137   0.2994
Er232     Er     0.5544   0.9137   0.2994
Er233     Er     0.7006   0.0544   0.4137
Er234     Er     0.7006   0.9456   0.4137
V235     V     0.6136   0.8864   0.3864
V236     V     0.6136   0.1136   0.3864
V237     V     0.3864   0.8864   0.3864
Er238     Er     0.4137   0.7994   0.4456
Er239     Er     0.4137   0.7994   0.5544
Er240     Er     0.5863   0.2006   0.5544
Er241     Er     0.5863   0.2006   0.4456
Er242     Er     0.2994   0.0544   0.5863
Er243     Er     0.2994   0.9456   0.5863
V244     V     0.3864   0.8864   0.6136
Er245     Er     0.4456   0.9137   0.7006
Er246     Er     0.5544   0.9137   0.7006
Er247     Er     0.7006   0.0544   0.5863
Er248     Er     0.7006   0.9456   0.5863
V249     V     0.6136   0.8864   0.6136
Er250     Er     0.4456   0.0863   0.7006
Er251     Er     0.5544   0.0863   0.7006
V252     V     0.6136   0.1136   0.6136
V253     V     0.3864   0.1136   0.6136
Er254     Er     0.4456   0.0863   0.2994
Er255     Er     0.5544   0.0863   0.2994
V256     V     0.3864   0.1136   0.3864
loop_
_geom_bond_atom_site_label_1
_geom_bond_atom_site_label_2
_geom_bond_distance
_geom_bond_site_symmetry_2
_ccdc_geom_bond_type
Er1     V31    10.0   .     S
Er1     Er2    9.999   .     S
Er1     Er71    10.001   .     S
Er2     V32    10.0   .     S
Er2     Er65    10.001   .     S
Er3     V30    10.0   .     S
Er3     Er4    9.999   .     S
Er3     Er145    10.001   .     S
Er4     V32    10.0   .     S
Er4     Er130    10.001   .     S
Er5     V28    10.0   .     S
Er5     Er6    9.999   .     S
Er5     Er241    10.001   .     S
Er6     V32    10.0   .     S
Er6     Er226    10.001   .     S
Er7     V29    10.0   .     S
Er7     Er8    9.999   .     S
Er7     Er240    10.001   .     S
Er8     V30    10.0   .     S
Er8     Er225    10.001   .     S
Er9     V28    10.0   .     S
Er9     Er10    9.999   .     S
Er9     Er66    10.001   .     S
Er10     V15    10.0   .     S
Er10     Er72    10.001   .     S
Er11     V31    10.0   .     S
Er11     Er12    9.999   .     S
Er11     Er129    10.001   .     S
Er12     V18    10.0   .     S
Er12     Er146    10.001   .     S
Er13     V31    10.0   .     S
Er13     Er14    9.999   .     S
Er13     Er238    10.001   .     S
Er14     V15    10.0   .     S
Er14     Er227    10.001   .     S
V15     Er21    10.0   .     S
Er16     V30    10.0   .     S
Er16     Er17    9.999   .     S
Er16     Er69    10.001   .     S
Er17     V18    10.0   .     S
Er17     Er68    10.001   .     S
V18     Er19    10.0   .     S
Er19     Er20    9.999   .     S
Er19     Er239    10.001   .     S
Er20     V23    10.0   .     S
Er20     Er228    10.001   .     S
Er21     Er22    9.999   .     S
Er21     Er134    10.001   .     S
Er22     V23    10.0   .     S
Er22     Er138    10.001   .     S
V23     Er24    10.0   .     S
Er24     Er25    9.999   .     S
Er24     Er67    10.001   .     S
Er25     V29    10.0   .     S
Er25     Er70    10.001   .     S
Er26     V29    10.0   .     S
Er26     Er27    9.999   .     S
Er26     Er137    10.001   .     S
Er27     V28    10.0   .     S
Er27     Er133    10.001   .     S
Er33     V64    10.0   .     S
Er33     Er34    9.999   .     S
Er33     Er85    10.001   .     S
Er34     V53    10.0   .     S
Er34     Er73    10.001   .     S
Er35     V46    10.0   .     S
Er35     Er36    9.999   .     S
Er35     Er92    10.001   .     S
Er36     V60    10.0   .     S
Er36     Er81    10.001   .     S
Er37     V39    10.0   .     S
Er37     Er38    9.999   1_556     S
Er37     Er209    10.001   .     S
Er38     V64    10.0   .     S
Er38     Er37    9.999   1_554     S
Er38     Er193    10.001   .     S
V39     Er44    10.0   .     S
V39     Er48    10.0   .     S
Er40     V64    10.0   .     S
Er40     Er41    9.999   1_545     S
Er40     Er254    10.001   .     S
Er41     V47    10.0   .     S
Er41     Er40    9.999   1_565     S
Er41     Er231    10.001   .     S
Er42     V47    10.0   .     S
Er42     Er43    9.999   1_554     S
Er42     Er194    10.001   .     S
Er43     V46    10.0   .     S
Er43     Er42    9.999   1_556     S
Er43     Er210    10.001   .     S
Er44     Er45    9.999   1_545     S
Er44     Er250    10.001   .     S
Er45     V46    10.0   .     S
Er45     Er44    9.999   1_565     S
Er45     Er245    10.001   .     S
V47     Er55    10.0   .     S
Er48     Er49    9.999   .     S
Er48     Er86    10.001   .     S
Er49     V52    10.0   .     S
Er49     Er74    10.001   .     S
Er50     V53    10.0   .     S
Er50     Er51    9.999   1_554     S
Er50     Er197    10.001   .     S
Er51     V52    10.0   .     S
Er51     Er50    9.999   1_556     S
Er51     Er205    10.001   .     S
V52     Er56    10.0   .     S
V53     Er61    10.0   .     S
Er54     V63    10.0   .     S
Er54     Er55    9.999   .     S
Er54     Er80    10.001   .     S
Er55     Er91    10.001   .     S
Er56     Er57    9.999   1_545     S
Er56     Er251    10.001   .     S
Er57     V60    10.0   .     S
Er57     Er56    9.999   1_565     S
Er57     Er246    10.001   .     S
Er58     V60    10.0   .     S
Er58     Er59    9.999   1_556     S
Er58     Er204    10.001   .     S
Er59     V63    10.0   .     S
Er59     Er58    9.999   1_554     S
Er59     Er198    10.001   .     S
Er61     Er62    9.999   1_545     S
Er61     Er255    10.001   .     S
Er62     V63    10.0   .     S
Er62     Er61    9.999   1_565     S
Er62     Er232    10.001   .     S
Er65     V96    10.0   .     S
Er65     Er66    9.999   .     S
Er66     V84    10.0   .     S
Er67     V82    10.0   .     S
Er67     Er68    9.999   .     S
Er68     V93    10.0   .     S
Er69     V95    10.0   .     S
Er69     Er70    9.999   .     S
Er70     V75    10.0   .     S
Er71     V94    10.0   .     S
Er71     Er72    9.999   .     S
Er72     V83    10.0   .     S
Er73     V84    10.0   .     S
Er73     Er74    9.999   1_554     S
Er74     V75    10.0   .     S
Er74     Er73    9.999   1_556     S
V75     Er76    10.0   .     S
Er76     Er77    9.999   .     S
Er76     Er102    10.001   .     S
Er77     V82    10.0   .     S
Er77     Er105    10.001   .     S
Er78     V84    10.0   .     S
Er78     Er79    9.999   .     S
Er78     Er101    10.001   .     S
Er79     V83    10.0   .     S
Er79     Er106    10.001   .     S
Er80     V83    10.0   .     S
Er80     Er81    9.999   1_554     S
Er81     V82    10.0   .     S
Er81     Er80    9.999   1_556     S
Er85     V96    10.0   .     S
Er85     Er86    9.999   1_554     S
Er86     V95    10.0   .     S
Er86     Er85    9.999   1_556     S
Er87     V96    10.0   .     S
Er87     Er88    9.999   .     S
Er87     Er122    10.001   .     S
Er88     V94    10.0   .     S
Er88     Er107    10.001   .     S
Er89     V95    10.0   .     S
Er89     Er90    9.999   .     S
Er89     Er121    10.001   .     S
Er90     V93    10.0   .     S
Er90     Er108    10.001   .     S
Er91     V94    10.0   .     S
Er91     Er92    9.999   1_554     S
Er92     V93    10.0   .     S
Er92     Er91    9.999   1_556     S
Er97     V118    10.0   .     S
Er97     Er98    9.999   .     S
Er97     Er147    10.001   .     S
Er98     V128    10.0   .     S
Er98     Er135    10.001   .     S
Er99     V128    10.0   .     S
Er99     Er100    9.999   1_455     S
Er99     Er195    10.001   .     S
Er100     V127    10.0   .     S
Er100     Er99    9.999   1_655     S
Er100     Er220    10.001   .     S
Er101     V127    10.0   .     S
Er101     Er102    9.999   1_554     S
Er102     V125    10.0   .     S
Er102     Er101    9.999   1_556     S
Er103     V126    10.0   .     S
Er103     Er104    9.999   .     S
Er103     Er141    10.001   .     S
Er104     V109    10.0   .     S
Er104     Er154    10.001   .     S
Er105     V112    10.0   .     S
Er105     Er106    9.999   1_556     S
Er106     V117    10.0   .     S
Er106     Er105    9.999   1_554     S
Er107     V118    10.0   .     S
Er107     Er108    9.999   1_554     S
Er108     V109    10.0   .     S
Er108     Er107    9.999   1_556     S
V109     Er111    10.0   .     S
Er110     V112    10.0   .     S
Er110     Er111    9.999   1_655     S
Er110     Er203    10.001   .     S
Er111     Er110    9.999   1_455     S
Er111     Er212    10.001   .     S
V112     Er119    10.0   .     S
Er113     V127    10.0   .     S
Er113     Er114    9.999   .     S
Er113     Er136    10.001   .     S
Er114     V117    10.0   .     S
Er114     Er148    10.001   .     S
Er115     V118    10.0   .     S
Er115     Er116    9.999   1_455     S
Er115     Er211    10.001   .     S
Er116     V117    10.0   .     S
Er116     Er115    9.999   1_655     S
Er116     Er202    10.001   .     S
Er119     Er120    9.999   .     S
Er119     Er155    10.001   .     S
Er120     V125    10.0   .     S
Er120     Er142    10.001   .     S
Er121     V126    10.0   .     S
Er121     Er122    9.999   1_556     S
Er122     V128    10.0   .     S
Er122     Er121    9.999   1_554     S
Er123     V126    10.0   .     S
Er123     Er124    9.999   1_455     S
Er123     Er196    10.001   .     S
Er124     V125    10.0   .     S
Er124     Er123    9.999   1_655     S
Er124     Er221    10.001   .     S
Er129     V158    10.0   .     S
Er129     Er130    9.999   .     S
Er130     V160    10.0   .     S
Er131     V144    10.0   .     S
Er131     Er132    9.999   .     S
Er131     Er175    10.001   .     S
Er132     V160    10.0   .     S
Er132     Er162    10.001   .     S
Er133     V159    10.0   .     S
Er133     Er134    9.999   .     S
Er134     V149    10.0   .     S
Er135     V160    10.0   .     S
Er135     Er136    9.999   1_455     S
Er136     V159    10.0   .     S
Er136     Er135    9.999   1_655     S
Er137     V143    10.0   .     S
Er137     Er138    9.999   .     S
Er138     V156    10.0   .     S
Er139     V159    10.0   .     S
Er139     Er140    9.999   .     S
Er139     Er161    10.001   .     S
Er140     V143    10.0   .     S
Er140     Er176    10.001   .     S
Er141     V144    10.0   .     S
Er141     Er142    9.999   1_455     S
Er142     V143    10.0   .     S
Er142     Er141    9.999   1_655     S
V144     Er145    10.0   .     S
Er145     Er146    9.999   .     S
Er146     V157    10.0   .     S
Er147     V158    10.0   .     S
Er147     Er148    9.999   1_455     S
Er148     V149    10.0   .     S
Er148     Er147    9.999   1_655     S
V149     Er150    10.0   .     S
Er150     Er151    9.999   .     S
Er150     Er164    10.001   .     S
Er151     V156    10.0   .     S
Er151     Er172    10.001   .     S
Er152     V158    10.0   .     S
Er152     Er153    9.999   .     S
Er152     Er163    10.001   .     S
Er153     V157    10.0   .     S
Er153     Er171    10.001   .     S
Er154     V157    10.0   .     S
Er154     Er155    9.999   1_455     S
Er155     V156    10.0   .     S
Er155     Er154    9.999   1_655     S
Er161     V170    10.0   .     S
Er161     Er162    9.999   1_655     S
Er162     V192    10.0   .     S
Er162     Er161    9.999   1_455     S
Er163     V191    10.0   .     S
Er163     Er164    9.999   1_455     S
Er164     V169    10.0   .     S
Er164     Er163    9.999   1_655     S
Er165     V169    10.0   .     S
Er165     Er166    9.999   .     S
Er165     Er234    10.001   .     S
Er166     V180    10.0   .     S
Er166     Er248    10.001   .     S
Er167     V170    10.0   .     S
Er167     Er168    9.999   1_545     S
Er167     Er217    10.001   .     S
Er168     V169    10.0   .     S
Er168     Er167    9.999   1_565     S
Er168     Er200    10.001   .     S
V170     Er174    10.0   .     S
Er171     V189    10.0   .     S
Er171     Er172    9.999   1_455     S
Er172     V180    10.0   .     S
Er172     Er171    9.999   1_655     S
Er173     V177    10.0   .     S
Er173     Er174    9.999   .     S
Er173     Er247    10.001   .     S
Er174     Er233    10.001   .     S
Er175     V190    10.0   .     S
Er175     Er176    9.999   1_455     S
Er176     V177    10.0   .     S
Er176     Er175    9.999   1_655     S
V177     Er178    10.0   .     S
Er178     Er179    9.999   1_545     S
Er178     Er219    10.001   .     S
Er179     V180    10.0   .     S
Er179     Er178    9.999   1_565     S
Er179     Er207    10.001   .     S
Er181     V192    10.0   .     S
Er181     Er182    9.999   .     S
Er181     Er230    10.001   .     S
Er182     V190    10.0   .     S
Er182     Er242    10.001   .     S
Er183     V192    10.0   .     S
Er183     Er184    9.999   1_545     S
Er183     Er216    10.001   .     S
Er184     V191    10.0   .     S
Er184     Er183    9.999   1_565     S
Er184     Er199    10.001   .     S
Er185     V191    10.0   .     S
Er185     Er186    9.999   .     S
Er185     Er229    10.001   .     S
Er186     V189    10.0   .     S
Er186     Er243    10.001   .     S
Er187     V190    10.0   .     S
Er187     Er188    9.999   1_545     S
Er187     Er218    10.001   .     S
Er188     V189    10.0   .     S
Er188     Er187    9.999   1_565     S
Er188     Er206    10.001   .     S
Er193     V224    10.0   .     S
Er193     Er194    9.999   1_545     S
Er194     V215    10.0   .     S
Er194     Er193    9.999   1_565     S
Er195     V224    10.0   .     S
Er195     Er196    9.999   1_554     S
Er196     V214    10.0   .     S
Er196     Er195    9.999   1_556     S
Er197     V223    10.0   .     S
Er197     Er198    9.999   1_545     S
Er198     V201    10.0   .     S
Er198     Er197    9.999   1_565     S
Er199     V215    10.0   .     S
Er199     Er200    9.999   1_455     S
Er200     V201    10.0   .     S
Er200     Er199    9.999   1_655     S
V201     Er202    10.0   .     S
Er202     Er203    9.999   1_554     S
Er203     V208    10.0   .     S
Er203     Er202    9.999   1_556     S
Er204     V208    10.0   .     S
Er204     Er205    9.999   1_565     S
Er205     V222    10.0   .     S
Er205     Er204    9.999   1_545     S
Er206     V213    10.0   .     S
Er206     Er207    9.999   1_455     S
Er207     V208    10.0   .     S
Er207     Er206    9.999   1_655     S
Er209     V214    10.0   .     S
Er209     Er210    9.999   1_545     S
Er210     V213    10.0   .     S
Er210     Er209    9.999   1_565     S
Er211     V215    10.0   .     S
Er211     Er212    9.999   1_554     S
Er212     V213    10.0   .     S
Er212     Er211    9.999   1_556     S
V214     Er218    10.0   .     S
Er216     V224    10.0   .     S
Er216     Er217    9.999   1_455     S
Er217     V223    10.0   .     S
Er217     Er216    9.999   1_655     S
Er218     Er219    9.999   1_455     S
Er219     V222    10.0   .     S
Er219     Er218    9.999   1_655     S
Er220     V223    10.0   .     S
Er220     Er221    9.999   1_554     S
Er221     V222    10.0   .     S
Er221     Er220    9.999   1_556     S
Er225     V253    10.0   .     S
Er225     Er226    9.999   .     S
Er226     V256    10.0   .     S
Er227     V235    10.0   .     S
Er227     Er228    9.999   .     S
Er228     V249    10.0   .     S
Er229     V237    10.0   .     S
Er229     Er230    9.999   1_565     S
Er230     V256    10.0   .     S
Er230     Er229    9.999   1_545     S
Er231     V237    10.0   .     S
Er231     Er232    9.999   .     S
Er232     V235    10.0   .     S
Er233     V236    10.0   .     S
Er233     Er234    9.999   1_545     S
Er234     V235    10.0   .     S
Er234     Er233    9.999   1_565     S
V236     Er241    10.0   .     S
V236     Er255    10.0   .     S
V237     Er238    10.0   .     S
Er238     Er239    9.999   .     S
Er239     V244    10.0   .     S
Er240     V252    10.0   .     S
Er240     Er241    9.999   .     S
Er242     V253    10.0   .     S
Er242     Er243    9.999   1_545     S
Er243     V244    10.0   .     S
Er243     Er242    9.999   1_565     S
V244     Er245    10.0   .     S
Er245     Er246    9.999   .     S
Er246     V249    10.0   .     S
Er247     V252    10.0   .     S
Er247     Er248    9.999   1_545     S
Er248     V249    10.0   .     S
Er248     Er247    9.999   1_565     S
Er250     V253    10.0   .     S
Er250     Er251    9.999   .     S
Er251     V252    10.0   .     S
Er254     V256    10.0   .     S
Er254     Er255    9.999   .     S
