data_etl
_audit_creation_date              2020-02-04
_audit_creation_method            'Pymatgen'
_symmetry_space_group_name_H-M    'P1'
_symmetry_Int_Tables_number       1
loop_
_symmetry_equiv_pos_as_xyz
  x,y,z
_cell_length_a                    72.4665
_cell_length_b                    72.4665
_cell_length_c                    72.4665
_cell_angle_alpha                 90.0
_cell_angle_beta                 90.0
_cell_angle_gamma                 90.0
loop_
_atom_site_label
_atom_site_type_symbol
_atom_site_fract_x
_atom_site_fract_y
_atom_site_fract_z
Er1     Er     0.2453   0.9386   0.8188
Er2     Er     0.1886   0.9953   0.9312
Er3     Er     0.9386   0.1812   0.7547
Er4     Er     0.9953   0.0688   0.8114
V5     V     0.0842   0.0842   0.9158
Er6     Er     0.0614   0.3188   0.2547
Er7     Er     0.0047   0.4312   0.3114
Er8     Er     0.5047   0.5688   0.1886
Er9     Er     0.5614   0.6812   0.2453
Er10     Er     0.3114   0.4953   0.0688
Er11     Er     0.2547   0.4386   0.1812
V12     V     0.4158   0.5843   0.0842
Er13     Er     0.1812   0.2453   0.0614
Er14     Er     0.0688   0.1886   0.0047
V15     V     0.1658   0.3342   0.1658
Er16     Er     0.3188   0.7453   0.9386
Er17     Er     0.4312   0.6886   0.9953
Er18     Er     0.4386   0.8188   0.7453
Er19     Er     0.4953   0.9312   0.6886
V20     V     0.3342   0.8342   0.8342
Er21     Er     0.7453   0.0614   0.6812
Er22     Er     0.6886   0.0047   0.5688
Er23     Er     0.5688   0.8114   0.4953
Er24     Er     0.6812   0.7547   0.4386
V25     V     0.5843   0.9158   0.5843
Er26     Er     0.8188   0.2547   0.5614
Er27     Er     0.9312   0.3114   0.5047
Er28     Er     0.7547   0.5614   0.3188
Er29     Er     0.8114   0.5047   0.4312
V30     V     0.9158   0.4158   0.4158
V31     V     0.6658   0.6657   0.3342
V32     V     0.8342   0.1658   0.6657
Er33     Er     0.1812   0.7547   0.9386
Er34     Er     0.0688   0.8114   0.9953
V35     V     0.0842   0.9158   0.0842
Er36     Er     0.0614   0.6812   0.7453
Er37     Er     0.0047   0.5688   0.6886
Er38     Er     0.2547   0.5614   0.8188
Er39     Er     0.3114   0.5047   0.9312
Er40     Er     0.5047   0.4312   0.8114
Er41     Er     0.5614   0.3188   0.7547
V42     V     0.4158   0.4158   0.9158
V43     V     0.1658   0.6657   0.8342
Er44     Er     0.9386   0.8188   0.2453
Er45     Er     0.9953   0.9312   0.1886
Er46     Er     0.3188   0.2547   0.0614
Er47     Er     0.4312   0.3114   0.0047
Er48     Er     0.2453   0.0614   0.1812
Er49     Er     0.1886   0.0047   0.0688
Er50     Er     0.5688   0.1886   0.5047
Er51     Er     0.6812   0.2453   0.5614
Er52     Er     0.4953   0.0688   0.3114
Er53     Er     0.4386   0.1812   0.2547
V54     V     0.3342   0.1658   0.1658
V55     V     0.5843   0.0842   0.4158
Er56     Er     0.7453   0.9386   0.3188
Er57     Er     0.6886   0.9953   0.4312
V58     V     0.8342   0.8342   0.3342
Er59     Er     0.8188   0.7453   0.4386
Er60     Er     0.9312   0.6886   0.4953
Er61     Er     0.8114   0.4953   0.5688
Er62     Er     0.7547   0.4386   0.6812
V63     V     0.6658   0.3342   0.6657
V64     V     0.9158   0.5843   0.5842
Er65     Er     0.9386   0.3188   0.7453
Er66     Er     0.9953   0.4312   0.6886
Er67     Er     0.6812   0.7453   0.0614
Er68     Er     0.5688   0.6886   0.0047
Er69     Er     0.7453   0.4386   0.8188
Er70     Er     0.6886   0.4953   0.9312
V71     V     0.8342   0.3342   0.8342
Er72     Er     0.8188   0.2453   0.9386
Er73     Er     0.9312   0.1886   0.9953
Er74     Er     0.7547   0.9386   0.1812
Er75     Er     0.8114   0.9953   0.0688
V76     V     0.9158   0.0842   0.0842
V77     V     0.6658   0.8342   0.1658
Er78     Er     0.5614   0.8188   0.2547
Er79     Er     0.5047   0.9312   0.3114
Er80     Er     0.3188   0.7547   0.5614
Er81     Er     0.4312   0.8114   0.5047
V82     V     0.4158   0.9158   0.4158
Er83     Er     0.0614   0.1812   0.2453
Er84     Er     0.0047   0.0688   0.1886
Er85     Er     0.4953   0.5688   0.8114
Er86     Er     0.4386   0.6812   0.7547
V87     V     0.5843   0.5843   0.9158
V88     V     0.3342   0.6657   0.6657
Er89     Er     0.3114   0.0047   0.4312
Er90     Er     0.2547   0.0614   0.3188
Er91     Er     0.1886   0.5047   0.5688
Er92     Er     0.2453   0.5614   0.6812
Er93     Er     0.0688   0.3114   0.4953
Er94     Er     0.1812   0.2547   0.4386
V95     V     0.0842   0.4158   0.5843
V96     V     0.1658   0.1658   0.3342
Er97     Er     0.5047   0.0688   0.6886
Er98     Er     0.5614   0.1812   0.7453
Er99     Er     0.2547   0.9386   0.6812
Er100     Er     0.3114   0.9953   0.5688
V101     V     0.4158   0.0842   0.5843
Er102     Er     0.7547   0.0614   0.8188
Er103     Er     0.8114   0.0047   0.9312
Er104     Er     0.6812   0.2547   0.9386
Er105     Er     0.5688   0.3114   0.9953
V106     V     0.5843   0.4158   0.0842
V107     V     0.6658   0.1658   0.8342
Er108     Er     0.8188   0.7547   0.0614
Er109     Er     0.9312   0.8114   0.0047
Er110     Er     0.6886   0.5047   0.0688
Er111     Er     0.7453   0.5614   0.1812
V112     V     0.8342   0.6657   0.1658
Er113     Er     0.0614   0.8188   0.7547
Er114     Er     0.0047   0.9312   0.8114
V115     V     0.1658   0.8342   0.6658
Er116     Er     0.0688   0.6886   0.5047
Er117     Er     0.1812   0.7453   0.5614
Er118     Er     0.9386   0.6812   0.2547
Er119     Er     0.9953   0.5688   0.3114
Er120     Er     0.1886   0.4953   0.4312
Er121     Er     0.2453   0.4386   0.3188
Er122     Er     0.4312   0.1886   0.4953
Er123     Er     0.3188   0.2453   0.4386
Er124     Er     0.4953   0.4312   0.1886
Er125     Er     0.4386   0.3188   0.2453
V126     V     0.3342   0.3342   0.3342
V127     V     0.0842   0.5843   0.4158
V128     V     0.9158   0.9158   0.9158
loop_
_geom_bond_atom_site_label_1
_geom_bond_atom_site_label_2
_geom_bond_distance
_geom_bond_site_symmetry_2
_ccdc_geom_bond_type
Er1     Er2    10.0   .     S
Er1     V20    10.0   .     S
Er1     Er99    10.001   .     S
Er2     V5    10.0   1_565     S
Er2     Er49    10.001   1_566     S
Er3     Er4    10.0   .     S
Er3     V32    10.0   .     S
Er3     Er65    10.001   .     S
Er4     V5    10.0   1_655     S
Er4     Er114    10.001   1_645     S
V5     Er2    10.0   1_545     S
V5     Er4    10.0   1_455     S
V5     Er14    10.0   1_556     S
Er6     Er7    10.0   .     S
Er6     V15    10.0   .     S
Er6     Er83    10.001   .     S
Er7     V30    10.0   1_455     S
Er7     Er119    10.001   1_455     S
Er8     Er9    10.0   .     S
Er8     V12    10.0   .     S
Er8     Er124    10.001   .     S
Er9     V31    10.0   .     S
Er9     Er78    10.001   .     S
Er10     Er11    10.0   .     S
Er10     V12    10.0   .     S
Er10     Er39    10.001   1_554     S
Er11     V15    10.0   .     S
Er11     Er121    10.001   .     S
V12     Er17    10.0   1_554     S
Er13     Er14    10.0   .     S
Er13     V15    10.0   .     S
Er13     Er46    10.001   .     S
Er14     V5    10.0   1_554     S
Er14     Er73    10.001   1_454     S
Er16     Er17    10.0   .     S
Er16     V20    10.0   .     S
Er16     Er33    10.001   .     S
Er17     V12    10.0   1_556     S
Er17     Er68    10.001   1_556     S
Er18     Er19    10.0   .     S
Er18     V20    10.0   .     S
Er18     Er86    10.001   .     S
Er19     V25    10.0   .     S
Er19     Er97    10.001   1_565     S
Er21     Er22    10.0   .     S
Er21     V32    10.0   .     S
Er21     Er102    10.001   .     S
Er22     V25    10.0   1_545     S
Er22     Er57    10.001   1_545     S
Er23     Er24    10.0   .     S
Er23     V25    10.0   .     S
Er23     Er81    10.001   .     S
Er24     V31    10.0   .     S
Er24     Er59    10.001   .     S
V25     Er22    10.0   1_565     S
Er26     Er27    10.0   .     S
Er26     V32    10.0   .     S
Er26     Er51    10.001   .     S
Er27     V30    10.0   .     S
Er27     Er93    10.001   1_655     S
Er28     Er29    10.0   .     S
Er28     V31    10.0   .     S
Er28     Er111    10.001   .     S
Er29     V30    10.0   .     S
Er29     Er61    10.001   .     S
V30     Er7    10.0   1_655     S
Er33     Er34    10.0   .     S
Er33     V43    10.0   .     S
Er34     V35    10.0   1_556     S
Er34     Er109    10.001   1_456     S
V35     Er34    10.0   1_554     S
V35     Er45    10.0   1_455     S
V35     Er49    10.0   1_565     S
Er36     Er37    10.0   .     S
Er36     V43    10.0   .     S
Er36     Er113    10.001   .     S
Er37     V64    10.0   1_455     S
Er37     Er66    10.001   1_455     S
Er38     Er39    10.0   .     S
Er38     V43    10.0   .     S
Er38     Er92    10.001   .     S
Er39     V42    10.0   .     S
Er39     Er10    10.001   1_556     S
Er40     Er41    10.0   .     S
Er40     V42    10.0   .     S
Er40     Er85    10.001   .     S
Er41     V63    10.0   .     S
Er41     Er98    10.001   .     S
V42     Er47    10.0   1_556     S
Er44     Er45    10.0   .     S
Er44     V58    10.0   .     S
Er44     Er118    10.001   .     S
Er45     V35    10.0   1_655     S
Er45     Er84    10.001   1_665     S
Er46     Er47    10.0   .     S
Er46     V54    10.0   .     S
Er47     V42    10.0   1_554     S
Er47     Er105    10.001   1_554     S
Er48     Er49    10.0   .     S
Er48     V54    10.0   .     S
Er48     Er90    10.001   .     S
Er49     Er2    10.001   1_544     S
Er49     V35    10.0   1_545     S
Er50     Er51    10.0   .     S
Er50     V55    10.0   .     S
Er50     Er122    10.001   .     S
Er51     V63    10.0   .     S
Er52     Er53    10.0   .     S
Er52     V55    10.0   .     S
Er52     Er79    10.001   1_545     S
Er53     V54    10.0   .     S
Er53     Er125    10.001   .     S
V55     Er57    10.0   1_545     S
Er56     Er57    10.0   .     S
Er56     V58    10.0   .     S
Er56     Er74    10.001   .     S
Er57     V55    10.0   1_565     S
Er57     Er22    10.001   1_565     S
V58     Er59    10.0   .     S
Er59     Er60    10.0   .     S
Er60     V64    10.0   .     S
Er60     Er116    10.001   1_655     S
Er61     Er62    10.0   .     S
Er61     V64    10.0   .     S
Er62     V63    10.0   .     S
Er62     Er69    10.001   .     S
V64     Er37    10.0   1_655     S
Er65     Er66    10.0   .     S
Er65     V71    10.0   .     S
Er66     V95    10.0   1_655     S
Er66     Er37    10.001   1_655     S
Er67     Er68    10.0   .     S
Er67     V77    10.0   .     S
Er67     Er108    10.001   .     S
Er68     V87    10.0   1_554     S
Er68     Er17    10.001   1_554     S
Er69     Er70    10.0   .     S
Er69     V71    10.0   .     S
Er70     V87    10.0   .     S
Er70     Er110    10.001   1_556     S
V71     Er72    10.0   .     S
Er72     Er73    10.0   .     S
Er72     Er104    10.001   .     S
Er73     V76    10.0   1_556     S
Er73     Er14    10.001   1_656     S
Er74     Er75    10.0   .     S
Er74     V77    10.0   .     S
Er75     V76    10.0   1_565     S
Er75     Er103    10.001   1_564     S
V76     Er73    10.0   1_554     S
V76     Er75    10.0   1_545     S
V76     Er84    10.0   1_655     S
V77     Er78    10.0   .     S
Er78     Er79    10.0   .     S
Er79     V82    10.0   .     S
Er79     Er52    10.001   1_565     S
Er80     Er81    10.0   .     S
Er80     V88    10.0   .     S
Er80     Er117    10.001   .     S
Er81     V82    10.0   .     S
V82     Er89    10.0   1_565     S
Er83     Er84    10.0   .     S
Er83     V96    10.0   .     S
Er84     Er45    10.001   1_445     S
Er84     V76    10.0   1_455     S
Er85     Er86    10.0   .     S
Er85     V87    10.0   .     S
Er86     V88    10.0   .     S
V87     Er68    10.0   1_556     S
V88     Er92    10.0   .     S
Er89     Er90    10.0   .     S
Er89     V82    10.0   1_545     S
Er89     Er100    10.001   1_545     S
Er90     V96    10.0   .     S
Er91     Er92    10.0   .     S
Er91     V95    10.0   .     S
Er91     Er120    10.001   .     S
Er93     Er27    10.001   1_455     S
Er93     Er94    10.0   .     S
Er93     V95    10.0   .     S
Er94     V96    10.0   .     S
Er94     Er123    10.001   .     S
V95     Er66    10.0   1_455     S
Er97     Er19    10.001   1_545     S
Er97     Er98    10.0   .     S
Er97     V101    10.0   .     S
Er98     V107    10.0   .     S
Er99     Er100    10.0   .     S
Er99     V115    10.0   .     S
Er100     V101    10.0   1_565     S
Er100     Er89    10.001   1_565     S
V101     Er100    10.0   1_545     S
V101     Er122    10.0   .     S
Er102     Er103    10.0   .     S
Er102     V107    10.0   .     S
Er103     V128    10.0   1_545     S
Er103     Er75    10.001   1_546     S
Er104     Er105    10.0   .     S
Er104     V107    10.0   .     S
Er105     V106    10.0   1_556     S
Er105     Er47    10.001   1_556     S
V106     Er105    10.0   1_554     S
V106     Er110    10.0   .     S
V106     Er124    10.0   .     S
Er108     Er109    10.0   .     S
Er108     V112    10.0   .     S
Er109     V128    10.0   1_554     S
Er109     Er34    10.001   1_654     S
Er110     Er70    10.001   1_554     S
Er110     Er111    10.0   .     S
Er111     V112    10.0   .     S
V112     Er118    10.0   .     S
Er113     Er114    10.0   .     S
Er113     V115    10.0   .     S
Er114     V128    10.0   1_455     S
Er114     Er4    10.001   1_465     S
V115     Er117    10.0   .     S
Er116     Er60    10.001   1_455     S
Er116     Er117    10.0   .     S
Er116     V127    10.0   .     S
Er118     Er119    10.0   .     S
Er119     V127    10.0   1_655     S
Er119     Er7    10.001   1_655     S
Er120     Er121    10.0   .     S
Er120     V127    10.0   .     S
Er121     V126    10.0   .     S
Er122     Er123    10.0   .     S
Er123     V126    10.0   .     S
Er124     Er125    10.0   .     S
Er125     V126    10.0   .     S
V127     Er119    10.0   1_455     S
V128     Er103    10.0   1_565     S
V128     Er109    10.0   1_556     S
V128     Er114    10.0   1_655     S
