data_etna
_audit_creation_date              2020-02-04
_audit_creation_method            'Pymatgen'
_symmetry_space_group_name_H-M    'P1'
_symmetry_Int_Tables_number       1
loop_
_symmetry_equiv_pos_as_xyz
  x,y,z
_cell_length_a                    103.4385
_cell_length_b                    103.4385
_cell_length_c                    88.6162
_cell_angle_alpha                 90.0
_cell_angle_beta                 90.0
_cell_angle_gamma                 90.0
loop_
_atom_site_label
_atom_site_type_symbol
_atom_site_fract_x
_atom_site_fract_y
_atom_site_fract_z
Er1     Er     0.6812   0.0   0.9436
Er2     Er     0.6812   0.0   0.0564
Er3     Er     0.0   0.3188   0.9436
Er4     Er     0.0   0.3188   0.0564
Er5     Er     0.3188   0.0   0.9436
Er6     Er     0.3188   0.0   0.0564
Er7     Er     0.0   0.6812   0.9436
Er8     Er     0.0   0.6812   0.0564
Ti9     Ti     0.3189   0.0483   0.8458
Ti10     Ti     0.3189   0.9517   0.8458
Ti11     Ti     0.0483   0.6811   0.8458
Ti12     Ti     0.9517   0.6811   0.8458
Ti13     Ti     0.6811   0.0483   0.8458
Ti14     Ti     0.6811   0.9517   0.8458
Ti15     Ti     0.0483   0.3189   0.8458
Ti16     Ti     0.9517   0.3189   0.8458
Ti17     Ti     0.8189   0.5483   0.6542
Ti18     Ti     0.8189   0.4517   0.6542
Ce19     Ce     0.6821   0.1311   0.7875
Ce20     Ce     0.6311   0.1821   0.7125
V21     V     0.7158   0.2158   0.75
Ce22     Ce     0.8689   0.3179   0.7875
Ce23     Ce     0.8179   0.3689   0.7125
V24     V     0.7842   0.2842   0.75
Ti25     Ti     0.5483   0.1811   0.6542
Ti26     Ti     0.4517   0.1811   0.6542
Ce27     Ce     0.3179   0.1311   0.7875
Ce28     Ce     0.3689   0.1821   0.7125
V29     V     0.2842   0.2158   0.75
Ce30     Ce     0.1311   0.3179   0.7875
Ce31     Ce     0.1821   0.3689   0.7125
V32     V     0.2158   0.2842   0.75
Ti33     Ti     0.1811   0.4517   0.6542
Ti34     Ti     0.1811   0.5483   0.6542
Ce35     Ce     0.1311   0.6821   0.7875
Ce36     Ce     0.1821   0.6311   0.7125
V37     V     0.2158   0.7158   0.75
Ce38     Ce     0.3179   0.8689   0.7875
Ce39     Ce     0.3689   0.8179   0.7125
V40     V     0.2842   0.7842   0.75
Ti41     Ti     0.4517   0.8189   0.6542
Ti42     Ti     0.5483   0.8189   0.6542
Ce43     Ce     0.8689   0.6821   0.7875
Ce44     Ce     0.8179   0.6311   0.7125
V45     V     0.7842   0.7158   0.75
Ce46     Ce     0.6821   0.8689   0.7875
Ce47     Ce     0.6311   0.8179   0.7125
V48     V     0.7158   0.7842   0.75
Er49     Er     0.1812   0.5   0.4436
Er50     Er     0.1812   0.5   0.5564
Er51     Er     0.5   0.8188   0.4436
Er52     Er     0.5   0.8188   0.5564
Er53     Er     0.8188   0.5   0.4436
Er54     Er     0.8188   0.5   0.5564
Er55     Er     0.5   0.1812   0.4436
Er56     Er     0.5   0.1812   0.5564
Ti57     Ti     0.4517   0.1811   0.3458
Ti58     Ti     0.5483   0.1811   0.3458
Ti59     Ti     0.0483   0.3189   0.1542
Ti60     Ti     0.9517   0.3189   0.1542
Ce61     Ce     0.6821   0.1311   0.2125
Ce62     Ce     0.6311   0.1821   0.2875
V63     V     0.7158   0.2158   0.25
Ce64     Ce     0.8179   0.3689   0.2875
Ce65     Ce     0.8689   0.3179   0.2125
V66     V     0.7842   0.2842   0.25
Ti67     Ti     0.8189   0.4517   0.3458
Ti68     Ti     0.8189   0.5483   0.3458
Ti69     Ti     0.6811   0.0483   0.1542
Ti70     Ti     0.6811   0.9517   0.1542
Ti71     Ti     0.0483   0.6811   0.1542
Ti72     Ti     0.9517   0.6811   0.1542
Ce73     Ce     0.8689   0.6821   0.2125
Ce74     Ce     0.8179   0.6311   0.2875
V75     V     0.7842   0.7158   0.25
Ce76     Ce     0.6311   0.8179   0.2875
Ce77     Ce     0.6821   0.8689   0.2125
V78     V     0.7158   0.7842   0.25
Ti79     Ti     0.5483   0.8189   0.3458
Ti80     Ti     0.4517   0.8189   0.3458
Ti81     Ti     0.3189   0.0483   0.1542
Ti82     Ti     0.3189   0.9517   0.1542
Ce83     Ce     0.1311   0.6821   0.2125
Ce84     Ce     0.1821   0.6311   0.2875
V85     V     0.2158   0.7158   0.25
Ce86     Ce     0.3689   0.8179   0.2875
Ce87     Ce     0.3179   0.8689   0.2125
V88     V     0.2842   0.7842   0.25
Ti89     Ti     0.1811   0.5483   0.3458
Ti90     Ti     0.1811   0.4517   0.3458
Ce91     Ce     0.3689   0.1821   0.2875
Ce92     Ce     0.3179   0.1311   0.2125
V93     V     0.2842   0.2158   0.25
Ce94     Ce     0.1821   0.3689   0.2875
Ce95     Ce     0.1311   0.3179   0.2125
V96     V     0.2158   0.2842   0.25
loop_
_geom_bond_atom_site_label_1
_geom_bond_atom_site_label_2
_geom_bond_distance
_geom_bond_site_symmetry_2
_ccdc_geom_bond_type
Er1     Er2    9.999   1_556     S
Er1     Ti13    10.0   .     S
Er1     Ti14    10.0   1_545     S
Er2     Er1    9.999   1_554     S
Er2     Ti69    10.0   .     S
Er2     Ti70    10.0   1_545     S
Er3     Er4    9.999   1_556     S
Er3     Ti15    10.0   .     S
Er3     Ti16    10.0   1_455     S
Er4     Er3    9.999   1_554     S
Er4     Ti59    10.0   .     S
Er4     Ti60    10.0   1_455     S
Er5     Er6    9.999   1_556     S
Er5     Ti9    10.0   .     S
Er5     Ti10    10.0   1_545     S
Er6     Er5    9.999   1_554     S
Er6     Ti81    10.0   .     S
Er6     Ti82    10.0   1_545     S
Er7     Er8    9.999   1_556     S
Er7     Ti11    10.0   .     S
Er7     Ti12    10.0   1_455     S
Er8     Er7    9.999   1_554     S
Er8     Ti71    10.0   .     S
Er8     Ti72    10.0   1_455     S
Ti9     Ce27    10.0   .     S
Ti9     Ti10    10.0   1_545     S
Ti10     Ti9    10.0   1_565     S
Ti10     Ce38    10.0   .     S
Ti10     Er5    10.0   1_565     S
Ti11     Ce35    10.0   .     S
Ti11     Ti12    10.0   1_455     S
Ti12     Ti11    10.0   1_655     S
Ti12     Ce43    10.0   .     S
Ti12     Er7    10.0   1_655     S
Ti13     Ce19    10.0   .     S
Ti13     Ti14    10.0   1_545     S
Ti14     Ti13    10.0   1_565     S
Ti14     Ce46    10.0   .     S
Ti14     Er1    10.0   1_565     S
Ti15     Ce30    10.0   .     S
Ti15     Ti16    10.0   1_455     S
Ti16     Ti15    10.0   1_655     S
Ti16     Ce22    10.0   .     S
Ti16     Er3    10.0   1_655     S
Ti17     Ce44    10.0   .     S
Ti17     Ti18    10.0   .     S
Ti17     Er54    10.0   .     S
Ti18     Ce23    10.0   .     S
Ti18     Er54    10.0   .     S
Ce19     Ce20    10.0   .     S
Ce19     V21    10.0   .     S
Ce20     V21    10.0   .     S
Ce20     Ti25    10.0   .     S
V21     V24    10.0   .     S
Ce22     Ce23    10.0   .     S
Ce22     V24    10.0   .     S
Ce23     V24    10.0   .     S
Ti25     Ti26    10.0   .     S
Ti25     Er56    10.0   .     S
Ti26     Ce28    10.0   .     S
Ti26     Er56    10.0   .     S
Ce27     Ce28    10.0   .     S
Ce27     V29    10.0   .     S
Ce28     V29    10.0   .     S
V29     V32    10.0   .     S
Ce30     Ce31    10.0   .     S
Ce30     V32    10.0   .     S
Ce31     V32    10.0   .     S
Ce31     Ti33    10.0   .     S
Ti33     Er50    10.0   .     S
Ti33     Ti34    10.0   .     S
Ti34     Ce36    10.0   .     S
Ti34     Er50    10.0   .     S
Ce35     Ce36    10.0   .     S
Ce35     V37    10.0   .     S
Ce36     V37    10.0   .     S
V37     V40    10.0   .     S
Ce38     Ce39    10.0   .     S
Ce38     V40    10.0   .     S
Ce39     V40    10.0   .     S
Ce39     Ti41    10.0   .     S
Ti41     Er52    10.0   .     S
Ti41     Ti42    10.0   .     S
Ti42     Ce47    10.0   .     S
Ti42     Er52    10.0   .     S
Ce43     Ce44    10.0   .     S
Ce43     V45    10.0   .     S
Ce44     V45    10.0   .     S
V45     V48    10.0   .     S
Ce46     Ce47    10.0   .     S
Ce46     V48    10.0   .     S
Ce47     V48    10.0   .     S
Er49     Er50    9.999   .     S
Er49     Ti90    10.0   .     S
Er49     Ti89    10.0   .     S
Er51     Er52    9.999   .     S
Er51     Ti80    10.0   .     S
Er51     Ti79    10.0   .     S
Er53     Er54    9.999   .     S
Er53     Ti67    10.0   .     S
Er53     Ti68    10.0   .     S
Er55     Er56    9.999   .     S
Er55     Ti57    10.0   .     S
Er55     Ti58    10.0   .     S
Ti57     Ce91    10.0   .     S
Ti57     Ti58    10.0   .     S
Ti58     Ce62    10.0   .     S
Ti59     Ce95    10.0   .     S
Ti59     Ti60    10.0   1_455     S
Ti60     Ti59    10.0   1_655     S
Ti60     Ce65    10.0   .     S
Ti60     Er4    10.0   1_655     S
Ce61     Ce62    10.0   .     S
Ce61     V63    10.0   .     S
Ce61     Ti69    10.0   .     S
Ce62     V63    10.0   .     S
V63     V66    10.0   .     S
Ce64     Ce65    10.0   .     S
Ce64     V66    10.0   .     S
Ce64     Ti67    10.0   .     S
Ce65     V66    10.0   .     S
Ti67     Ti68    10.0   .     S
Ti68     Ce74    10.0   .     S
Ti69     Ti70    10.0   1_545     S
Ti70     Ti69    10.0   1_565     S
Ti70     Ce77    10.0   .     S
Ti70     Er2    10.0   1_565     S
Ti71     Ce83    10.0   .     S
Ti71     Ti72    10.0   1_455     S
Ti72     Ti71    10.0   1_655     S
Ti72     Ce73    10.0   .     S
Ti72     Er8    10.0   1_655     S
Ce73     Ce74    10.0   .     S
Ce73     V75    10.0   .     S
Ce74     V75    10.0   .     S
V75     V78    10.0   .     S
Ce76     Ce77    10.0   .     S
Ce76     V78    10.0   .     S
Ce76     Ti79    10.0   .     S
Ce77     V78    10.0   .     S
Ti79     Ti80    10.0   .     S
Ti80     Ce86    10.0   .     S
Ti81     Ce92    10.0   .     S
Ti81     Ti82    10.0   1_545     S
Ti82     Ti81    10.0   1_565     S
Ti82     Ce87    10.0   .     S
Ti82     Er6    10.0   1_565     S
Ce83     Ce84    10.0   .     S
Ce83     V85    10.0   .     S
Ce84     V85    10.0   .     S
Ce84     Ti89    10.0   .     S
V85     V88    10.0   .     S
Ce86     Ce87    10.0   .     S
Ce86     V88    10.0   .     S
Ce87     V88    10.0   .     S
Ti89     Ti90    10.0   .     S
Ti90     Ce94    10.0   .     S
Ce91     Ce92    10.0   .     S
Ce91     V93    10.0   .     S
Ce92     V93    10.0   .     S
V93     V96    10.0   .     S
Ce94     Ce95    10.0   .     S
Ce94     V96    10.0   .     S
Ce95     V96    10.0   .     S
