data_eto
_audit_creation_date              2020-02-04
_audit_creation_method            'Pymatgen'
_symmetry_space_group_name_H-M    'P1'
_symmetry_Int_Tables_number       1
loop_
_symmetry_equiv_pos_as_xyz
  x,y,z
_cell_length_a                    55.5096
_cell_length_b                    55.5096
_cell_length_c                    55.5096
_cell_angle_alpha                 90.0
_cell_angle_beta                 90.0
_cell_angle_gamma                 90.0
loop_
_atom_site_label
_atom_site_type_symbol
_atom_site_fract_x
_atom_site_fract_y
_atom_site_fract_z
Er1     Er     0.7033   0.7033   0.7033
Er2     Er     0.5467   0.5467   0.5467
Er3     Er     0.2033   0.2033   0.2033
Er4     Er     0.9533   0.5467   0.4533
Er5     Er     0.5467   0.4533   0.9533
Er6     Er     0.9533   0.4533   0.0467
Er7     Er     0.2033   0.7967   0.2967
Er8     Er     0.2967   0.7967   0.7033
Er9     Er     0.7033   0.2967   0.7967
Er10     Er     0.7967   0.2967   0.2033
Er11     Er     0.7967   0.7033   0.2967
Er12     Er     0.4533   0.0467   0.9533
Er13     Er     0.4533   0.9533   0.5467
Er14     Er     0.2967   0.2033   0.7967
V15     V     0.785   0.5715   0.1744
V16     V     0.6785   0.465   0.0756
V17     V     0.5756   0.1785   0.965
V18     V     0.6744   0.285   0.0715
V19     V     0.965   0.5756   0.1785
V20     V     0.0715   0.6744   0.285
V21     V     0.0756   0.6785   0.465
V22     V     0.1744   0.785   0.5715
V23     V     0.5715   0.1744   0.785
V24     V     0.465   0.0756   0.6785
V25     V     0.1785   0.965   0.5756
V26     V     0.285   0.0715   0.6744
Er27     Er     0.0467   0.9533   0.4533
V28     V     0.715   0.5715   0.8256
V29     V     0.8215   0.465   0.9244
V30     V     0.4285   0.6744   0.715
V31     V     0.535   0.5756   0.8215
V32     V     0.4244   0.6785   0.535
V33     V     0.3256   0.785   0.4285
V34     V     0.8256   0.285   0.9285
V35     V     0.9244   0.1785   0.035
V36     V     0.215   0.0715   0.3256
V37     V     0.3215   0.965   0.4244
V38     V     0.9285   0.1744   0.215
V39     V     0.035   0.0756   0.3215
V40     V     0.6744   0.715   0.4285
V41     V     0.5756   0.8215   0.535
V42     V     0.6785   0.535   0.4244
V43     V     0.785   0.4285   0.3256
V44     V     0.965   0.4244   0.3215
V45     V     0.0715   0.3256   0.215
V46     V     0.1744   0.215   0.9285
V47     V     0.0756   0.3215   0.035
V48     V     0.5715   0.8256   0.715
V49     V     0.465   0.9244   0.8215
V50     V     0.285   0.9285   0.8256
V51     V     0.1785   0.035   0.9244
Er52     Er     0.0467   0.0467   0.0467
V53     V     0.715   0.4285   0.6744
V54     V     0.8215   0.535   0.5756
V55     V     0.535   0.4244   0.6785
V56     V     0.4285   0.3256   0.785
V57     V     0.8256   0.715   0.5715
V58     V     0.9244   0.8215   0.465
V59     V     0.4244   0.3215   0.965
V60     V     0.3256   0.215   0.0715
V61     V     0.215   0.9285   0.1744
V62     V     0.3215   0.035   0.0756
V63     V     0.9285   0.8256   0.285
V64     V     0.035   0.9244   0.1785
loop_
_geom_bond_atom_site_label_1
_geom_bond_atom_site_label_2
_geom_bond_distance
_geom_bond_site_symmetry_2
_ccdc_geom_bond_type
Er1     V57    10.0   .     S
Er1     V28    10.0   .     S
Er1     V48    10.0   .     S
Er2     V55    10.0   .     S
Er2     V42    10.0   .     S
Er2     V32    10.0   .     S
Er3     V45    10.0   .     S
Er3     V60    10.0   .     S
Er3     V36    10.0   .     S
Er4     V21    10.0   1_655     S
Er4     V44    10.0   .     S
Er4     V54    10.0   .     S
Er5     V16    10.0   1_556     S
Er5     V59    10.0   .     S
Er5     V31    10.0   .     S
Er6     V29    10.0   1_554     S
Er6     V47    10.0   1_655     S
Er6     V19    10.0   .     S
Er7     V61    10.0   .     S
Er7     V33    10.0   .     S
Er7     V20    10.0   .     S
Er8     V22    10.0   .     S
Er8     V50    10.0   .     S
Er8     V30    10.0   .     S
Er9     V23    10.0   .     S
Er9     V34    10.0   .     S
Er9     V53    10.0   .     S
Er10     V43    10.0   .     S
Er10     V38    10.0   .     S
Er10     V18    10.0   .     S
Er11     V15    10.0   .     S
Er11     V63    10.0   .     S
Er11     V40    10.0   .     S
Er12     V49    10.0   1_545     S
Er12     V62    10.0   1_556     S
Er12     V17    10.0   .     S
Er13     V24    10.0   1_565     S
Er13     V37    10.0   .     S
Er13     V41    10.0   .     S
Er14     V56    10.0   .     S
Er14     V46    10.0   .     S
Er14     V26    10.0   .     S
V15     V16    10.0   .     S
V15     V19    10.0   .     S
V16     Er5    10.0   1_554     S
V16     V18    10.0   .     S
V17     V18    10.0   1_556     S
V17     V23    10.0   .     S
V18     V17    10.0   1_554     S
V19     V20    10.0   1_655     S
V20     V19    10.0   1_455     S
V20     V21    10.0   .     S
V21     Er4    10.0   1_455     S
V21     V22    10.0   .     S
V22     V25    10.0   .     S
V23     V24    10.0   .     S
V24     Er13    10.0   1_545     S
V24     V26    10.0   .     S
V25     V26    10.0   1_565     S
V25     Er27    10.0   .     S
V26     V25    10.0   1_545     S
Er27     V58    10.0   1_455     S
Er27     V39    10.0   1_565     S
V28     V29    10.0   .     S
V28     V31    10.0   .     S
V29     Er6    10.0   1_556     S
V29     V34    10.0   .     S
V30     V31    10.0   .     S
V30     V32    10.0   .     S
V32     V33    10.0   .     S
V33     V37    10.0   .     S
V34     V35    10.0   1_556     S
V35     V34    10.0   1_554     S
V35     V38    10.0   .     S
V35     Er52    10.0   1_655     S
V36     V37    10.0   1_545     S
V36     V39    10.0   .     S
V37     V36    10.0   1_565     S
V38     V39    10.0   1_655     S
V39     Er27    10.0   1_545     S
V39     V38    10.0   1_455     S
V40     V41    10.0   .     S
V40     V42    10.0   .     S
V41     V48    10.0   .     S
V42     V43    10.0   .     S
V43     V44    10.0   .     S
V44     V45    10.0   1_655     S
V45     V44    10.0   1_455     S
V45     V47    10.0   .     S
V46     V47    10.0   1_556     S
V46     V51    10.0   .     S
V47     Er6    10.0   1_455     S
V47     V46    10.0   1_554     S
V48     V49    10.0   .     S
V49     Er12    10.0   1_565     S
V49     V50    10.0   .     S
V50     V51    10.0   1_565     S
V51     V50    10.0   1_545     S
V51     Er52    10.0   1_556     S
Er52     V35    10.0   1_455     S
Er52     V64    10.0   1_545     S
Er52     V51    10.0   1_554     S
V53     V54    10.0   .     S
V53     V55    10.0   .     S
V54     V57    10.0   .     S
V55     V56    10.0   .     S
V56     V59    10.0   .     S
V57     V58    10.0   .     S
V58     Er27    10.0   1_655     S
V58     V63    10.0   .     S
V59     V60    10.0   1_556     S
V60     V59    10.0   1_554     S
V60     V62    10.0   .     S
V61     V62    10.0   1_565     S
V61     V64    10.0   .     S
V62     Er12    10.0   1_554     S
V62     V61    10.0   1_545     S
V63     V64    10.0   1_655     S
V64     Er52    10.0   1_565     S
V64     V63    10.0   1_455     S
