data_fcf
_audit_creation_date              2020-02-04
_audit_creation_method            'Pymatgen'
_symmetry_space_group_name_H-M    'P1'
_symmetry_Int_Tables_number       1
loop_
_symmetry_equiv_pos_as_xyz
  x,y,z
_cell_length_a                    58.4871
_cell_length_b                    58.4871
_cell_length_c                    58.4871
_cell_angle_alpha                 90.0
_cell_angle_beta                 90.0
_cell_angle_gamma                 90.0
loop_
_atom_site_label
_atom_site_type_symbol
_atom_site_fract_x
_atom_site_fract_y
_atom_site_fract_z
V1     V     0.75   0.6486   0.6162
V2     V     0.8514   0.6162   0.75
V3     V     0.6162   0.75   0.8514
V4     V     0.6486   0.6162   0.75
V5     V     0.8514   0.8838   0.75
V6     V     0.8838   0.75   0.6486
V7     V     0.75   0.8514   0.6162
V8     V     0.6162   0.75   0.6486
V9     V     0.6486   0.8838   0.75
V10     V     0.75   0.8514   0.8838
V11     V     0.8838   0.75   0.8514
V12     V     0.75   0.6486   0.8838
V13     V     0.8986   0.0   0.3662
V14     V     0.1338   0.1014   0.5
V15     V     0.0   0.8662   0.6014
V16     V     0.8986   0.0   0.6338
V17     V     0.8662   0.8986   0.5
V18     V     0.1014   0.0   0.6338
V19     V     0.1338   0.8986   0.5
V20     V     0.0   0.1338   0.6014
V21     V     0.8662   0.1014   0.5
V22     V     0.0   0.1338   0.3986
V23     V     0.0   0.8662   0.3986
V24     V     0.1014   0.0   0.3662
V25     V     0.0   0.6338   0.1014
V26     V     0.8662   0.6014   0.0
V27     V     0.0   0.3662   0.8986
V28     V     0.0   0.6338   0.8986
V29     V     0.1014   0.5   0.1338
V30     V     0.1338   0.6014   0.0
V31     V     0.8986   0.5   0.8662
V32     V     0.8986   0.5   0.1338
V33     V     0.1014   0.5   0.8662
V34     V     0.1338   0.3986   0.0
V35     V     0.8662   0.3986   0.0
V36     V     0.0   0.3662   0.1014
V37     V     0.6338   0.1014   0.0
V38     V     0.3662   0.8986   0.0
V39     V     0.5   0.1338   0.1014
V40     V     0.6014   0.0   0.8662
V41     V     0.5   0.8662   0.8986
V42     V     0.6338   0.8986   0.0
V43     V     0.5   0.1338   0.8986
V44     V     0.6014   0.0   0.1338
V45     V     0.5   0.8662   0.1014
V46     V     0.3986   0.0   0.8662
V47     V     0.3986   0.0   0.1338
V48     V     0.3662   0.1014   0.0
V49     V     0.6162   0.25   0.3514
V50     V     0.6486   0.1162   0.25
V51     V     0.8514   0.1162   0.25
V52     V     0.75   0.1486   0.1162
V53     V     0.75   0.3514   0.1162
V54     V     0.8838   0.25   0.1486
V55     V     0.6162   0.25   0.1486
V56     V     0.8514   0.3838   0.25
V57     V     0.75   0.1486   0.3838
V58     V     0.8838   0.25   0.3514
V59     V     0.6486   0.3838   0.25
V60     V     0.75   0.3514   0.3838
V61     V     0.25   0.1486   0.6162
V62     V     0.1486   0.1162   0.75
V63     V     0.1162   0.25   0.6486
V64     V     0.1162   0.25   0.8514
V65     V     0.25   0.1486   0.8838
V66     V     0.3514   0.1162   0.75
V67     V     0.3838   0.25   0.8514
V68     V     0.1486   0.3838   0.75
V69     V     0.25   0.3514   0.8838
V70     V     0.25   0.3514   0.6162
V71     V     0.3838   0.25   0.6486
V72     V     0.3514   0.3838   0.75
V73     V     0.6014   0.5   0.6338
V74     V     0.5   0.6338   0.6014
V75     V     0.6338   0.6014   0.5
V76     V     0.3662   0.3986   0.5
V77     V     0.5   0.3662   0.3986
V78     V     0.3986   0.5   0.3662
V79     V     0.5   0.6338   0.3986
V80     V     0.6014   0.5   0.3662
V81     V     0.3986   0.5   0.6338
V82     V     0.3662   0.6014   0.5
V83     V     0.6338   0.3986   0.5
V84     V     0.5   0.3662   0.6014
V85     V     0.25   0.6486   0.1162
V86     V     0.1486   0.6162   0.25
V87     V     0.25   0.8514   0.1162
V88     V     0.1162   0.75   0.3514
V89     V     0.1162   0.75   0.1486
V90     V     0.3514   0.6162   0.25
V91     V     0.25   0.6486   0.3838
V92     V     0.1486   0.8838   0.25
V93     V     0.3838   0.75   0.1486
V94     V     0.25   0.8514   0.3838
V95     V     0.3514   0.8838   0.25
V96     V     0.3838   0.75   0.3514
loop_
_geom_bond_atom_site_label_1
_geom_bond_atom_site_label_2
_geom_bond_distance
_geom_bond_site_symmetry_2
_ccdc_geom_bond_type
V1     V8    10.0   .     S
V1     V6    10.0   .     S
V1     V2    10.0   .     S
V1     V4    10.0   .     S
V1     V75    10.0   .     S
V2     V12    10.0   .     S
V2     V6    10.0   .     S
V2     V11    10.0   .     S
V2     V31    10.0   .     S
V3     V9    10.0   .     S
V3     V4    10.0   .     S
V3     V10    10.0   .     S
V3     V12    10.0   .     S
V3     V41    10.0   .     S
V4     V12    10.0   .     S
V4     V8    10.0   .     S
V4     V73    10.0   .     S
V5     V7    10.0   .     S
V5     V10    10.0   .     S
V5     V6    10.0   .     S
V5     V11    10.0   .     S
V5     V16    10.0   1_565     S
V6     V7    10.0   .     S
V6     V15    10.0   1_655     S
V7     V8    10.0   .     S
V7     V9    10.0   .     S
V7     V17    10.0   .     S
V8     V9    10.0   .     S
V8     V74    10.0   .     S
V9     V10    10.0   .     S
V9     V40    10.0   1_565     S
V10     V11    10.0   .     S
V10     V42    10.0   1_556     S
V11     V12    10.0   .     S
V11     V28    10.0   1_655     S
V12     V26    10.0   1_556     S
V13     V22    10.0   1_655     S
V13     V23    10.0   1_645     S
V13     V17    10.0   1_545     S
V13     V21    10.0   .     S
V13     V51    10.0   .     S
V14     V18    10.0   .     S
V14     V24    10.0   .     S
V14     V20    10.0   .     S
V14     V22    10.0   .     S
V14     V61    10.0   .     S
V15     V19    10.0   .     S
V15     V17    10.0   1_455     S
V15     V16    10.0   1_465     S
V15     V18    10.0   1_565     S
V15     V6    10.0   1_455     S
V16     V20    10.0   1_655     S
V16     V15    10.0   1_645     S
V16     V17    10.0   1_545     S
V16     V21    10.0   .     S
V16     V5    10.0   1_545     S
V17     V15    10.0   1_655     S
V17     V13    10.0   1_565     S
V17     V16    10.0   1_565     S
V17     V23    10.0   1_655     S
V18     V20    10.0   .     S
V18     V15    10.0   1_545     S
V18     V19    10.0   1_545     S
V18     V62    10.0   .     S
V19     V24    10.0   1_565     S
V19     V18    10.0   1_565     S
V19     V23    10.0   .     S
V19     V94    10.0   .     S
V20     V16    10.0   1_455     S
V20     V21    10.0   1_455     S
V20     V63    10.0   .     S
V21     V20    10.0   1_655     S
V21     V22    10.0   1_655     S
V21     V57    10.0   .     S
V22     V13    10.0   1_455     S
V22     V21    10.0   1_455     S
V22     V24    10.0   .     S
V22     V58    10.0   1_455     S
V23     V13    10.0   1_465     S
V23     V17    10.0   1_455     S
V23     V24    10.0   1_565     S
V23     V88    10.0   .     S
V24     V19    10.0   1_545     S
V24     V23    10.0   1_545     S
V24     V92    10.0   1_545     S
V25     V30    10.0   .     S
V25     V26    10.0   1_455     S
V25     V29    10.0   .     S
V25     V32    10.0   1_455     S
V25     V89    10.0   .     S
V26     V25    10.0   1_655     S
V26     V32    10.0   .     S
V26     V31    10.0   1_554     S
V26     V28    10.0   1_654     S
V26     V12    10.0   1_554     S
V27     V34    10.0   1_556     S
V27     V35    10.0   1_456     S
V27     V31    10.0   1_455     S
V27     V33    10.0   .     S
V27     V64    10.0   .     S
V28     V30    10.0   1_556     S
V28     V26    10.0   1_456     S
V28     V31    10.0   1_455     S
V28     V33    10.0   .     S
V28     V11    10.0   1_455     S
V29     V36    10.0   .     S
V29     V30    10.0   .     S
V29     V34    10.0   .     S
V29     V86    10.0   .     S
V30     V28    10.0   1_554     S
V30     V33    10.0   1_554     S
V30     V85    10.0   .     S
V31     V26    10.0   1_556     S
V31     V27    10.0   1_655     S
V31     V28    10.0   1_655     S
V31     V35    10.0   1_556     S
V32     V36    10.0   1_655     S
V32     V25    10.0   1_655     S
V32     V35    10.0   .     S
V32     V56    10.0   .     S
V33     V30    10.0   1_556     S
V33     V34    10.0   1_556     S
V33     V68    10.0   .     S
V34     V27    10.0   1_554     S
V34     V33    10.0   1_554     S
V34     V36    10.0   .     S
V34     V69    10.0   1_554     S
V35     V27    10.0   1_654     S
V35     V31    10.0   1_554     S
V35     V36    10.0   1_655     S
V35     V53    10.0   .     S
V36     V32    10.0   1_455     S
V36     V35    10.0   1_455     S
V36     V54    10.0   1_455     S
V37     V44    10.0   .     S
V37     V40    10.0   1_554     S
V37     V39    10.0   .     S
V37     V43    10.0   1_554     S
V37     V52    10.0   .     S
V38     V47    10.0   1_565     S
V38     V46    10.0   1_564     S
V38     V41    10.0   1_554     S
V38     V45    10.0   .     S
V38     V87    10.0   .     S
V39     V48    10.0   .     S
V39     V44    10.0   .     S
V39     V47    10.0   .     S
V39     V55    10.0   .     S
V40     V37    10.0   1_556     S
V40     V43    10.0   .     S
V40     V41    10.0   1_545     S
V40     V42    10.0   1_546     S
V40     V9    10.0   1_545     S
V41     V40    10.0   1_565     S
V41     V38    10.0   1_556     S
V41     V42    10.0   1_556     S
V41     V46    10.0   1_565     S
V42     V41    10.0   1_554     S
V42     V44    10.0   1_565     S
V42     V40    10.0   1_564     S
V42     V45    10.0   .     S
V42     V10    10.0   1_554     S
V43     V48    10.0   1_556     S
V43     V37    10.0   1_556     S
V43     V46    10.0   .     S
V43     V67    10.0   .     S
V44     V42    10.0   1_545     S
V44     V45    10.0   1_545     S
V44     V50    10.0   .     S
V45     V44    10.0   1_565     S
V45     V47    10.0   1_565     S
V45     V93    10.0   .     S
V46     V38    10.0   1_546     S
V46     V41    10.0   1_545     S
V46     V48    10.0   1_556     S
V46     V66    10.0   .     S
V47     V38    10.0   1_545     S
V47     V45    10.0   1_545     S
V47     V48    10.0   .     S
V47     V95    10.0   1_545     S
V48     V43    10.0   1_554     S
V48     V46    10.0   1_554     S
V48     V65    10.0   1_554     S
V49     V50    10.0   .     S
V49     V59    10.0   .     S
V49     V57    10.0   .     S
V49     V60    10.0   .     S
V49     V77    10.0   .     S
V50     V52    10.0   .     S
V50     V57    10.0   .     S
V50     V55    10.0   .     S
V51     V57    10.0   .     S
V51     V52    10.0   .     S
V51     V54    10.0   .     S
V51     V58    10.0   .     S
V52     V55    10.0   .     S
V52     V54    10.0   .     S
V53     V55    10.0   .     S
V53     V54    10.0   .     S
V53     V56    10.0   .     S
V53     V59    10.0   .     S
V54     V36    10.0   1_655     S
V54     V56    10.0   .     S
V55     V59    10.0   .     S
V56     V60    10.0   .     S
V56     V58    10.0   .     S
V57     V58    10.0   .     S
V58     V22    10.0   1_655     S
V58     V60    10.0   .     S
V59     V60    10.0   .     S
V59     V80    10.0   .     S
V60     V83    10.0   .     S
V61     V71    10.0   .     S
V61     V63    10.0   .     S
V61     V62    10.0   .     S
V61     V66    10.0   .     S
V62     V65    10.0   .     S
V62     V63    10.0   .     S
V62     V64    10.0   .     S
V63     V68    10.0   .     S
V63     V70    10.0   .     S
V64     V68    10.0   .     S
V64     V65    10.0   .     S
V64     V69    10.0   .     S
V65     V48    10.0   1_556     S
V65     V67    10.0   .     S
V65     V66    10.0   .     S
V66     V67    10.0   .     S
V66     V71    10.0   .     S
V67     V72    10.0   .     S
V67     V69    10.0   .     S
V68     V69    10.0   .     S
V68     V70    10.0   .     S
V69     V34    10.0   1_556     S
V69     V72    10.0   .     S
V70     V71    10.0   .     S
V70     V72    10.0   .     S
V70     V76    10.0   .     S
V71     V72    10.0   .     S
V71     V84    10.0   .     S
V72     V81    10.0   .     S
V73     V84    10.0   .     S
V73     V74    10.0   .     S
V73     V75    10.0   .     S
V73     V83    10.0   .     S
V74     V82    10.0   .     S
V74     V75    10.0   .     S
V74     V81    10.0   .     S
V75     V80    10.0   .     S
V75     V79    10.0   .     S
V76     V81    10.0   .     S
V76     V78    10.0   .     S
V76     V77    10.0   .     S
V76     V84    10.0   .     S
V77     V83    10.0   .     S
V77     V78    10.0   .     S
V77     V80    10.0   .     S
V78     V79    10.0   .     S
V78     V82    10.0   .     S
V78     V90    10.0   .     S
V79     V82    10.0   .     S
V79     V80    10.0   .     S
V79     V96    10.0   .     S
V80     V83    10.0   .     S
V81     V84    10.0   .     S
V81     V82    10.0   .     S
V82     V91    10.0   .     S
V83     V84    10.0   .     S
V85     V89    10.0   .     S
V85     V93    10.0   .     S
V85     V86    10.0   .     S
V85     V90    10.0   .     S
V86     V91    10.0   .     S
V86     V88    10.0   .     S
V86     V89    10.0   .     S
V87     V89    10.0   .     S
V87     V93    10.0   .     S
V87     V92    10.0   .     S
V87     V95    10.0   .     S
V88     V92    10.0   .     S
V88     V91    10.0   .     S
V88     V94    10.0   .     S
V89     V92    10.0   .     S
V90     V91    10.0   .     S
V90     V93    10.0   .     S
V90     V96    10.0   .     S
V91     V96    10.0   .     S
V92     V24    10.0   1_565     S
V92     V94    10.0   .     S
V93     V95    10.0   .     S
V94     V96    10.0   .     S
V94     V95    10.0   .     S
V95     V47    10.0   1_565     S
V95     V96    10.0   .     S
