data_fci
_audit_creation_date              2020-02-04
_audit_creation_method            'Pymatgen'
_symmetry_space_group_name_H-M    'P1'
_symmetry_Int_Tables_number       1
loop_
_symmetry_equiv_pos_as_xyz
  x,y,z
_cell_length_a                    39.3208
_cell_length_b                    39.3208
_cell_length_c                    39.3208
_cell_angle_alpha                 90.0
_cell_angle_beta                 90.0
_cell_angle_gamma                 90.0
loop_
_atom_site_label
_atom_site_type_symbol
_atom_site_fract_x
_atom_site_fract_y
_atom_site_fract_z
V1     V     0.2232   0.5192   0.8451
V2     V     0.2308   0.4732   0.5951
V3     V     0.2692   0.5268   0.0951
V4     V     0.2768   0.4808   0.3451
V5     V     0.0192   0.6549   0.7768
V6     V     0.9732   0.9049   0.7692
V7     V     0.9808   0.1549   0.7232
V8     V     0.0268   0.4049   0.7308
V9     V     0.7692   0.9732   0.9049
V10     V     0.7232   0.9808   0.1549
V11     V     0.7768   0.0192   0.6549
V12     V     0.7308   0.0268   0.4049
V13     V     0.5951   0.2308   0.4732
V14     V     0.8451   0.2232   0.5192
V15     V     0.0951   0.2692   0.5268
V16     V     0.3451   0.2768   0.4808
V17     V     0.9049   0.7692   0.9732
V18     V     0.1549   0.7232   0.9808
V19     V     0.6549   0.7768   0.0192
V20     V     0.4049   0.7308   0.0268
V21     V     0.5192   0.8451   0.2232
V22     V     0.4732   0.5951   0.2308
V23     V     0.5268   0.0951   0.2692
V24     V     0.4808   0.3451   0.2768
loop_
_geom_bond_atom_site_label_1
_geom_bond_atom_site_label_2
_geom_bond_distance
_geom_bond_site_symmetry_2
_ccdc_geom_bond_type
V1     V2    10.0   .     S
V1     V3    10.0   1_556     S
V1     V5    10.0   .     S
V1     V8    10.0   .     S
V1     V18    10.0   .     S
V2     V16    10.0   .     S
V2     V15    10.0   .     S
V2     V4    10.0   .     S
V2     V8    10.0   .     S
V3     V22    10.0   .     S
V3     V1    10.0   1_554     S
V3     V4    10.0   .     S
V3     V18    10.0   1_554     S
V3     V20    10.0   .     S
V4     V24    10.0   .     S
V4     V22    10.0   .     S
V4     V16    10.0   .     S
V5     V8    10.0   .     S
V5     V6    10.0   1_455     S
V5     V17    10.0   1_455     S
V5     V18    10.0   .     S
V6     V5    10.0   1_655     S
V6     V7    10.0   1_565     S
V6     V17    10.0   .     S
V6     V11    10.0   1_565     S
V6     V9    10.0   .     S
V7     V14    10.0   .     S
V7     V15    10.0   1_655     S
V7     V6    10.0   1_545     S
V7     V8    10.0   1_655     S
V7     V11    10.0   .     S
V8     V15    10.0   .     S
V8     V7    10.0   1_455     S
V9     V10    10.0   1_556     S
V9     V11    10.0   1_565     S
V9     V17    10.0   .     S
V9     V19    10.0   1_556     S
V10     V21    10.0   .     S
V10     V23    10.0   1_565     S
V10     V9    10.0   1_554     S
V10     V12    10.0   1_565     S
V10     V19    10.0   .     S
V11     V12    10.0   .     S
V11     V9    10.0   1_545     S
V11     V6    10.0   1_545     S
V11     V14    10.0   .     S
V12     V23    10.0   .     S
V12     V10    10.0   1_545     S
V12     V14    10.0   .     S
V12     V13    10.0   .     S
V13     V24    10.0   .     S
V13     V23    10.0   .     S
V13     V14    10.0   .     S
V13     V16    10.0   .     S
V14     V15    10.0   1_655     S
V15     V7    10.0   1_455     S
V15     V14    10.0   1_455     S
V15     V16    10.0   .     S
V16     V24    10.0   .     S
V17     V5    10.0   1_655     S
V17     V18    10.0   1_655     S
V17     V19    10.0   1_556     S
V18     V3    10.0   1_556     S
V18     V17    10.0   1_455     S
V18     V20    10.0   1_556     S
V19     V20    10.0   .     S
V19     V17    10.0   1_554     S
V19     V9    10.0   1_554     S
V19     V21    10.0   .     S
V20     V18    10.0   1_554     S
V20     V21    10.0   .     S
V20     V22    10.0   .     S
V21     V22    10.0   .     S
V21     V23    10.0   1_565     S
V22     V24    10.0   .     S
V23     V10    10.0   1_545     S
V23     V21    10.0   1_545     S
V23     V24    10.0   .     S
