data_fcm
_audit_creation_date              2020-02-04
_audit_creation_method            'Pymatgen'
_symmetry_space_group_name_H-M    'P1'
_symmetry_Int_Tables_number       1
loop_
_symmetry_equiv_pos_as_xyz
  x,y,z
_cell_length_a                    42.5191
_cell_length_b                    42.5191
_cell_length_c                    42.5191
_cell_angle_alpha                 90.0
_cell_angle_beta                 90.0
_cell_angle_gamma                 90.0
loop_
_atom_site_label
_atom_site_type_symbol
_atom_site_fract_x
_atom_site_fract_y
_atom_site_fract_z
V1     V     0.9842   0.5465   0.142
V2     V     0.7658   0.608   0.2035
V3     V     0.0465   0.642   0.4842
V4     V     0.108   0.7035   0.2658
V5     V     0.142   0.9842   0.5465
V6     V     0.2035   0.7658   0.608
V7     V     0.7035   0.2658   0.108
V8     V     0.642   0.4842   0.0465
V9     V     0.4842   0.0465   0.642
V10     V     0.2658   0.108   0.7035
V11     V     0.608   0.2035   0.7658
V12     V     0.5465   0.142   0.9842
V13     V     0.858   0.5158   0.5465
V14     V     0.7965   0.7342   0.608
V15     V     0.5158   0.4535   0.642
V16     V     0.7342   0.392   0.7035
V17     V     0.4535   0.358   0.9842
V18     V     0.392   0.2965   0.7658
V19     V     0.2965   0.2342   0.108
V20     V     0.358   0.0158   0.0465
V21     V     0.2342   0.892   0.2035
V22     V     0.0158   0.9535   0.142
V23     V     0.892   0.7965   0.2658
V24     V     0.9535   0.858   0.4842
V25     V     0.5158   0.5465   0.858
V26     V     0.7342   0.608   0.7965
V27     V     0.4535   0.642   0.5158
V28     V     0.392   0.7035   0.7342
V29     V     0.358   0.9842   0.4535
V30     V     0.2965   0.7658   0.392
V31     V     0.2342   0.108   0.2965
V32     V     0.0158   0.0465   0.358
V33     V     0.892   0.2035   0.2342
V34     V     0.9535   0.142   0.0158
V35     V     0.7965   0.2658   0.892
V36     V     0.858   0.4842   0.9535
V37     V     0.5465   0.858   0.5158
V38     V     0.608   0.7965   0.7342
V39     V     0.642   0.5158   0.4535
V40     V     0.7035   0.7342   0.392
V41     V     0.9842   0.4535   0.358
V42     V     0.7658   0.392   0.2965
V43     V     0.108   0.2965   0.2342
V44     V     0.0465   0.358   0.0158
V45     V     0.2035   0.2342   0.892
V46     V     0.142   0.0158   0.9535
V47     V     0.2658   0.892   0.7965
V48     V     0.4842   0.9535   0.858
loop_
_geom_bond_atom_site_label_1
_geom_bond_atom_site_label_2
_geom_bond_distance
_geom_bond_site_symmetry_2
_ccdc_geom_bond_type
V1     V44    10.0   1_655     S
V1     V36    10.0   1_554     S
V1     V2    10.0   .     S
V1     V4    10.0   1_655     S
V1     V41    10.0   .     S
V2     V23    10.0   .     S
V2     V40    10.0   .     S
V2     V8    10.0   .     S
V2     V42    10.0   .     S
V3     V41    10.0   1_455     S
V3     V13    10.0   1_455     S
V3     V4    10.0   .     S
V3     V6    10.0   .     S
V3     V24    10.0   1_455     S
V4     V21    10.0   .     S
V4     V30    10.0   .     S
V4     V1    10.0   1_455     S
V4     V23    10.0   1_455     S
V5     V32    10.0   1_565     S
V5     V24    10.0   1_455     S
V5     V6    10.0   .     S
V5     V10    10.0   1_565     S
V5     V29    10.0   .     S
V6     V47    10.0   .     S
V6     V28    10.0   .     S
V6     V30    10.0   .     S
V7     V33    10.0   .     S
V7     V42    10.0   .     S
V7     V8    10.0   .     S
V7     V12    10.0   1_554     S
V7     V35    10.0   1_554     S
V8     V17    10.0   1_554     S
V8     V25    10.0   1_554     S
V8     V36    10.0   1_554     S
V9     V29    10.0   1_545     S
V9     V37    10.0   1_545     S
V9     V10    10.0   .     S
V9     V11    10.0   .     S
V9     V48    10.0   1_545     S
V10     V45    10.0   .     S
V10     V18    10.0   .     S
V10     V5    10.0   1_545     S
V10     V47    10.0   1_545     S
V11     V35    10.0   .     S
V11     V16    10.0   .     S
V11     V12    10.0   .     S
V11     V18    10.0   .     S
V12     V20    10.0   1_556     S
V12     V48    10.0   1_545     S
V12     V7    10.0   1_556     S
V12     V17    10.0   .     S
V13     V41    10.0   .     S
V13     V3    10.0   1_655     S
V13     V14    10.0   .     S
V13     V16    10.0   .     S
V13     V39    10.0   .     S
V14     V26    10.0   .     S
V14     V38    10.0   .     S
V14     V24    10.0   .     S
V14     V40    10.0   .     S
V15     V27    10.0   .     S
V15     V39    10.0   .     S
V15     V16    10.0   .     S
V15     V18    10.0   .     S
V15     V25    10.0   .     S
V16     V35    10.0   .     S
V16     V26    10.0   .     S
V17     V8    10.0   1_556     S
V17     V25    10.0   .     S
V17     V18    10.0   .     S
V17     V19    10.0   1_556     S
V18     V45    10.0   .     S
V19     V31    10.0   .     S
V19     V43    10.0   .     S
V19     V17    10.0   1_554     S
V19     V20    10.0   .     S
V19     V45    10.0   1_554     S
V20     V48    10.0   1_544     S
V20     V12    10.0   1_554     S
V20     V21    10.0   1_545     S
V20     V46    10.0   1_554     S
V21     V30    10.0   .     S
V21     V22    10.0   .     S
V21     V20    10.0   1_565     S
V21     V31    10.0   1_565     S
V22     V46    10.0   1_564     S
V22     V34    10.0   1_465     S
V22     V23    10.0   1_455     S
V22     V32    10.0   1_565     S
V23     V40    10.0   .     S
V23     V22    10.0   1_655     S
V23     V24    10.0   .     S
V23     V4    10.0   1_655     S
V24     V32    10.0   1_665     S
V24     V5    10.0   1_655     S
V24     V3    10.0   1_655     S
V25     V8    10.0   1_556     S
V25     V26    10.0   .     S
V25     V28    10.0   .     S
V26     V38    10.0   .     S
V26     V36    10.0   .     S
V27     V39    10.0   .     S
V27     V28    10.0   .     S
V27     V30    10.0   .     S
V27     V37    10.0   .     S
V28     V47    10.0   .     S
V28     V38    10.0   .     S
V29     V9    10.0   1_565     S
V29     V37    10.0   .     S
V29     V30    10.0   .     S
V29     V31    10.0   1_565     S
V31     V43    10.0   .     S
V31     V21    10.0   1_545     S
V31     V29    10.0   1_545     S
V31     V32    10.0   .     S
V32     V5    10.0   1_545     S
V32     V24    10.0   1_445     S
V32     V33    10.0   1_455     S
V32     V22    10.0   1_545     S
V33     V42    10.0   .     S
V33     V34    10.0   .     S
V33     V32    10.0   1_655     S
V33     V43    10.0   1_655     S
V34     V46    10.0   1_654     S
V34     V22    10.0   1_645     S
V34     V35    10.0   1_554     S
V34     V44    10.0   1_655     S
V35     V34    10.0   1_556     S
V35     V36    10.0   .     S
V35     V7    10.0   1_556     S
V36     V44    10.0   1_656     S
V36     V1    10.0   1_556     S
V36     V8    10.0   1_556     S
V37     V9    10.0   1_565     S
V37     V38    10.0   .     S
V37     V40    10.0   .     S
V38     V48    10.0   .     S
V39     V40    10.0   .     S
V39     V42    10.0   .     S
V41     V3    10.0   1_655     S
V41     V42    10.0   .     S
V41     V43    10.0   1_655     S
V43     V33    10.0   1_455     S
V43     V41    10.0   1_455     S
V43     V44    10.0   .     S
V44     V1    10.0   1_455     S
V44     V36    10.0   1_454     S
V44     V45    10.0   1_554     S
V44     V34    10.0   1_455     S
V45     V46    10.0   .     S
V45     V44    10.0   1_556     S
V45     V19    10.0   1_556     S
V46     V22    10.0   1_546     S
V46     V34    10.0   1_456     S
V46     V47    10.0   1_545     S
V46     V20    10.0   1_556     S
V47     V46    10.0   1_565     S
V47     V48    10.0   .     S
V47     V10    10.0   1_565     S
V48     V20    10.0   1_566     S
V48     V12    10.0   1_565     S
V48     V9    10.0   1_565     S
