data_fcn
_audit_creation_date              2020-02-04
_audit_creation_method            'Pymatgen'
_symmetry_space_group_name_H-M    'P1'
_symmetry_Int_Tables_number       1
loop_
_symmetry_equiv_pos_as_xyz
  x,y,z
_cell_length_a                    43.7937
_cell_length_b                    43.7937
_cell_length_c                    43.7937
_cell_angle_alpha                 90.0
_cell_angle_beta                 90.0
_cell_angle_gamma                 90.0
loop_
_atom_site_label
_atom_site_type_symbol
_atom_site_fract_x
_atom_site_fract_y
_atom_site_fract_z
V1     V     0.0591   0.1523   0.9659
V2     V     0.1523   0.9659   0.0591
V3     V     0.9659   0.0591   0.1523
V4     V     0.7841   0.5977   0.6909
V5     V     0.6909   0.7841   0.5977
V6     V     0.5977   0.6909   0.7841
V7     V     0.9409   0.6523   0.5341
V8     V     0.0341   0.5591   0.3477
V9     V     0.8477   0.4659   0.4409
V10     V     0.7159   0.4023   0.1909
V11     V     0.9023   0.3091   0.2841
V12     V     0.8091   0.2159   0.0977
V13     V     0.6523   0.5341   0.9409
V14     V     0.5591   0.3477   0.0341
V15     V     0.4659   0.4409   0.8477
V16     V     0.4023   0.1909   0.7159
V17     V     0.2159   0.0977   0.8091
V18     V     0.3091   0.2841   0.9023
V19     V     0.5341   0.9409   0.6523
V20     V     0.3477   0.0341   0.5591
V21     V     0.4409   0.8477   0.4659
V22     V     0.1909   0.7159   0.4023
V23     V     0.2841   0.9023   0.3091
V24     V     0.0977   0.8091   0.2159
V25     V     0.1523   0.0341   0.4409
V26     V     0.0591   0.8477   0.5341
V27     V     0.9659   0.9409   0.3477
V28     V     0.8091   0.7841   0.4023
V29     V     0.7159   0.5977   0.3091
V30     V     0.9023   0.6909   0.2159
V31     V     0.0341   0.4409   0.1523
V32     V     0.9409   0.3477   0.9659
V33     V     0.8477   0.5341   0.0591
V34     V     0.7841   0.4023   0.8091
V35     V     0.5977   0.3091   0.7159
V36     V     0.6909   0.2159   0.9023
V37     V     0.1909   0.2841   0.0977
V38     V     0.0977   0.1909   0.2841
V39     V     0.2841   0.0977   0.1909
V40     V     0.4659   0.5591   0.6523
V41     V     0.5591   0.6523   0.4659
V42     V     0.6523   0.4659   0.5591
V43     V     0.4023   0.8091   0.7841
V44     V     0.3091   0.7159   0.5977
V45     V     0.2159   0.9023   0.6909
V46     V     0.4409   0.1523   0.0341
V47     V     0.3477   0.9659   0.9409
V48     V     0.5341   0.0591   0.8477
loop_
_geom_bond_atom_site_label_1
_geom_bond_atom_site_label_2
_geom_bond_distance
_geom_bond_site_symmetry_2
_ccdc_geom_bond_type
V1     V3    10.0   1_456     S
V1     V2    10.0   1_546     S
V1     V17    10.0   .     S
V1     V32    10.0   1_455     S
V1     V37    10.0   1_556     S
V2     V1    10.0   1_564     S
V2     V3    10.0   1_465     S
V2     V24    10.0   .     S
V2     V47    10.0   1_554     S
V2     V39    10.0   1_565     S
V3     V1    10.0   1_654     S
V3     V2    10.0   1_645     S
V3     V12    10.0   .     S
V3     V27    10.0   1_545     S
V3     V38    10.0   1_655     S
V4     V5    10.0   .     S
V4     V6    10.0   .     S
V4     V7    10.0   .     S
V4     V34    10.0   .     S
V4     V42    10.0   .     S
V5     V6    10.0   .     S
V5     V19    10.0   .     S
V5     V28    10.0   .     S
V5     V41    10.0   .     S
V6     V13    10.0   .     S
V6     V43    10.0   .     S
V6     V40    10.0   .     S
V7     V9    10.0   .     S
V7     V8    10.0   1_655     S
V7     V26    10.0   1_655     S
V7     V28    10.0   .     S
V8     V7    10.0   1_455     S
V8     V9    10.0   1_455     S
V8     V22    10.0   .     S
V8     V31    10.0   .     S
V8     V30    10.0   1_455     S
V9     V8    10.0   1_655     S
V9     V11    10.0   .     S
V9     V42    10.0   .     S
V9     V29    10.0   .     S
V10     V12    10.0   .     S
V10     V11    10.0   .     S
V10     V14    10.0   .     S
V10     V29    10.0   .     S
V10     V33    10.0   .     S
V11     V12    10.0   .     S
V11     V38    10.0   1_655     S
V11     V31    10.0   1_655     S
V12     V36    10.0   1_554     S
V12     V32    10.0   1_554     S
V13     V15    10.0   .     S
V13     V14    10.0   1_556     S
V13     V33    10.0   1_556     S
V13     V34    10.0   .     S
V14     V15    10.0   1_554     S
V14     V13    10.0   1_554     S
V14     V46    10.0   .     S
V14     V36    10.0   1_554     S
V15     V14    10.0   1_556     S
V15     V18    10.0   .     S
V15     V40    10.0   .     S
V15     V35    10.0   .     S
V16     V17    10.0   .     S
V16     V18    10.0   .     S
V16     V20    10.0   .     S
V16     V35    10.0   .     S
V16     V48    10.0   .     S
V17     V18    10.0   .     S
V17     V45    10.0   1_545     S
V17     V47    10.0   1_545     S
V18     V37    10.0   1_556     S
V18     V46    10.0   1_556     S
V19     V21    10.0   .     S
V19     V20    10.0   1_565     S
V19     V48    10.0   1_565     S
V19     V43    10.0   .     S
V20     V19    10.0   1_545     S
V20     V21    10.0   1_545     S
V20     V25    10.0   .     S
V20     V45    10.0   1_545     S
V21     V20    10.0   1_565     S
V21     V23    10.0   .     S
V21     V41    10.0   .     S
V21     V44    10.0   .     S
V22     V24    10.0   .     S
V22     V23    10.0   .     S
V22     V44    10.0   .     S
V22     V26    10.0   .     S
V23     V24    10.0   .     S
V23     V39    10.0   1_565     S
V23     V25    10.0   1_565     S
V24     V30    10.0   1_455     S
V24     V27    10.0   1_455     S
V25     V27    10.0   1_445     S
V25     V26    10.0   1_545     S
V25     V38    10.0   .     S
V25     V23    10.0   1_545     S
V26     V27    10.0   1_455     S
V26     V25    10.0   1_565     S
V26     V45    10.0   .     S
V26     V7    10.0   1_455     S
V27     V25    10.0   1_665     S
V27     V26    10.0   1_655     S
V27     V28    10.0   .     S
V27     V3    10.0   1_565     S
V27     V24    10.0   1_655     S
V28     V30    10.0   .     S
V28     V29    10.0   .     S
V29     V30    10.0   .     S
V29     V41    10.0   .     S
V30     V33    10.0   .     S
V30     V24    10.0   1_655     S
V30     V8    10.0   1_655     S
V31     V32    10.0   1_454     S
V31     V33    10.0   1_455     S
V31     V37    10.0   .     S
V31     V11    10.0   1_455     S
V32     V31    10.0   1_656     S
V32     V33    10.0   1_556     S
V32     V34    10.0   .     S
V32     V1    10.0   1_655     S
V32     V12    10.0   1_556     S
V33     V32    10.0   1_554     S
V33     V31    10.0   1_655     S
V33     V13    10.0   1_554     S
V34     V36    10.0   .     S
V34     V35    10.0   .     S
V35     V36    10.0   .     S
V35     V42    10.0   .     S
V36     V12    10.0   1_556     S
V36     V48    10.0   .     S
V36     V14    10.0   1_556     S
V37     V39    10.0   .     S
V37     V38    10.0   .     S
V37     V18    10.0   1_554     S
V37     V1    10.0   1_554     S
V38     V39    10.0   .     S
V38     V11    10.0   1_455     S
V38     V3    10.0   1_455     S
V39     V46    10.0   .     S
V39     V23    10.0   1_545     S
V39     V2    10.0   1_545     S
V40     V41    10.0   .     S
V40     V42    10.0   .     S
V40     V44    10.0   .     S
V41     V42    10.0   .     S
V43     V45    10.0   .     S
V43     V44    10.0   .     S
V43     V47    10.0   .     S
V44     V45    10.0   .     S
V45     V17    10.0   1_565     S
V45     V20    10.0   1_565     S
V46     V47    10.0   1_544     S
V46     V48    10.0   1_554     S
V46     V18    10.0   1_554     S
V47     V46    10.0   1_566     S
V47     V48    10.0   1_565     S
V47     V2    10.0   1_556     S
V47     V17    10.0   1_565     S
V48     V47    10.0   1_545     S
V48     V46    10.0   1_556     S
V48     V19    10.0   1_545     S
