data_fcq
_audit_creation_date              2020-02-04
_audit_creation_method            'Pymatgen'
_symmetry_space_group_name_H-M    'P1'
_symmetry_Int_Tables_number       1
loop_
_symmetry_equiv_pos_as_xyz
  x,y,z
_cell_length_a                    40.8729
_cell_length_b                    40.8729
_cell_length_c                    40.8729
_cell_angle_alpha                 90.0
_cell_angle_beta                 90.0
_cell_angle_gamma                 90.0
loop_
_atom_site_label
_atom_site_type_symbol
_atom_site_fract_x
_atom_site_fract_y
_atom_site_fract_z
V1     V     0.9008   0.8216   0.5385
V2     V     0.0992   0.6784   0.5385
V3     V     0.9284   0.6508   0.7115
V4     V     0.0716   0.8492   0.7115
V5     V     0.0992   0.3216   0.9615
V6     V     0.9284   0.3492   0.7885
V7     V     0.9008   0.1784   0.9615
V8     V     0.0716   0.1508   0.7885
V9     V     0.4284   0.1508   0.2115
V10     V     0.4008   0.3216   0.0385
V11     V     0.5716   0.3492   0.2115
V12     V     0.5992   0.1784   0.0385
V13     V     0.0385   0.4008   0.3216
V14     V     0.2115   0.4284   0.1508
V15     V     0.2115   0.5716   0.3492
V16     V     0.0385   0.5992   0.1784
V17     V     0.8216   0.5385   0.9008
V18     V     0.6784   0.5385   0.0992
V19     V     0.8492   0.7115   0.0716
V20     V     0.6508   0.7115   0.9284
V21     V     0.3216   0.9615   0.0992
V22     V     0.1508   0.7885   0.0716
V23     V     0.3492   0.7885   0.9284
V24     V     0.1784   0.9615   0.9008
V25     V     0.3492   0.2115   0.5716
V26     V     0.1784   0.0385   0.5992
V27     V     0.3216   0.0385   0.4008
V28     V     0.1508   0.2115   0.4284
V29     V     0.2885   0.5716   0.6508
V30     V     0.4615   0.5992   0.8216
V31     V     0.4615   0.4008   0.6784
V32     V     0.2885   0.4284   0.8492
V33     V     0.6508   0.2885   0.5716
V34     V     0.8216   0.4615   0.5992
V35     V     0.6784   0.4615   0.4008
V36     V     0.8492   0.2885   0.4284
V37     V     0.5385   0.9008   0.8216
V38     V     0.5385   0.0992   0.6784
V39     V     0.7115   0.0716   0.8492
V40     V     0.7115   0.9284   0.6508
V41     V     0.9615   0.0992   0.3216
V42     V     0.7885   0.9284   0.3492
V43     V     0.9615   0.9008   0.1784
V44     V     0.7885   0.0716   0.1508
V45     V     0.4284   0.8492   0.2885
V46     V     0.4008   0.6784   0.4615
V47     V     0.5716   0.6508   0.2885
V48     V     0.5992   0.8216   0.4615
loop_
_geom_bond_atom_site_label_1
_geom_bond_atom_site_label_2
_geom_bond_distance
_geom_bond_site_symmetry_2
_ccdc_geom_bond_type
V1     V40    10.0   .     S
V1     V3    10.0   .     S
V1     V4    10.0   1_655     S
V1     V2    10.0   1_655     S
V1     V42    10.0   .     S
V2     V29    10.0   .     S
V2     V4    10.0   .     S
V2     V3    10.0   1_455     S
V2     V1    10.0   1_455     S
V2     V15    10.0   .     S
V3     V34    10.0   .     S
V3     V4    10.0   1_655     S
V3     V2    10.0   1_655     S
V3     V17    10.0   .     S
V4     V26    10.0   1_565     S
V4     V1    10.0   1_455     S
V4     V3    10.0   1_455     S
V4     V24    10.0   .     S
V5     V32    10.0   .     S
V5     V8    10.0   .     S
V5     V7    10.0   1_455     S
V5     V6    10.0   1_455     S
V5     V14    10.0   1_556     S
V6     V8    10.0   1_655     S
V6     V5    10.0   1_655     S
V6     V17    10.0   .     S
V6     V7    10.0   .     S
V6     V34    10.0   .     S
V7     V5    10.0   1_655     S
V7     V39    10.0   .     S
V7     V8    10.0   1_655     S
V7     V44    10.0   1_556     S
V8     V6    10.0   1_455     S
V8     V24    10.0   1_545     S
V8     V7    10.0   1_455     S
V8     V26    10.0   .     S
V9     V21    10.0   1_545     S
V9     V10    10.0   .     S
V9     V11    10.0   .     S
V9     V12    10.0   .     S
V9     V27    10.0   .     S
V10     V14    10.0   .     S
V10     V11    10.0   .     S
V10     V12    10.0   .     S
V10     V32    10.0   1_554     S
V11     V18    10.0   .     S
V11     V12    10.0   .     S
V11     V35    10.0   .     S
V12     V44    10.0   .     S
V12     V39    10.0   1_554     S
V13     V28    10.0   .     S
V13     V14    10.0   .     S
V13     V15    10.0   .     S
V13     V16    10.0   .     S
V13     V36    10.0   1_455     S
V14     V5    10.0   1_554     S
V14     V15    10.0   .     S
V14     V16    10.0   .     S
V15     V16    10.0   .     S
V15     V46    10.0   .     S
V16     V22    10.0   .     S
V16     V19    10.0   1_455     S
V17     V19    10.0   1_556     S
V17     V20    10.0   .     S
V17     V18    10.0   1_556     S
V18     V47    10.0   .     S
V18     V19    10.0   .     S
V18     V20    10.0   1_554     S
V18     V17    10.0   1_554     S
V19     V16    10.0   1_655     S
V19     V20    10.0   1_554     S
V19     V17    10.0   1_554     S
V19     V43    10.0   .     S
V20     V19    10.0   1_556     S
V20     V30    10.0   .     S
V20     V18    10.0   1_556     S
V20     V37    10.0   .     S
V21     V9    10.0   1_565     S
V21     V45    10.0   .     S
V21     V22    10.0   .     S
V21     V24    10.0   1_554     S
V21     V23    10.0   1_554     S
V22     V43    10.0   1_455     S
V22     V23    10.0   1_554     S
V22     V24    10.0   1_554     S
V23     V22    10.0   1_556     S
V23     V21    10.0   1_556     S
V23     V37    10.0   .     S
V23     V24    10.0   .     S
V23     V30    10.0   .     S
V24     V8    10.0   1_565     S
V24     V21    10.0   1_556     S
V24     V22    10.0   1_556     S
V25     V38    10.0   .     S
V25     V26    10.0   .     S
V25     V28    10.0   .     S
V25     V27    10.0   .     S
V25     V31    10.0   .     S
V26     V4    10.0   1_545     S
V26     V28    10.0   .     S
V26     V27    10.0   .     S
V27     V28    10.0   .     S
V27     V45    10.0   1_545     S
V28     V41    10.0   1_455     S
V29     V46    10.0   .     S
V29     V30    10.0   .     S
V29     V32    10.0   .     S
V29     V31    10.0   .     S
V30     V32    10.0   .     S
V30     V31    10.0   .     S
V31     V32    10.0   .     S
V31     V33    10.0   .     S
V32     V10    10.0   1_556     S
V33     V34    10.0   .     S
V33     V35    10.0   .     S
V33     V36    10.0   .     S
V33     V38    10.0   .     S
V34     V36    10.0   .     S
V34     V35    10.0   .     S
V35     V36    10.0   .     S
V35     V47    10.0   .     S
V36     V13    10.0   1_655     S
V36     V41    10.0   .     S
V37     V39    10.0   1_565     S
V37     V40    10.0   .     S
V37     V38    10.0   1_565     S
V38     V39    10.0   .     S
V38     V40    10.0   1_545     S
V38     V37    10.0   1_545     S
V39     V12    10.0   1_556     S
V39     V37    10.0   1_545     S
V39     V40    10.0   1_545     S
V40     V39    10.0   1_565     S
V40     V48    10.0   .     S
V40     V38    10.0   1_565     S
V41     V28    10.0   1_655     S
V41     V44    10.0   .     S
V41     V42    10.0   1_545     S
V41     V43    10.0   1_545     S
V42     V41    10.0   1_565     S
V42     V44    10.0   1_565     S
V42     V43    10.0   .     S
V42     V48    10.0   .     S
V43     V22    10.0   1_655     S
V43     V41    10.0   1_565     S
V43     V44    10.0   1_565     S
V44     V42    10.0   1_545     S
V44     V7    10.0   1_554     S
V44     V43    10.0   1_545     S
V45     V27    10.0   1_565     S
V45     V46    10.0   .     S
V45     V48    10.0   .     S
V45     V47    10.0   .     S
V46     V48    10.0   .     S
V46     V47    10.0   .     S
V47     V48    10.0   .     S
