data_fcr
_audit_creation_date              2020-02-04
_audit_creation_method            'Pymatgen'
_symmetry_space_group_name_H-M    'P1'
_symmetry_Int_Tables_number       1
loop_
_symmetry_equiv_pos_as_xyz
  x,y,z
_cell_length_a                    38.6663
_cell_length_b                    38.6663
_cell_length_c                    38.6663
_cell_angle_alpha                 90.0
_cell_angle_beta                 90.0
_cell_angle_gamma                 90.0
loop_
_atom_site_label
_atom_site_type_symbol
_atom_site_fract_x
_atom_site_fract_y
_atom_site_fract_z
V1     V     0.4309   0.8593   0.0148
V2     V     0.0691   0.8593   0.9852
V3     V     0.2352   0.8907   0.1809
V4     V     0.2648   0.8907   0.8191
V5     V     0.0691   0.1407   0.5148
V6     V     0.2648   0.1093   0.6809
V7     V     0.4309   0.1407   0.4852
V8     V     0.2352   0.1093   0.3191
V9     V     0.9309   0.3593   0.5148
V10     V     0.7352   0.3907   0.6809
V11     V     0.5691   0.3593   0.4852
V12     V     0.7648   0.3907   0.3191
V13     V     0.7352   0.6093   0.8191
V14     V     0.5691   0.6407   0.0148
V15     V     0.7648   0.6093   0.1809
V16     V     0.9309   0.6407   0.9852
V17     V     0.9852   0.0691   0.8593
V18     V     0.1809   0.2351   0.8907
V19     V     0.8191   0.2648   0.8907
V20     V     0.0148   0.4309   0.8593
V21     V     0.4852   0.4309   0.1407
V22     V     0.5148   0.0691   0.1407
V23     V     0.6809   0.2648   0.1093
V24     V     0.3191   0.2352   0.1093
V25     V     0.1809   0.7648   0.6093
V26     V     0.0148   0.5691   0.6407
V27     V     0.8191   0.7352   0.6093
V28     V     0.9852   0.9309   0.6407
V29     V     0.5148   0.9309   0.3593
V30     V     0.4852   0.5691   0.3593
V31     V     0.6809   0.7352   0.3907
V32     V     0.3191   0.7648   0.3907
V33     V     0.8593   0.9852   0.0691
V34     V     0.8907   0.1809   0.2352
V35     V     0.8907   0.8191   0.2648
V36     V     0.8593   0.0149   0.4309
V37     V     0.6093   0.1809   0.7648
V38     V     0.6407   0.0149   0.5691
V39     V     0.6093   0.8191   0.7352
V40     V     0.6407   0.9852   0.9309
V41     V     0.3907   0.3191   0.7648
V42     V     0.3593   0.4852   0.5691
V43     V     0.3907   0.6809   0.7352
V44     V     0.3593   0.5148   0.9309
V45     V     0.1407   0.4852   0.4309
V46     V     0.1407   0.5148   0.0691
V47     V     0.1093   0.6809   0.2648
V48     V     0.1093   0.3191   0.2352
loop_
_geom_bond_atom_site_label_1
_geom_bond_atom_site_label_2
_geom_bond_distance
_geom_bond_site_symmetry_2
_ccdc_geom_bond_type
V1     V4    10.0   1_554     S
V1     V3    10.0   .     S
V1     V14    10.0   .     S
V1     V22    10.0   1_565     S
V1     V40    10.0   1_554     S
V2     V3    10.0   1_556     S
V2     V4    10.0   .     S
V2     V16    10.0   1_455     S
V2     V33    10.0   1_456     S
V2     V17    10.0   1_465     S
V3     V2    10.0   1_554     S
V3     V8    10.0   1_565     S
V3     V47    10.0   .     S
V3     V32    10.0   .     S
V4     V1    10.0   1_556     S
V4     V6    10.0   1_565     S
V4     V43    10.0   .     S
V4     V25    10.0   .     S
V5     V6    10.0   .     S
V5     V8    10.0   .     S
V5     V9    10.0   1_455     S
V5     V36    10.0   1_455     S
V5     V28    10.0   1_445     S
V6     V7    10.0   .     S
V6     V4    10.0   1_545     S
V6     V18    10.0   .     S
V6     V41    10.0   .     S
V7     V8    10.0   .     S
V7     V11    10.0   .     S
V7     V29    10.0   1_545     S
V7     V38    10.0   .     S
V8     V3    10.0   1_545     S
V8     V48    10.0   .     S
V8     V24    10.0   .     S
V9     V10    10.0   .     S
V9     V12    10.0   .     S
V9     V5    10.0   1_655     S
V9     V45    10.0   1_655     S
V9     V26    10.0   1_655     S
V10     V11    10.0   .     S
V10     V13    10.0   .     S
V10     V19    10.0   .     S
V10     V37    10.0   .     S
V11     V12    10.0   .     S
V11     V42    10.0   .     S
V11     V30    10.0   .     S
V12     V15    10.0   .     S
V12     V34    10.0   .     S
V12     V23    10.0   .     S
V13     V16    10.0   .     S
V13     V14    10.0   1_556     S
V13     V39    10.0   .     S
V13     V27    10.0   .     S
V14     V13    10.0   1_554     S
V14     V15    10.0   .     S
V14     V21    10.0   .     S
V14     V44    10.0   1_554     S
V15     V16    10.0   1_554     S
V15     V35    10.0   .     S
V15     V31    10.0   .     S
V16     V15    10.0   1_556     S
V16     V2    10.0   1_655     S
V16     V20    10.0   1_655     S
V16     V46    10.0   1_656     S
V17     V18    10.0   1_655     S
V17     V19    10.0   .     S
V17     V28    10.0   1_545     S
V17     V33    10.0   1_546     S
V17     V2    10.0   1_645     S
V18     V17    10.0   1_455     S
V18     V20    10.0   .     S
V18     V24    10.0   1_556     S
V18     V41    10.0   .     S
V19     V20    10.0   1_655     S
V19     V23    10.0   1_556     S
V19     V37    10.0   .     S
V20     V19    10.0   1_455     S
V20     V26    10.0   .     S
V20     V46    10.0   1_556     S
V20     V16    10.0   1_455     S
V21     V24    10.0   .     S
V21     V23    10.0   .     S
V21     V30    10.0   .     S
V21     V44    10.0   1_554     S
V22     V1    10.0   1_545     S
V22     V23    10.0   .     S
V22     V24    10.0   .     S
V22     V29    10.0   1_545     S
V22     V40    10.0   1_544     S
V23     V19    10.0   1_554     S
V23     V34    10.0   .     S
V24     V18    10.0   1_554     S
V24     V48    10.0   .     S
V25     V28    10.0   1_455     S
V25     V26    10.0   .     S
V25     V32    10.0   .     S
V25     V43    10.0   .     S
V26     V27    10.0   1_455     S
V26     V45    10.0   .     S
V26     V9    10.0   1_455     S
V27     V26    10.0   1_655     S
V27     V28    10.0   .     S
V27     V31    10.0   .     S
V27     V39    10.0   .     S
V28     V25    10.0   1_655     S
V28     V17    10.0   1_565     S
V28     V36    10.0   1_565     S
V28     V5    10.0   1_665     S
V29     V7    10.0   1_565     S
V29     V31    10.0   .     S
V29     V32    10.0   .     S
V29     V22    10.0   1_565     S
V29     V38    10.0   1_565     S
V30     V31    10.0   .     S
V30     V32    10.0   .     S
V30     V42    10.0   .     S
V31     V35    10.0   .     S
V32     V47    10.0   .     S
V33     V34    10.0   1_565     S
V33     V35    10.0   .     S
V33     V40    10.0   1_554     S
V33     V17    10.0   1_564     S
V33     V2    10.0   1_654     S
V34     V33    10.0   1_545     S
V34     V36    10.0   .     S
V34     V48    10.0   1_655     S
V35     V36    10.0   1_565     S
V35     V47    10.0   1_655     S
V36     V35    10.0   1_545     S
V36     V38    10.0   .     S
V36     V5    10.0   1_655     S
V36     V28    10.0   1_545     S
V37     V40    10.0   1_545     S
V37     V38    10.0   .     S
V37     V41    10.0   .     S
V38     V39    10.0   1_545     S
V38     V29    10.0   1_545     S
V39     V38    10.0   1_565     S
V39     V40    10.0   .     S
V39     V43    10.0   .     S
V40     V37    10.0   1_565     S
V40     V33    10.0   1_556     S
V40     V1    10.0   1_556     S
V40     V22    10.0   1_566     S
V41     V44    10.0   .     S
V41     V42    10.0   .     S
V42     V43    10.0   .     S
V42     V45    10.0   .     S
V43     V44    10.0   .     S
V44     V46    10.0   1_556     S
V44     V14    10.0   1_556     S
V44     V21    10.0   1_556     S
V45     V48    10.0   .     S
V45     V47    10.0   .     S
V45     V9    10.0   1_455     S
V46     V44    10.0   1_554     S
V46     V47    10.0   .     S
V46     V48    10.0   .     S
V46     V20    10.0   1_554     S
V46     V16    10.0   1_454     S
V47     V35    10.0   1_455     S
V48     V34    10.0   1_455     S
