data_fda
_audit_creation_date              2020-02-04
_audit_creation_method            'Pymatgen'
_symmetry_space_group_name_H-M    'P1'
_symmetry_Int_Tables_number       1
loop_
_symmetry_equiv_pos_as_xyz
  x,y,z
_cell_length_a                    48.67
_cell_length_b                    48.67
_cell_length_c                    48.67
_cell_angle_alpha                 90.0
_cell_angle_beta                 90.0
_cell_angle_gamma                 90.0
loop_
_atom_site_label
_atom_site_type_symbol
_atom_site_fract_x
_atom_site_fract_y
_atom_site_fract_z
V1     V     0.9476   0.0726   0.1774
V2     V     0.9476   0.9274   0.3226
V3     V     0.8024   0.9274   0.1774
V4     V     0.8024   0.0726   0.3226
V5     V     0.4274   0.6774   0.9476
V6     V     0.4274   0.8226   0.8024
V7     V     0.5726   0.6774   0.8024
V8     V     0.5726   0.8226   0.9476
V9     V     0.9274   0.1774   0.8024
V10     V     0.0726   0.3226   0.8024
V11     V     0.0726   0.1774   0.9476
V12     V     0.9274   0.3226   0.9476
V13     V     0.8024   0.4274   0.8226
V14     V     0.9476   0.4274   0.6774
V15     V     0.8024   0.5726   0.6774
V16     V     0.9476   0.5726   0.8226
V17     V     0.6774   0.4476   0.5726
V18     V     0.6774   0.3024   0.4274
V19     V     0.8226   0.3024   0.5726
V20     V     0.8226   0.4476   0.4274
V21     V     0.1774   0.3024   0.0726
V22     V     0.3226   0.3024   0.9274
V23     V     0.3226   0.4476   0.0726
V24     V     0.1774   0.4476   0.9274
V25     V     0.4274   0.3226   0.1976
V26     V     0.4274   0.1774   0.0524
V27     V     0.5726   0.1774   0.1976
V28     V     0.5726   0.3226   0.0524
V29     V     0.6774   0.1976   0.9274
V30     V     0.6774   0.0524   0.0726
V31     V     0.8226   0.0524   0.9274
V32     V     0.8226   0.1976   0.0726
V33     V     0.6976   0.0726   0.6774
V34     V     0.5524   0.9274   0.6774
V35     V     0.6976   0.9274   0.8226
V36     V     0.5524   0.0726   0.8226
V37     V     0.5726   0.3226   0.6976
V38     V     0.4274   0.3226   0.5524
V39     V     0.4274   0.1774   0.6976
V40     V     0.5726   0.1774   0.5524
V41     V     0.3226   0.9476   0.9274
V42     V     0.1774   0.9476   0.0726
V43     V     0.3226   0.8024   0.0726
V44     V     0.1774   0.8024   0.9274
V45     V     0.8226   0.8024   0.4274
V46     V     0.6774   0.9476   0.4274
V47     V     0.6774   0.8024   0.5726
V48     V     0.8226   0.9476   0.5726
V49     V     0.4274   0.6774   0.3024
V50     V     0.5726   0.6774   0.4476
V51     V     0.4274   0.8226   0.4476
V52     V     0.5726   0.8226   0.3024
V53     V     0.5524   0.4274   0.3226
V54     V     0.6976   0.5726   0.3226
V55     V     0.6976   0.4274   0.1774
V56     V     0.5524   0.5726   0.1774
V57     V     0.6774   0.6976   0.0726
V58     V     0.6774   0.5524   0.9274
V59     V     0.8226   0.6976   0.9274
V60     V     0.8226   0.5524   0.0726
V61     V     0.0726   0.1774   0.3024
V62     V     0.9274   0.3226   0.3024
V63     V     0.0726   0.3226   0.4476
V64     V     0.9274   0.1774   0.4476
V65     V     0.9274   0.6774   0.1976
V66     V     0.0726   0.6774   0.0524
V67     V     0.0726   0.8226   0.1976
V68     V     0.9274   0.8226   0.0524
V69     V     0.0524   0.4274   0.1774
V70     V     0.1976   0.4274   0.3226
V71     V     0.1976   0.5726   0.1774
V72     V     0.0524   0.5726   0.3226
V73     V     0.3024   0.9274   0.3226
V74     V     0.3024   0.0726   0.1774
V75     V     0.4476   0.0726   0.3226
V76     V     0.4476   0.9274   0.1774
V77     V     0.3226   0.5524   0.4274
V78     V     0.1774   0.6976   0.4274
V79     V     0.3226   0.6976   0.5726
V80     V     0.1774   0.5524   0.5726
V81     V     0.3024   0.4274   0.6774
V82     V     0.4476   0.5726   0.6774
V83     V     0.4476   0.4274   0.8226
V84     V     0.3024   0.5726   0.8226
V85     V     0.1774   0.1976   0.5726
V86     V     0.3226   0.0524   0.5726
V87     V     0.3226   0.1976   0.4274
V88     V     0.1774   0.0524   0.4274
V89     V     0.1976   0.9274   0.6774
V90     V     0.0524   0.0726   0.6774
V91     V     0.1976   0.0726   0.8226
V92     V     0.0524   0.9274   0.8226
V93     V     0.9274   0.8226   0.6976
V94     V     0.0726   0.8226   0.5524
V95     V     0.0726   0.6774   0.6976
V96     V     0.9274   0.6774   0.5524
loop_
_geom_bond_atom_site_label_1
_geom_bond_atom_site_label_2
_geom_bond_distance
_geom_bond_site_symmetry_2
_ccdc_geom_bond_type
V1     V2    10.0   1_545     S
V1     V3    10.0   1_545     S
V1     V4    10.0   .     S
V1     V61    10.0   1_655     S
V1     V32    10.0   .     S
V2     V1    10.0   1_565     S
V2     V3    10.0   .     S
V2     V4    10.0   1_565     S
V2     V45    10.0   .     S
V2     V67    10.0   1_655     S
V3     V1    10.0   1_565     S
V3     V4    10.0   1_565     S
V3     V30    10.0   1_565     S
V3     V68    10.0   .     S
V4     V3    10.0   1_545     S
V4     V2    10.0   1_545     S
V4     V46    10.0   1_545     S
V4     V64    10.0   .     S
V5     V8    10.0   .     S
V5     V6    10.0   .     S
V5     V7    10.0   .     S
V5     V43    10.0   1_556     S
V5     V84    10.0   .     S
V6     V8    10.0   .     S
V6     V7    10.0   .     S
V6     V34    10.0   .     S
V6     V41    10.0   .     S
V7     V8    10.0   .     S
V7     V58    10.0   .     S
V7     V82    10.0   .     S
V8     V35    10.0   .     S
V8     V57    10.0   1_556     S
V9     V11    10.0   1_655     S
V9     V12    10.0   .     S
V9     V10    10.0   1_655     S
V9     V90    10.0   1_655     S
V9     V31    10.0   .     S
V10     V11    10.0   .     S
V10     V12    10.0   1_455     S
V10     V9    10.0   1_455     S
V10     V14    10.0   1_455     S
V10     V24    10.0   .     S
V11     V9    10.0   1_455     S
V11     V12    10.0   1_455     S
V11     V21    10.0   1_556     S
V11     V91    10.0   .     S
V12     V10    10.0   1_655     S
V12     V11    10.0   1_655     S
V12     V13    10.0   .     S
V12     V32    10.0   1_556     S
V13     V16    10.0   .     S
V13     V14    10.0   .     S
V13     V15    10.0   .     S
V13     V58    10.0   .     S
V14     V10    10.0   1_655     S
V14     V16    10.0   .     S
V14     V15    10.0   .     S
V14     V19    10.0   .     S
V15     V16    10.0   .     S
V15     V96    10.0   .     S
V15     V17    10.0   .     S
V16     V59    10.0   .     S
V16     V95    10.0   1_655     S
V17     V19    10.0   .     S
V17     V18    10.0   .     S
V17     V20    10.0   .     S
V17     V37    10.0   .     S
V18     V20    10.0   .     S
V18     V19    10.0   .     S
V18     V53    10.0   .     S
V18     V40    10.0   .     S
V19     V20    10.0   .     S
V19     V64    10.0   .     S
V20     V62    10.0   .     S
V20     V54    10.0   .     S
V21     V11    10.0   1_554     S
V21     V22    10.0   1_554     S
V21     V23    10.0   .     S
V21     V24    10.0   1_554     S
V21     V69    10.0   .     S
V22     V24    10.0   .     S
V22     V21    10.0   1_556     S
V22     V23    10.0   1_556     S
V22     V26    10.0   1_556     S
V22     V83    10.0   .     S
V23     V22    10.0   1_554     S
V23     V24    10.0   1_554     S
V23     V25    10.0   .     S
V23     V71    10.0   .     S
V24     V21    10.0   1_556     S
V24     V23    10.0   1_556     S
V24     V84    10.0   .     S
V25     V26    10.0   .     S
V25     V28    10.0   .     S
V25     V27    10.0   .     S
V25     V53    10.0   .     S
V26     V22    10.0   1_554     S
V26     V27    10.0   .     S
V26     V28    10.0   .     S
V26     V74    10.0   .     S
V27     V28    10.0   .     S
V27     V30    10.0   .     S
V27     V75    10.0   .     S
V28     V55    10.0   .     S
V28     V29    10.0   1_554     S
V29     V31    10.0   .     S
V29     V30    10.0   1_556     S
V29     V32    10.0   1_556     S
V29     V28    10.0   1_556     S
V29     V36    10.0   .     S
V30     V3    10.0   1_545     S
V30     V29    10.0   1_554     S
V30     V31    10.0   1_554     S
V30     V32    10.0   .     S
V31     V30    10.0   1_556     S
V31     V32    10.0   1_556     S
V31     V35    10.0   1_545     S
V32     V29    10.0   1_554     S
V32     V31    10.0   1_554     S
V32     V12    10.0   1_554     S
V33     V36    10.0   .     S
V33     V34    10.0   1_545     S
V33     V35    10.0   1_545     S
V33     V48    10.0   1_545     S
V33     V40    10.0   .     S
V34     V33    10.0   1_565     S
V34     V35    10.0   .     S
V34     V36    10.0   1_565     S
V34     V47    10.0   .     S
V35     V33    10.0   1_565     S
V35     V36    10.0   1_565     S
V35     V31    10.0   1_565     S
V36     V34    10.0   1_545     S
V36     V35    10.0   1_545     S
V36     V39    10.0   .     S
V37     V40    10.0   .     S
V37     V38    10.0   .     S
V37     V39    10.0   .     S
V37     V83    10.0   .     S
V38     V40    10.0   .     S
V38     V39    10.0   .     S
V38     V81    10.0   .     S
V38     V87    10.0   .     S
V39     V40    10.0   .     S
V39     V86    10.0   .     S
V41     V42    10.0   1_556     S
V41     V43    10.0   1_556     S
V41     V44    10.0   .     S
V41     V91    10.0   1_565     S
V42     V41    10.0   1_554     S
V42     V43    10.0   .     S
V42     V44    10.0   1_554     S
V42     V74    10.0   1_565     S
V42     V67    10.0   .     S
V43     V41    10.0   1_554     S
V43     V44    10.0   1_554     S
V43     V5    10.0   1_554     S
V43     V76    10.0   .     S
V44     V42    10.0   1_556     S
V44     V43    10.0   1_556     S
V44     V66    10.0   1_556     S
V44     V92    10.0   .     S
V45     V48    10.0   .     S
V45     V46    10.0   .     S
V45     V47    10.0   .     S
V45     V96    10.0   .     S
V46     V4    10.0   1_565     S
V46     V48    10.0   .     S
V46     V47    10.0   .     S
V46     V52    10.0   .     S
V47     V48    10.0   .     S
V47     V50    10.0   .     S
V48     V33    10.0   1_565     S
V48     V93    10.0   .     S
V49     V50    10.0   .     S
V49     V51    10.0   .     S
V49     V52    10.0   .     S
V49     V56    10.0   .     S
V49     V77    10.0   .     S
V50     V51    10.0   .     S
V50     V52    10.0   .     S
V50     V54    10.0   .     S
V51     V52    10.0   .     S
V51     V73    10.0   .     S
V51     V79    10.0   .     S
V52     V76    10.0   .     S
V53     V56    10.0   .     S
V53     V55    10.0   .     S
V53     V54    10.0   .     S
V54     V56    10.0   .     S
V54     V55    10.0   .     S
V55     V56    10.0   .     S
V55     V60    10.0   .     S
V56     V57    10.0   .     S
V57     V58    10.0   1_554     S
V57     V60    10.0   .     S
V57     V59    10.0   1_554     S
V57     V8    10.0   1_554     S
V58     V59    10.0   .     S
V58     V57    10.0   1_556     S
V58     V60    10.0   1_556     S
V59     V57    10.0   1_556     S
V59     V60    10.0   1_556     S
V59     V68    10.0   1_556     S
V60     V58    10.0   1_554     S
V60     V59    10.0   1_554     S
V60     V65    10.0   .     S
V61     V1    10.0   1_455     S
V61     V63    10.0   .     S
V61     V64    10.0   1_455     S
V61     V62    10.0   1_455     S
V61     V88    10.0   .     S
V62     V61    10.0   1_655     S
V62     V64    10.0   .     S
V62     V63    10.0   1_655     S
V62     V69    10.0   1_655     S
V63     V62    10.0   1_455     S
V63     V64    10.0   1_455     S
V63     V85    10.0   .     S
V63     V70    10.0   .     S
V64     V61    10.0   1_655     S
V64     V63    10.0   1_655     S
V65     V68    10.0   .     S
V65     V66    10.0   1_655     S
V65     V67    10.0   1_655     S
V65     V72    10.0   1_655     S
V66     V44    10.0   1_554     S
V66     V65    10.0   1_455     S
V66     V67    10.0   .     S
V66     V68    10.0   1_455     S
V66     V71    10.0   .     S
V67     V65    10.0   1_455     S
V67     V68    10.0   1_455     S
V67     V2    10.0   1_455     S
V68     V59    10.0   1_554     S
V68     V66    10.0   1_655     S
V68     V67    10.0   1_655     S
V69     V62    10.0   1_455     S
V69     V72    10.0   .     S
V69     V71    10.0   .     S
V69     V70    10.0   .     S
V70     V72    10.0   .     S
V70     V71    10.0   .     S
V70     V77    10.0   .     S
V71     V72    10.0   .     S
V72     V65    10.0   1_455     S
V72     V78    10.0   .     S
V73     V76    10.0   .     S
V73     V75    10.0   1_565     S
V73     V74    10.0   1_565     S
V73     V88    10.0   1_565     S
V74     V42    10.0   1_545     S
V74     V73    10.0   1_545     S
V74     V75    10.0   .     S
V74     V76    10.0   1_545     S
V75     V73    10.0   1_545     S
V75     V76    10.0   1_545     S
V75     V87    10.0   .     S
V76     V74    10.0   1_565     S
V76     V75    10.0   1_565     S
V77     V80    10.0   .     S
V77     V78    10.0   .     S
V77     V79    10.0   .     S
V78     V80    10.0   .     S
V78     V79    10.0   .     S
V78     V94    10.0   .     S
V79     V80    10.0   .     S
V79     V82    10.0   .     S
V80     V81    10.0   .     S
V80     V95    10.0   .     S
V81     V82    10.0   .     S
V81     V83    10.0   .     S
V81     V84    10.0   .     S
V82     V83    10.0   .     S
V82     V84    10.0   .     S
V83     V84    10.0   .     S
V85     V86    10.0   .     S
V85     V88    10.0   .     S
V85     V87    10.0   .     S
V85     V90    10.0   .     S
V86     V87    10.0   .     S
V86     V88    10.0   .     S
V86     V89    10.0   1_545     S
V87     V88    10.0   .     S
V88     V73    10.0   1_545     S
V89     V92    10.0   .     S
V89     V90    10.0   1_565     S
V89     V91    10.0   1_565     S
V89     V86    10.0   1_565     S
V89     V94    10.0   .     S
V90     V9    10.0   1_455     S
V90     V89    10.0   1_545     S
V90     V91    10.0   .     S
V90     V92    10.0   1_545     S
V91     V89    10.0   1_545     S
V91     V92    10.0   1_545     S
V91     V41    10.0   1_545     S
V92     V90    10.0   1_565     S
V92     V91    10.0   1_565     S
V92     V93    10.0   1_455     S
V93     V94    10.0   1_655     S
V93     V96    10.0   .     S
V93     V95    10.0   1_655     S
V93     V92    10.0   1_655     S
V94     V93    10.0   1_455     S
V94     V95    10.0   .     S
V94     V96    10.0   1_455     S
V95     V96    10.0   1_455     S
V95     V93    10.0   1_455     S
V95     V16    10.0   1_455     S
V96     V95    10.0   1_655     S
V96     V94    10.0   1_655     S
