data_fele
_audit_creation_date              2020-02-04
_audit_creation_method            'Pymatgen'
_symmetry_space_group_name_H-M    'P1'
_symmetry_Int_Tables_number       1
loop_
_symmetry_equiv_pos_as_xyz
  x,y,z
_cell_length_a                    34.7146
_cell_length_b                    48.099
_cell_length_c                    26.1876
_cell_angle_alpha                 90.0
_cell_angle_beta                 108.612
_cell_angle_gamma                 90.0
loop_
_atom_site_label
_atom_site_type_symbol
_atom_site_fract_x
_atom_site_fract_y
_atom_site_fract_z
Er1     Er     0.5   0.6882   0.0
Er2     Er     0.5   0.3118   0.0
Er3     Er     0.0   0.8118   0.0
Er4     Er     0.0   0.1882   0.0
Ce5     Ce     0.8994   0.6749   0.6993
Ce6     Ce     0.8994   0.3251   0.6993
S7     S     0.1763   0.8756   0.3627
S8     S     0.1763   0.1244   0.3627
Ti9     Ti     0.1095   0.8154   0.6902
V10     V     0.2406   0.0   0.6851
Ti11     Ti     0.1095   0.1846   0.6902
Ce12     Ce     0.1006   0.6749   0.3007
Ce13     Ce     0.1006   0.3251   0.3007
Ti14     Ti     0.8905   0.1846   0.3098
S15     S     0.8237   0.1244   0.6373
V16     V     0.7594   0.0   0.3149
Ti17     Ti     0.8905   0.8154   0.3098
S18     S     0.8237   0.8756   0.6373
Ce19     Ce     0.6006   0.1749   0.3007
Ce20     Ce     0.6006   0.8251   0.3007
S21     S     0.3237   0.3756   0.6373
S22     S     0.3237   0.6244   0.6373
Ti23     Ti     0.3905   0.6846   0.3098
V24     V     0.2594   0.5   0.3149
Ti25     Ti     0.3905   0.3154   0.3098
Ce26     Ce     0.3994   0.1749   0.6993
Ce27     Ce     0.3994   0.8251   0.6993
S28     S     0.6763   0.3756   0.3627
V29     V     0.7406   0.5   0.6851
Ti30     Ti     0.6095   0.3154   0.6902
Ti31     Ti     0.6095   0.6846   0.6902
S32     S     0.6763   0.6244   0.3627
loop_
_geom_bond_atom_site_label_1
_geom_bond_atom_site_label_2
_geom_bond_distance
_geom_bond_site_symmetry_2
_ccdc_geom_bond_type
Er1     Ce20    10.0   .     S
Er1     Ce27    10.0   1_554     S
Er1     Ti31    10.0   1_554     S
Er1     Ti23    10.0   .     S
Er1     S22    10.0   1_554     S
Er1     S32    10.0   .     S
Er2     Ce19    10.0   .     S
Er2     Ce26    10.0   1_554     S
Er2     Ti30    10.0   1_554     S
Er2     Ti25    10.0   .     S
Er2     S21    10.0   1_554     S
Er2     S28    10.0   .     S
Er3     Ce12    10.0   .     S
Er3     Ce5    10.0   1_454     S
Er3     Ti9    10.0   1_554     S
Er3     Ti17    10.0   1_455     S
Er3     S7    10.0   .     S
Er3     S18    10.0   1_454     S
Er4     Ce13    10.0   .     S
Er4     Ce6    10.0   1_454     S
Er4     Ti11    10.0   1_554     S
Er4     Ti14    10.0   1_455     S
Er4     S8    10.0   .     S
Er4     S15    10.0   1_454     S
Ce5     Er3    10.0   1_656     S
Ce5     S18    10.0   .     S
Ce5     Ti9    10.0   1_655     S
Ce5     V29    10.0   .     S
Ce5     S32    10.0   .     S
Ce5     Ti31    10.0   .     S
Ce6     Er4    10.0   1_656     S
Ce6     S15    10.0   .     S
Ce6     Ti11    10.0   1_655     S
Ce6     V29    10.0   .     S
Ce6     S28    10.0   .     S
Ce6     Ti30    10.0   .     S
S7     Ti17    10.0   1_455     S
S7     V10    10.0   1_565     S
S7     Ce27    10.0   .     S
S7     Ti9    10.0   .     S
S7     Ce12    10.0   .     S
S8     Ti14    10.0   1_455     S
S8     V10    10.0   .     S
S8     Ce26    10.0   .     S
S8     Ti11    10.0   .     S
S8     Ce13    10.0   .     S
Ti9     Er3    10.0   1_556     S
Ti9     Ce5    10.0   1_455     S
Ti9     V10    10.0   1_565     S
Ti9     Ce27    10.0   .     S
Ti9     S18    10.0   1_455     S
V10     S7    10.0   1_545     S
V10     Ti9    10.0   1_545     S
V10     Ce27    10.0   1_545     S
V10     Ce26    10.0   .     S
V10     Ti11    10.0   .     S
Ti11     Er4    10.0   1_556     S
Ti11     Ce6    10.0   1_455     S
Ti11     Ce26    10.0   .     S
Ti11     S15    10.0   1_455     S
Ce12     Ti17    10.0   1_455     S
Ce12     S22    10.0   .     S
Ce12     Ti23    10.0   .     S
Ce12     V24    10.0   .     S
Ce13     Ti14    10.0   1_455     S
Ce13     V24    10.0   .     S
Ce13     S21    10.0   .     S
Ce13     Ti25    10.0   .     S
Ti14     Er4    10.0   1_655     S
Ti14     S8    10.0   1_655     S
Ti14     Ce13    10.0   1_655     S
Ti14     V16    10.0   .     S
Ti14     S15    10.0   .     S
Ti14     Ce19    10.0   .     S
S15     V16    10.0   .     S
S15     Ce19    10.0   .     S
S15     Ti11    10.0   1_655     S
S15     Er4    10.0   1_656     S
V16     Ce20    10.0   1_545     S
V16     Ce19    10.0   .     S
V16     S18    10.0   1_545     S
V16     Ti17    10.0   1_545     S
Ti17     Er3    10.0   1_655     S
Ti17     S7    10.0   1_655     S
Ti17     Ce12    10.0   1_655     S
Ti17     V16    10.0   1_565     S
Ti17     S18    10.0   .     S
Ti17     Ce20    10.0   .     S
S18     V16    10.0   1_565     S
S18     Ce20    10.0   .     S
S18     Ti9    10.0   1_655     S
S18     Er3    10.0   1_656     S
Ce19     S28    10.0   .     S
Ce19     Ti25    10.0   .     S
Ce20     V16    10.0   1_565     S
Ce20     S32    10.0   .     S
Ce20     Ti23    10.0   .     S
S21     Ti30    10.0   .     S
S21     Er2    10.0   1_556     S
S21     V24    10.0   .     S
S21     Ti25    10.0   .     S
S21     Ce26    10.0   .     S
S22     Ti31    10.0   .     S
S22     Er1    10.0   1_556     S
S22     V24    10.0   .     S
S22     Ti23    10.0   .     S
S22     Ce27    10.0   .     S
Ti23     V24    10.0   .     S
Ti23     S32    10.0   .     S
V24     Ti25    10.0   .     S
Ti25     S28    10.0   .     S
Ce26     Er2    10.0   1_556     S
Ce26     Ti30    10.0   .     S
Ce27     Er1    10.0   1_556     S
Ce27     V10    10.0   1_565     S
Ce27     Ti31    10.0   .     S
S28     V29    10.0   .     S
S28     Ti30    10.0   .     S
V29     Ti30    10.0   .     S
V29     S32    10.0   .     S
V29     Ti31    10.0   .     S
Ti30     Er2    10.0   1_556     S
Ti31     Er1    10.0   1_556     S
Ti31     S32    10.0   .     S
