data_ffda
_audit_creation_date              2020-02-04
_audit_creation_method            'Pymatgen'
_symmetry_space_group_name_H-M    'P1'
_symmetry_Int_Tables_number       1
loop_
_symmetry_equiv_pos_as_xyz
  x,y,z
_cell_length_a                    105.5592
_cell_length_b                    105.5592
_cell_length_c                    54.9081
_cell_angle_alpha                 90.0
_cell_angle_beta                 90.0
_cell_angle_gamma                 120.0
loop_
_atom_site_label
_atom_site_type_symbol
_atom_site_fract_x
_atom_site_fract_y
_atom_site_fract_z
Ce1     Ce     0.5474   0.0   0.6686
Ti2     Ti     0.603   0.0   0.8159
H3     H     0.6765   0.0547   0.9464
H4     H     0.6218   0.9453   0.9464
Er5     Er     0.4727   0.9453   0.5398
Er6     Er     0.5273   0.0547   0.5398
Ce7     Ce     0.4526   0.0   0.6686
Ti8     Ti     0.397   0.0   0.8159
H9     H     0.3782   0.0547   0.9464
H10     H     0.3235   0.9453   0.9464
Ce11     Ce     0.5474   0.5474   0.6686
Ti12     Ti     0.603   0.603   0.8159
H13     H     0.6765   0.6218   0.9464
H14     H     0.6218   0.6765   0.9464
Er15     Er     0.5273   0.4727   0.5398
Er16     Er     0.4727   0.5273   0.5398
Ce17     Ce     0.4526   0.4526   0.6686
Ti18     Ti     0.397   0.397   0.8159
H19     H     0.3235   0.3782   0.9464
H20     H     0.3782   0.3235   0.9464
V21     V     0.5554   0.4446   0.3833
Li22     Li     0.6253   0.4695   0.2446
Li23     Li     0.5305   0.3747   0.2446
S24     S     0.7492   0.5931   0.0
He25     He     0.809   0.5232   0.1401
He26     He     0.7142   0.5232   0.1401
S27     S     0.8439   0.5931   0.0
V28     V     0.8893   0.4446   0.3833
Li29     Li     0.8442   0.3747   0.2446
Li30     Li     0.8442   0.4695   0.2446
S31     S     0.7492   0.1561   0.0
S32     S     0.8439   0.2508   0.0
He33     He     0.809   0.2858   0.1401
He34     He     0.7142   0.191   0.1401
S35     S     0.407   0.1561   0.0
He36     He     0.4768   0.2858   0.1401
He37     He     0.4768   0.191   0.1401
S38     S     0.407   0.2508   0.0
V39     V     0.5554   0.1107   0.3833
Li40     Li     0.6253   0.1558   0.2446
Li41     Li     0.5305   0.1558   0.2446
Ce42     Ce     0.0   0.4526   0.6686
Ti43     Ti     0.0   0.397   0.8159
H44     H     0.0547   0.3782   0.9464
H45     H     0.9453   0.3235   0.9464
Ce46     Ce     0.0   0.5474   0.6686
Ti47     Ti     0.0   0.603   0.8159
H48     H     0.0547   0.6765   0.9464
H49     H     0.9453   0.6218   0.9464
Er50     Er     0.0547   0.5273   0.5398
Er51     Er     0.9453   0.4727   0.5398
He52     He     0.191   0.7142   0.1401
He53     He     0.2858   0.809   0.1401
S54     S     0.1561   0.7492   0.0
S55     S     0.2508   0.8439   0.0
S56     S     0.2508   0.407   0.0
He57     He     0.191   0.4768   0.1401
He58     He     0.2858   0.4768   0.1401
S59     S     0.1561   0.407   0.0
V60     V     0.1107   0.5554   0.3833
Li61     Li     0.1558   0.6253   0.2446
Li62     Li     0.1558   0.5305   0.2446
V63     V     0.4446   0.5554   0.3833
Li64     Li     0.4695   0.6253   0.2446
Li65     Li     0.3747   0.5305   0.2446
S66     S     0.5931   0.8439   0.0
He67     He     0.5232   0.809   0.1401
He68     He     0.5232   0.7142   0.1401
S69     S     0.5931   0.7492   0.0
V70     V     0.4446   0.8893   0.3833
Li71     Li     0.3747   0.8442   0.2446
Li72     Li     0.4695   0.8442   0.2446
loop_
_geom_bond_atom_site_label_1
_geom_bond_atom_site_label_2
_geom_bond_distance
_geom_bond_site_symmetry_2
_ccdc_geom_bond_type
Ce1     Ti2    9.999   .     S
Ce1     Er5    10.0   1_545     S
Ce1     Er6    10.0   .     S
Ce1     Ce7    10.001   .     S
Ti2     H4    10.0   1_545     S
Ti2     H3    10.0   .     S
H3     H4    9.999   1_545     S
H3     S31    10.0   1_556     S
H4     H3    9.999   1_565     S
H4     Ti2    10.0   1_565     S
H4     S66    10.0   1_556     S
Er5     Ce7    10.0   1_565     S
Er5     Ce1    10.0   1_565     S
Er5     Er6    9.999   1_565     S
Er5     V70    10.001   .     S
Er6     Ce7    10.0   .     S
Er6     Er5    9.999   1_545     S
Er6     V39    10.001   .     S
Ce7     Er5    10.0   1_545     S
Ce7     Ti8    9.999   .     S
Ti8     H9    10.0   .     S
Ti8     H10    10.0   1_545     S
H9     H10    9.999   1_545     S
H9     S35    10.0   1_556     S
H10     H9    9.999   1_565     S
H10     Ti8    10.0   1_565     S
H10     S55    10.0   1_556     S
Ce11     Ti12    9.999   .     S
Ce11     Er15    10.0   .     S
Ce11     Er16    10.0   .     S
Ce11     Ce17    10.001   .     S
Ti12     H14    10.0   .     S
Ti12     H13    10.0   .     S
H13     H14    9.999   .     S
H13     S24    10.0   1_556     S
H14     S69    10.0   1_556     S
Er15     Ce17    10.0   .     S
Er15     Er16    9.999   .     S
Er15     V21    10.001   .     S
Er16     Ce17    10.0   .     S
Er16     V63    10.001   .     S
Ce17     Ti18    9.999   .     S
Ti18     H19    10.0   .     S
Ti18     H20    10.0   .     S
H19     H20    9.999   .     S
H19     S56    10.0   1_556     S
H20     S38    10.0   1_556     S
V21     Li23    10.0   .     S
V21     Li22    10.0   .     S
Li22     Li23    10.0   .     S
Li22     He26    10.0   .     S
Li23     He36    10.0   .     S
S24     H13    10.0   1_554     S
S24     S27    10.0   .     S
S24     He26    10.0   .     S
He25     He26    10.0   .     S
He25     S27    10.0   .     S
He25     Li30    10.0   .     S
S27     H49    10.0   1_554     S
V28     Er51    10.001   .     S
V28     Li30    10.0   .     S
V28     Li29    10.0   .     S
Li29     Li30    10.0   .     S
Li29     He33    10.0   .     S
S31     H3    10.0   1_554     S
S31     S32    10.0   .     S
S31     He34    10.0   .     S
S32     He33    10.0   .     S
S32     H45    10.0   1_554     S
He33     He34    10.0   .     S
He34     Li40    10.0   .     S
S35     H9    10.0   1_554     S
S35     S38    10.0   .     S
S35     He37    10.0   .     S
He36     He37    10.0   .     S
He36     S38    10.0   .     S
He37     Li41    10.0   .     S
S38     H20    10.0   1_554     S
V39     Li40    10.0   .     S
V39     Li41    10.0   .     S
Li40     Li41    10.0   .     S
Ce42     Ti43    9.999   .     S
Ce42     Er50    10.0   .     S
Ce42     Er51    10.0   1_455     S
Ce42     Ce46    10.001   .     S
Ti43     H45    10.0   1_455     S
Ti43     H44    10.0   .     S
H44     H45    9.999   1_455     S
H44     S59    10.0   1_556     S
H45     H44    9.999   1_655     S
H45     Ti43    10.0   1_655     S
H45     S32    10.0   1_556     S
Ce46     Ti47    9.999   .     S
Ce46     Er50    10.0   .     S
Ce46     Er51    10.0   1_455     S
Ti47     H48    10.0   .     S
Ti47     H49    10.0   1_455     S
H48     H49    9.999   1_455     S
H48     S54    10.0   1_556     S
H49     H48    9.999   1_655     S
H49     Ti47    10.0   1_655     S
H49     S27    10.0   1_556     S
Er50     Er51    9.999   1_455     S
Er50     V60    10.001   .     S
Er51     Ce42    10.0   1_655     S
Er51     Ce46    10.0   1_655     S
Er51     Er50    9.999   1_655     S
He52     He53    10.0   .     S
He52     S54    10.0   .     S
He52     Li61    10.0   .     S
He53     S55    10.0   .     S
He53     Li71    10.0   .     S
S54     H48    10.0   1_554     S
S54     S55    10.0   .     S
S55     H10    10.0   1_554     S
S56     H19    10.0   1_554     S
S56     S59    10.0   .     S
S56     He58    10.0   .     S
He57     He58    10.0   .     S
He57     S59    10.0   .     S
He57     Li62    10.0   .     S
He58     Li65    10.0   .     S
S59     H44    10.0   1_554     S
V60     Li62    10.0   .     S
V60     Li61    10.0   .     S
Li61     Li62    10.0   .     S
V63     Li64    10.0   .     S
V63     Li65    10.0   .     S
Li64     Li65    10.0   .     S
Li64     He68    10.0   .     S
S66     H4    10.0   1_554     S
S66     S69    10.0   .     S
S66     He67    10.0   .     S
He67     He68    10.0   .     S
He67     Li72    10.0   .     S
He68     S69    10.0   .     S
S69     H14    10.0   1_554     S
V70     Li72    10.0   .     S
V70     Li71    10.0   .     S
Li71     Li72    10.0   .     S
