data_fga
_audit_creation_date              2020-02-04
_audit_creation_method            'Pymatgen'
_symmetry_space_group_name_H-M    'P1'
_symmetry_Int_Tables_number       1
loop_
_symmetry_equiv_pos_as_xyz
  x,y,z
_cell_length_a                    16.308
_cell_length_b                    55.1904
_cell_length_c                    27.9111
_cell_angle_alpha                 90.0
_cell_angle_beta                 90.0
_cell_angle_gamma                 90.0
loop_
_atom_site_label
_atom_site_type_symbol
_atom_site_fract_x
_atom_site_fract_y
_atom_site_fract_z
V1     V     0.2582   0.7719   0.3963
V2     V     0.2582   0.7281   0.1037
Er3     Er     0.7566   0.8185   0.2069
Er4     Er     0.7566   0.6815   0.2931
Ti5     Ti     0.2566   0.9093   0.1033
Ti6     Ti     0.7566   0.9093   0.8967
Ti7     Ti     0.2566   0.5907   0.3967
Ti8     Ti     0.7566   0.5907   0.6033
V9     V     0.7582   0.7719   0.6037
V10     V     0.7582   0.7281   0.8963
Er11     Er     0.2566   0.6815   0.7069
Er12     Er     0.2566   0.8185   0.7931
Ti13     Ti     0.2434   0.4093   0.3967
Ti14     Ti     0.7434   0.4093   0.6033
V15     V     0.2418   0.2719   0.1037
V16     V     0.2418   0.2281   0.3963
Er17     Er     0.7434   0.3185   0.2931
Er18     Er     0.7434   0.1815   0.2069
Ti19     Ti     0.7434   0.0907   0.8967
Ti20     Ti     0.2434   0.0907   0.1033
V21     V     0.7418   0.2719   0.8963
V22     V     0.7418   0.2281   0.6037
Er23     Er     0.2434   0.3185   0.7069
Er24     Er     0.2434   0.1815   0.7931
loop_
_geom_bond_atom_site_label_1
_geom_bond_atom_site_label_2
_geom_bond_distance
_geom_bond_site_symmetry_2
_ccdc_geom_bond_type
V1     Er3    10.032   .     S
V1     V9    10.0   .     S
V1     V9    10.0   1_455     S
V1     Er11    10.004   .     S
V1     Ti7    10.002   .     S
V1     Er4    10.006   1_455     S
V1     Er4    9.965   .     S
V2     Er4    10.032   .     S
V2     V10    10.0   1_554     S
V2     V10    10.0   1_454     S
V2     Er12    10.004   1_554     S
V2     Ti5    10.002   .     S
V2     Er3    10.006   1_455     S
V2     Er3    9.965   .     S
Er3     V10    10.004   1_554     S
Er3     Ti5    9.998   .     S
Er3     Ti6    10.002   1_554     S
Er3     Ti5    9.997   1_655     S
Er3     V2    10.006   1_655     S
Er4     V9    10.004   .     S
Er4     Ti7    9.998   .     S
Er4     Ti8    10.002   .     S
Er4     Ti7    9.997   1_655     S
Er4     V1    10.006   1_655     S
Ti5     Ti20    10.015   1_565     S
Ti5     Er3    9.997   1_455     S
Ti5     Ti6    9.986   1_454     S
Ti5     Ti6    9.986   1_554     S
Ti5     Er12    10.002   1_554     S
Ti6     Ti19    10.015   1_565     S
Ti6     Er3    10.002   1_556     S
Ti6     Ti5    9.986   1_656     S
Ti6     Ti5    9.986   1_556     S
Ti6     V10    10.002   .     S
Ti6     Er12    9.998   1_655     S
Ti6     Er12    9.997   .     S
Ti7     Ti13    10.015   .     S
Ti7     Er4    9.997   1_455     S
Ti7     Ti8    9.986   .     S
Ti7     Ti8    9.986   1_455     S
Ti7     Er11    10.002   .     S
Ti8     Ti14    10.015   .     S
Ti8     Ti7    9.986   1_655     S
Ti8     V9    10.002   .     S
Ti8     Er11    9.998   1_655     S
Ti8     Er11    9.997   .     S
V9     Er12    10.032   1_655     S
V9     V1    10.0   1_655     S
V9     Er11    10.006   .     S
V9     Er11    9.965   1_655     S
V10     Er11    10.032   1_655     S
V10     V2    10.0   1_556     S
V10     Er3    10.004   1_556     S
V10     V2    10.0   1_656     S
V10     Er12    10.006   .     S
V10     Er12    9.965   1_655     S
Er11     V10    10.032   1_455     S
Er11     Ti8    9.998   1_455     S
Er11     V9    9.965   1_455     S
Er12     V9    10.032   1_455     S
Er12     V2    10.004   1_556     S
Er12     Ti6    9.998   1_455     S
Er12     Ti5    10.002   1_556     S
Er12     V10    9.965   1_455     S
Ti13     Ti14    9.986   .     S
Ti13     Ti14    9.986   1_455     S
Ti13     V16    10.002   .     S
Ti13     Er17    9.998   1_455     S
Ti13     Er17    9.997   .     S
Ti13     Er23    10.002   .     S
Ti14     Ti13    9.986   1_655     S
Ti14     Er17    10.002   .     S
Ti14     V22    10.002   .     S
Ti14     Er23    9.998   .     S
Ti14     Er23    9.997   1_655     S
V15     Er17    10.032   1_455     S
V15     V21    10.0   1_554     S
V15     Er24    10.004   1_554     S
V15     V21    10.0   1_454     S
V15     Ti20    10.002   .     S
V15     Er18    10.006   .     S
V15     Er18    9.965   1_455     S
V16     Er18    10.032   1_455     S
V16     V22    10.0   .     S
V16     Er23    10.004   .     S
V16     V22    10.0   1_455     S
V16     Er17    10.006   .     S
V16     Er17    9.965   1_455     S
Er17     V15    10.032   1_655     S
Er17     V22    10.004   .     S
Er17     Ti13    9.998   1_655     S
Er17     V16    9.965   1_655     S
Er18     V16    10.032   1_655     S
Er18     V21    10.004   1_554     S
Er18     Ti20    9.998   1_655     S
Er18     Ti19    10.002   1_554     S
Er18     Ti20    9.997   .     S
Er18     V15    9.965   1_655     S
Ti19     Ti6    10.015   1_545     S
Ti19     Er18    10.002   1_556     S
Ti19     Ti20    9.986   1_656     S
Ti19     Ti20    9.986   1_556     S
Ti19     V21    10.002   .     S
Ti19     Er24    9.998   .     S
Ti19     Er24    9.997   1_655     S
Ti20     Ti5    10.015   1_545     S
Ti20     Er18    9.998   1_455     S
Ti20     Ti19    9.986   1_454     S
Ti20     Ti19    9.986   1_554     S
Ti20     Er24    10.002   1_554     S
V21     Er23    10.032   .     S
V21     V15    10.0   1_556     S
V21     V15    10.0   1_656     S
V21     Er18    10.004   1_556     S
V21     Er24    10.006   1_655     S
V21     Er24    9.965   .     S
V22     Er24    10.032   .     S
V22     V16    10.0   1_655     S
V22     Er23    10.006   1_655     S
V22     Er23    9.965   .     S
Er23     Ti14    9.997   1_455     S
Er23     V22    10.006   1_455     S
Er24     V15    10.004   1_556     S
Er24     Ti20    10.002   1_556     S
Er24     Ti19    9.997   1_455     S
Er24     V21    10.006   1_455     S
