data_fjha
_audit_creation_date              2020-02-04
_audit_creation_method            'Pymatgen'
_symmetry_space_group_name_H-M    'P1'
_symmetry_Int_Tables_number       1
loop_
_symmetry_equiv_pos_as_xyz
  x,y,z
_cell_length_a                    91.2143
_cell_length_b                    91.2143
_cell_length_c                    64.8443
_cell_angle_alpha                 90.0
_cell_angle_beta                 90.0
_cell_angle_gamma                 90.0
loop_
_atom_site_label
_atom_site_type_symbol
_atom_site_fract_x
_atom_site_fract_y
_atom_site_fract_z
V1     V     0.3128   0.5   0.25
V2     V     0.5   0.6872   0.25
V3     V     0.6872   0.5   0.25
V4     V     0.5   0.3128   0.25
Ti5     Ti     0.5   0.4225   0.25
Ti6     Ti     0.4225   0.5   0.25
Ti7     Ti     0.5775   0.5   0.25
Ti8     Ti     0.5   0.5775   0.25
V9     V     0.6872   0.5   0.75
V10     V     0.5   0.3128   0.75
V11     V     0.3128   0.5   0.75
V12     V     0.5   0.6872   0.75
Ti13     Ti     0.5   0.5775   0.75
Ti14     Ti     0.5775   0.5   0.75
Ti15     Ti     0.4225   0.5   0.75
Ti16     Ti     0.5   0.4225   0.75
Er17     Er     0.9683   0.7179   0.8129
Er18     Er     0.0317   0.7179   0.6871
Er19     Er     0.9683   0.2821   0.6871
Er20     Er     0.0317   0.2821   0.8129
Er21     Er     0.7821   0.4683   0.6871
Er22     Er     0.7821   0.5317   0.8129
Er23     Er     0.2179   0.5317   0.6871
Er24     Er     0.2179   0.4683   0.8129
Er25     Er     0.9683   0.7179   0.1871
Er26     Er     0.0317   0.7179   0.3129
Ce27     Ce     0.1635   0.414   0.0771
Ce28     Ce     0.086   0.3365   0.0771
Ce29     Ce     0.1635   0.414   0.9229
Ce30     Ce     0.086   0.3365   0.9229
Er31     Er     0.2179   0.4683   0.1871
Er32     Er     0.2179   0.5317   0.3129
Ce33     Ce     0.1635   0.586   0.5771
Ce34     Ce     0.086   0.6635   0.5771
Ce35     Ce     0.1635   0.586   0.4229
Ce36     Ce     0.086   0.6635   0.4229
Er37     Er     0.0317   0.2821   0.1871
Er38     Er     0.9683   0.2821   0.3129
Ce39     Ce     0.8365   0.586   0.9229
Ce40     Ce     0.914   0.6635   0.9229
Ce41     Ce     0.8365   0.586   0.0771
Ce42     Ce     0.914   0.6635   0.0771
Er43     Er     0.7821   0.5317   0.1871
Er44     Er     0.7821   0.4683   0.3129
Ce45     Ce     0.8365   0.414   0.5771
Ce46     Ce     0.914   0.3365   0.5771
Ce47     Ce     0.8365   0.414   0.4229
Ce48     Ce     0.914   0.3365   0.4229
V49     V     0.0   0.1872   0.75
V50     V     0.1872   0.0   0.75
V51     V     0.8128   0.0   0.75
V52     V     0.0   0.8128   0.75
Ti53     Ti     0.9225   0.0   0.75
Ti54     Ti     0.0   0.9225   0.75
Ti55     Ti     0.0775   0.0   0.75
Ti56     Ti     0.0   0.0775   0.75
Er57     Er     0.7179   0.9683   0.6871
Er58     Er     0.7179   0.0317   0.8129
Er59     Er     0.2821   0.9683   0.8129
Er60     Er     0.2821   0.0317   0.6871
Er61     Er     0.7179   0.9683   0.3129
Er62     Er     0.7179   0.0317   0.1871
Er63     Er     0.5317   0.7821   0.6871
Er64     Er     0.4683   0.7821   0.8129
Ce65     Ce     0.414   0.8365   0.9229
Ce66     Ce     0.3365   0.914   0.9229
Ce67     Ce     0.414   0.8365   0.0771
Ce68     Ce     0.3365   0.914   0.0771
Er69     Er     0.4683   0.7821   0.1871
Er70     Er     0.5317   0.7821   0.3129
Ce71     Ce     0.586   0.8365   0.5771
Ce72     Ce     0.6635   0.914   0.5771
Ce73     Ce     0.586   0.8365   0.4229
Ce74     Ce     0.6635   0.914   0.4229
Er75     Er     0.4683   0.2179   0.6871
Er76     Er     0.5317   0.2179   0.8129
Ce77     Ce     0.586   0.1635   0.9229
Ce78     Ce     0.6635   0.086   0.9229
Ce79     Ce     0.586   0.1635   0.0771
Ce80     Ce     0.6635   0.086   0.0771
Er81     Er     0.2821   0.9683   0.1871
Er82     Er     0.2821   0.0317   0.3129
Er83     Er     0.5317   0.2179   0.1871
Er84     Er     0.4683   0.2179   0.3129
Ce85     Ce     0.414   0.1635   0.5771
Ce86     Ce     0.3365   0.086   0.5771
Ce87     Ce     0.414   0.1635   0.4229
Ce88     Ce     0.3365   0.086   0.4229
V89     V     0.1872   0.0   0.25
V90     V     0.0   0.1872   0.25
V91     V     0.0   0.8128   0.25
V92     V     0.8128   0.0   0.25
Ti93     Ti     0.0   0.9225   0.25
Ti94     Ti     0.9225   0.0   0.25
Ti95     Ti     0.0   0.0775   0.25
Ti96     Ti     0.0775   0.0   0.25
loop_
_geom_bond_atom_site_label_1
_geom_bond_atom_site_label_2
_geom_bond_distance
_geom_bond_site_symmetry_2
_ccdc_geom_bond_type
V1     Ti6    10.0   .     S
V1     Er32    10.0   .     S
V1     Er31    10.0   .     S
V2     Ti8    10.0   .     S
V2     Er70    10.0   .     S
V2     Er69    10.0   .     S
V3     Ti7    10.0   .     S
V3     Er44    10.0   .     S
V3     Er43    10.0   .     S
V4     Ti5    10.0   .     S
V4     Er84    10.0   .     S
V4     Er83    10.0   .     S
Ti5     Ti6    10.0   .     S
Ti5     Ti7    10.0   .     S
Ti6     Ti8    10.0   .     S
Ti7     Ti8    10.0   .     S
V9     Ti14    10.0   .     S
V9     Er21    10.0   .     S
V9     Er22    10.0   .     S
V10     Ti16    10.0   .     S
V10     Er75    10.0   .     S
V10     Er76    10.0   .     S
V11     Ti15    10.0   .     S
V11     Er23    10.0   .     S
V11     Er24    10.0   .     S
V12     Ti13    10.0   .     S
V12     Er63    10.0   .     S
V12     Er64    10.0   .     S
Ti13     Ti14    10.0   .     S
Ti13     Ti15    10.0   .     S
Ti14     Ti16    10.0   .     S
Ti15     Ti16    10.0   .     S
Er17     Er18    9.999   1_655     S
Er17     V52    10.0   1_655     S
Er17     Ce40    10.0   .     S
Er18     Er17    9.999   1_455     S
Er18     V52    10.0   .     S
Er18     Ce34    10.0   .     S
Er19     Er20    9.999   1_655     S
Er19     V49    10.0   1_655     S
Er19     Ce46    10.0   .     S
Er20     Er19    9.999   1_455     S
Er20     V49    10.0   .     S
Er20     Ce30    10.0   .     S
Er21     Er22    9.999   .     S
Er21     Ce45    10.0   .     S
Er22     Ce39    10.0   .     S
Er23     Er24    9.999   .     S
Er23     Ce33    10.0   .     S
Er24     Ce29    10.0   .     S
Er25     Er26    9.999   1_655     S
Er25     V91    10.0   1_655     S
Er25     Ce42    10.0   .     S
Er26     Er25    9.999   1_455     S
Er26     V91    10.0   .     S
Er26     Ce36    10.0   .     S
Ce27     Er31    10.0   .     S
Ce27     Ce28    10.0   .     S
Ce27     Ce29    10.0   1_554     S
Ce28     Er37    10.0   .     S
Ce28     Ce30    10.0   1_554     S
Ce29     Ce30    10.0   .     S
Ce29     Ce27    10.0   1_556     S
Ce30     Ce28    10.0   1_556     S
Er31     Er32    9.999   .     S
Er32     Ce35    10.0   .     S
Ce33     Ce34    10.0   .     S
Ce33     Ce35    10.0   .     S
Ce34     Ce36    10.0   .     S
Ce35     Ce36    10.0   .     S
Er37     Er38    9.999   1_455     S
Er37     V90    10.0   .     S
Er38     Er37    9.999   1_655     S
Er38     V90    10.0   1_655     S
Er38     Ce48    10.0   .     S
Ce39     Ce40    10.0   .     S
Ce39     Ce41    10.0   1_556     S
Ce40     Ce42    10.0   1_556     S
Ce41     Er43    10.0   .     S
Ce41     Ce42    10.0   .     S
Ce41     Ce39    10.0   1_554     S
Ce42     Ce40    10.0   1_554     S
Er43     Er44    9.999   .     S
Er44     Ce47    10.0   .     S
Ce45     Ce46    10.0   .     S
Ce45     Ce47    10.0   .     S
Ce46     Ce48    10.0   .     S
Ce47     Ce48    10.0   .     S
V49     Er19    10.0   1_455     S
V49     Ti56    10.0   .     S
V50     Ti55    10.0   .     S
V50     Er59    10.0   1_545     S
V50     Er60    10.0   .     S
V51     Ti53    10.0   .     S
V51     Er58    10.0   .     S
V51     Er57    10.0   1_545     S
V52     Er17    10.0   1_455     S
V52     Ti54    10.0   .     S
Ti53     Ti56    10.0   1_655     S
Ti53     Ti54    10.0   1_645     S
Ti54     Ti55    10.0   1_565     S
Ti54     Ti53    10.0   1_465     S
Ti55     Ti54    10.0   1_545     S
Ti55     Ti56    10.0   .     S
Ti56     Ti53    10.0   1_455     S
Er57     Er58    9.999   1_565     S
Er57     V51    10.0   1_565     S
Er57     Ce72    10.0   .     S
Er58     Er57    9.999   1_545     S
Er58     Ce78    10.0   .     S
Er59     Er60    9.999   1_565     S
Er59     V50    10.0   1_565     S
Er59     Ce66    10.0   .     S
Er60     Er59    9.999   1_545     S
Er60     Ce86    10.0   .     S
Er61     Er62    9.999   1_565     S
Er61     V92    10.0   1_565     S
Er61     Ce74    10.0   .     S
Er62     Er61    9.999   1_545     S
Er62     V92    10.0   .     S
Er62     Ce80    10.0   .     S
Er63     Er64    9.999   .     S
Er63     Ce71    10.0   .     S
Er64     Ce65    10.0   .     S
Ce65     Ce66    10.0   .     S
Ce65     Ce67    10.0   1_556     S
Ce66     Ce68    10.0   1_556     S
Ce67     Er69    10.0   .     S
Ce67     Ce68    10.0   .     S
Ce67     Ce65    10.0   1_554     S
Ce68     Er81    10.0   .     S
Ce68     Ce66    10.0   1_554     S
Er69     Er70    9.999   .     S
Er70     Ce73    10.0   .     S
Ce71     Ce72    10.0   .     S
Ce71     Ce73    10.0   .     S
Ce72     Ce74    10.0   .     S
Ce73     Ce74    10.0   .     S
Er75     Er76    9.999   .     S
Er75     Ce85    10.0   .     S
Er76     Ce77    10.0   .     S
Ce77     Ce78    10.0   .     S
Ce77     Ce79    10.0   1_556     S
Ce78     Ce80    10.0   1_556     S
Ce79     Er83    10.0   .     S
Ce79     Ce80    10.0   .     S
Ce79     Ce77    10.0   1_554     S
Ce80     Ce78    10.0   1_554     S
Er81     Er82    9.999   1_565     S
Er81     V89    10.0   1_565     S
Er82     Er81    9.999   1_545     S
Er82     V89    10.0   .     S
Er82     Ce88    10.0   .     S
Er83     Er84    9.999   .     S
Er84     Ce87    10.0   .     S
Ce85     Ce86    10.0   .     S
Ce85     Ce87    10.0   .     S
Ce86     Ce88    10.0   .     S
Ce87     Ce88    10.0   .     S
V89     Er81    10.0   1_545     S
V89     Ti96    10.0   .     S
V90     Er38    10.0   1_455     S
V90     Ti95    10.0   .     S
V91     Er25    10.0   1_455     S
V91     Ti93    10.0   .     S
V92     Er61    10.0   1_545     S
V92     Ti94    10.0   .     S
Ti93     Ti96    10.0   1_565     S
Ti93     Ti94    10.0   1_465     S
Ti94     Ti95    10.0   1_655     S
Ti94     Ti93    10.0   1_645     S
Ti95     Ti94    10.0   1_455     S
Ti95     Ti96    10.0   .     S
Ti96     Ti93    10.0   1_545     S
