data_flua
_audit_creation_date              2020-02-04
_audit_creation_method            'Pymatgen'
_symmetry_space_group_name_H-M    'P1'
_symmetry_Int_Tables_number       1
loop_
_symmetry_equiv_pos_as_xyz
  x,y,z
_cell_length_a                    57.2363
_cell_length_b                    57.2363
_cell_length_c                    57.2363
_cell_angle_alpha                 90.0
_cell_angle_beta                 90.0
_cell_angle_gamma                 90.0
loop_
_atom_site_label
_atom_site_type_symbol
_atom_site_fract_x
_atom_site_fract_y
_atom_site_fract_z
Er1     Er     0.3118   0.3118   0.3118
Er2     Er     0.3118   0.1882   0.1882
Er3     Er     0.1882   0.1882   0.3118
Er4     Er     0.1882   0.3118   0.1882
V5     V     0.4126   0.5874   0.5874
V6     V     0.4126   0.5874   0.4126
V7     V     0.4126   0.4126   0.4126
V8     V     0.4126   0.4126   0.5874
V9     V     0.5874   0.5874   0.5874
V10     V     0.5874   0.5874   0.4126
V11     V     0.5874   0.4126   0.4126
V12     V     0.5874   0.4126   0.5874
Er13     Er     0.1882   0.8118   0.3118
Er14     Er     0.3118   0.8118   0.1882
Er15     Er     0.3118   0.6882   0.3118
Er16     Er     0.1882   0.6882   0.1882
V17     V     0.0874   0.4126   0.0874
V18     V     0.9126   0.4126   0.0874
V19     V     0.9126   0.4126   0.9126
V20     V     0.0874   0.4126   0.9126
V21     V     0.0874   0.5874   0.0874
V22     V     0.0874   0.5874   0.9126
V23     V     0.9126   0.5874   0.9126
V24     V     0.9126   0.5874   0.0874
Er25     Er     0.8118   0.1882   0.3118
Er26     Er     0.8118   0.3118   0.1882
Er27     Er     0.6882   0.3118   0.3118
Er28     Er     0.6882   0.1882   0.1882
Er29     Er     0.8118   0.8118   0.3118
Er30     Er     0.6882   0.6882   0.3118
Er31     Er     0.6882   0.8118   0.1882
Er32     Er     0.8118   0.6882   0.1882
V33     V     0.4126   0.9126   0.0874
V34     V     0.4126   0.0874   0.0874
V35     V     0.4126   0.9126   0.9126
V36     V     0.4126   0.0874   0.9126
V37     V     0.5874   0.0874   0.0874
V38     V     0.5874   0.9126   0.0874
V39     V     0.5874   0.9126   0.9126
V40     V     0.5874   0.0874   0.9126
Er41     Er     0.8118   0.8118   0.6882
Er42     Er     0.6882   0.8118   0.8118
Er43     Er     0.8118   0.6882   0.8118
Er44     Er     0.6882   0.6882   0.6882
Er45     Er     0.8118   0.3118   0.8118
Er46     Er     0.6882   0.3118   0.6882
Er47     Er     0.8118   0.1882   0.6882
Er48     Er     0.6882   0.1882   0.8118
Er49     Er     0.1882   0.3118   0.8118
Er50     Er     0.3118   0.1882   0.8118
Er51     Er     0.3118   0.3118   0.6882
Er52     Er     0.1882   0.1882   0.6882
Er53     Er     0.3118   0.8118   0.8118
Er54     Er     0.3118   0.6882   0.6882
Er55     Er     0.1882   0.8118   0.6882
Er56     Er     0.1882   0.6882   0.8118
V57     V     0.0874   0.9126   0.5874
V58     V     0.0874   0.0874   0.5874
V59     V     0.9126   0.0874   0.5874
V60     V     0.9126   0.9126   0.5874
V61     V     0.0874   0.9126   0.4126
V62     V     0.9126   0.9126   0.4126
V63     V     0.0874   0.0874   0.4126
V64     V     0.9126   0.0874   0.4126
loop_
_geom_bond_atom_site_label_1
_geom_bond_atom_site_label_2
_geom_bond_distance
_geom_bond_site_symmetry_2
_ccdc_geom_bond_type
Er1     Er4    10.0   .     S
Er1     Er3    10.0   .     S
Er1     Er2    10.0   .     S
Er1     V7    10.0   .     S
Er2     Er3    10.0   .     S
Er2     Er4    10.0   .     S
Er2     V34    10.0   .     S
Er3     Er4    10.0   .     S
Er3     V63    10.0   .     S
Er4     V17    10.0   .     S
V5     Er54    10.0   .     S
V5     V6    10.0   .     S
V5     V8    10.0   .     S
V5     V9    10.0   .     S
V6     Er15    10.0   .     S
V6     V7    10.0   .     S
V6     V10    10.0   .     S
V7     V8    10.0   .     S
V7     V11    10.0   .     S
V8     Er51    10.0   .     S
V8     V12    10.0   .     S
V9     Er44    10.0   .     S
V9     V10    10.0   .     S
V9     V12    10.0   .     S
V10     Er30    10.0   .     S
V10     V11    10.0   .     S
V11     Er27    10.0   .     S
V11     V12    10.0   .     S
V12     Er46    10.0   .     S
Er13     Er14    10.0   .     S
Er13     Er15    10.0   .     S
Er13     Er16    10.0   .     S
Er13     V61    10.0   .     S
Er14     Er15    10.0   .     S
Er14     Er16    10.0   .     S
Er14     V33    10.0   .     S
Er15     Er16    10.0   .     S
Er16     V21    10.0   .     S
V17     V20    10.0   1_554     S
V17     V18    10.0   1_455     S
V17     V21    10.0   .     S
V18     V17    10.0   1_655     S
V18     Er26    10.0   .     S
V18     V19    10.0   1_554     S
V18     V24    10.0   .     S
V19     V18    10.0   1_556     S
V19     Er45    10.0   .     S
V19     V20    10.0   1_655     S
V19     V23    10.0   .     S
V20     V17    10.0   1_556     S
V20     Er49    10.0   .     S
V20     V19    10.0   1_455     S
V20     V22    10.0   .     S
V21     V22    10.0   1_554     S
V21     V24    10.0   1_455     S
V22     V21    10.0   1_556     S
V22     Er56    10.0   .     S
V22     V23    10.0   1_455     S
V23     V22    10.0   1_655     S
V23     Er43    10.0   .     S
V23     V24    10.0   1_556     S
V24     V21    10.0   1_655     S
V24     Er32    10.0   .     S
V24     V23    10.0   1_554     S
Er25     Er26    10.0   .     S
Er25     Er27    10.0   .     S
Er25     Er28    10.0   .     S
Er25     V64    10.0   .     S
Er26     Er27    10.0   .     S
Er26     Er28    10.0   .     S
Er27     Er28    10.0   .     S
Er28     V37    10.0   .     S
Er29     Er31    10.0   .     S
Er29     Er32    10.0   .     S
Er29     Er30    10.0   .     S
Er29     V62    10.0   .     S
Er30     Er32    10.0   .     S
Er30     Er31    10.0   .     S
Er31     Er32    10.0   .     S
Er31     V38    10.0   .     S
V33     V35    10.0   1_554     S
V33     V34    10.0   1_565     S
V33     V38    10.0   .     S
V34     V36    10.0   1_554     S
V34     V33    10.0   1_545     S
V34     V37    10.0   .     S
V35     V33    10.0   1_556     S
V35     Er53    10.0   .     S
V35     V36    10.0   1_565     S
V35     V39    10.0   .     S
V36     V34    10.0   1_556     S
V36     Er50    10.0   .     S
V36     V35    10.0   1_545     S
V36     V40    10.0   .     S
V37     V40    10.0   1_554     S
V37     V38    10.0   1_545     S
V38     V37    10.0   1_565     S
V38     V39    10.0   1_554     S
V39     V38    10.0   1_556     S
V39     Er42    10.0   .     S
V39     V40    10.0   1_565     S
V40     V37    10.0   1_556     S
V40     Er48    10.0   .     S
V40     V39    10.0   1_545     S
Er41     Er42    10.0   .     S
Er41     Er43    10.0   .     S
Er41     Er44    10.0   .     S
Er41     V60    10.0   .     S
Er42     Er43    10.0   .     S
Er42     Er44    10.0   .     S
Er43     Er44    10.0   .     S
Er45     Er47    10.0   .     S
Er45     Er48    10.0   .     S
Er45     Er46    10.0   .     S
Er46     Er47    10.0   .     S
Er46     Er48    10.0   .     S
Er47     Er48    10.0   .     S
Er47     V59    10.0   .     S
Er49     Er50    10.0   .     S
Er49     Er51    10.0   .     S
Er49     Er52    10.0   .     S
Er50     Er51    10.0   .     S
Er50     Er52    10.0   .     S
Er51     Er52    10.0   .     S
Er52     V58    10.0   .     S
Er53     Er55    10.0   .     S
Er53     Er56    10.0   .     S
Er53     Er54    10.0   .     S
Er54     Er56    10.0   .     S
Er54     Er55    10.0   .     S
Er55     Er56    10.0   .     S
Er55     V57    10.0   .     S
V57     V60    10.0   1_455     S
V57     V58    10.0   1_565     S
V57     V61    10.0   .     S
V58     V59    10.0   1_455     S
V58     V57    10.0   1_545     S
V58     V63    10.0   .     S
V59     V58    10.0   1_655     S
V59     V60    10.0   1_545     S
V59     V64    10.0   .     S
V60     V57    10.0   1_655     S
V60     V59    10.0   1_565     S
V60     V62    10.0   .     S
V61     V62    10.0   1_455     S
V61     V63    10.0   1_565     S
V62     V61    10.0   1_655     S
V62     V64    10.0   1_565     S
V63     V61    10.0   1_545     S
V63     V64    10.0   1_455     S
V64     V63    10.0   1_655     S
V64     V62    10.0   1_545     S
