data_fmja
_audit_creation_date              2020-02-04
_audit_creation_method            'Pymatgen'
_symmetry_space_group_name_H-M    'P1'
_symmetry_Int_Tables_number       1
loop_
_symmetry_equiv_pos_as_xyz
  x,y,z
_cell_length_a                    80.2675
_cell_length_b                    79.2631
_cell_length_c                    109.2791
_cell_angle_alpha                 90.0
_cell_angle_beta                 90.0
_cell_angle_gamma                 90.0
loop_
_atom_site_label
_atom_site_type_symbol
_atom_site_fract_x
_atom_site_fract_y
_atom_site_fract_z
Ce1     Ce     0.0   0.0631   0.9542
Ce2     Ce     0.0   0.0631   0.0458
Ce3     Ce     0.0   0.9369   0.9542
Ce4     Ce     0.0   0.9369   0.0458
Ti5     Ti     0.0   0.1331   0.8781
Ti6     Ti     0.0   0.8669   0.8781
Ti7     Ti     0.0   0.1331   0.1219
Ti8     Ti     0.0   0.8669   0.1219
Li9     Li     0.281   0.826   0.2265
Li10     Li     0.719   0.826   0.2265
Er11     Er     0.8302   0.769   0.2253
V12     V     0.0623   0.8059   0.1876
V13     V     0.9377   0.8059   0.1876
Er14     Er     0.1698   0.769   0.2253
He15     He     0.3137   0.9369   0.1902
He16     He     0.3137   0.0631   0.1902
S17     S     0.3704   0.0   0.1228
He18     He     0.6863   0.9369   0.1902
He19     He     0.6863   0.0631   0.1902
S20     S     0.6296   0.0   0.1228
Li21     Li     0.719   0.174   0.2265
Li22     Li     0.281   0.174   0.2265
Er23     Er     0.8302   0.231   0.2253
V24     V     0.9377   0.1941   0.1876
V25     V     0.0623   0.1941   0.1876
Er26     Er     0.1698   0.231   0.2253
H27     H     0.4377   0.0   0.9542
H28     H     0.4377   0.0   0.0458
H29     H     0.5623   0.0   0.9542
H30     H     0.5623   0.0   0.0458
Li31     Li     0.281   0.826   0.7735
Li32     Li     0.719   0.826   0.7735
Er33     Er     0.8302   0.769   0.7747
V34     V     0.0623   0.8059   0.8124
V35     V     0.9377   0.8059   0.8124
Er36     Er     0.1698   0.769   0.7747
He37     He     0.3137   0.0631   0.8098
He38     He     0.3137   0.9369   0.8098
S39     S     0.3704   0.0   0.8772
He40     He     0.6863   0.9369   0.8098
He41     He     0.6863   0.0631   0.8098
S42     S     0.6296   0.0   0.8772
Li43     Li     0.719   0.174   0.7735
Li44     Li     0.281   0.174   0.7735
Er45     Er     0.8302   0.231   0.7747
V46     V     0.0623   0.1941   0.8124
V47     V     0.9377   0.1941   0.8124
Er48     Er     0.1698   0.231   0.7747
Ce49     Ce     0.5   0.5631   0.5458
Ce50     Ce     0.5   0.5631   0.4542
Ce51     Ce     0.5   0.4369   0.5458
Ce52     Ce     0.5   0.4369   0.4542
Ti53     Ti     0.5   0.3669   0.6219
Ti54     Ti     0.5   0.3669   0.3781
Ti55     Ti     0.5   0.6331   0.6219
Ti56     Ti     0.5   0.6331   0.3781
He57     He     0.8137   0.4369   0.6902
He58     He     0.8137   0.5631   0.6902
S59     S     0.8704   0.5   0.6228
Li60     Li     0.781   0.674   0.7265
Li61     Li     0.219   0.674   0.7265
Er62     Er     0.6698   0.731   0.7253
V63     V     0.5623   0.6941   0.6876
V64     V     0.4377   0.6941   0.6876
Er65     Er     0.3302   0.731   0.7253
He66     He     0.1863   0.5631   0.6902
He67     He     0.1863   0.4369   0.6902
S68     S     0.1296   0.5   0.6228
Li69     Li     0.219   0.326   0.7265
Li70     Li     0.781   0.326   0.7265
Er71     Er     0.6698   0.269   0.7253
V72     V     0.4377   0.3059   0.6876
V73     V     0.5623   0.3059   0.6876
Er74     Er     0.3302   0.269   0.7253
H75     H     0.0623   0.5   0.5458
H76     H     0.0623   0.5   0.4542
H77     H     0.9377   0.5   0.5458
H78     H     0.9377   0.5   0.4542
He79     He     0.8137   0.5631   0.3098
He80     He     0.8137   0.4369   0.3098
S81     S     0.8704   0.5   0.3772
Li82     Li     0.781   0.326   0.2735
Li83     Li     0.219   0.326   0.2735
Er84     Er     0.6698   0.269   0.2747
V85     V     0.5623   0.3059   0.3124
V86     V     0.4377   0.3059   0.3124
Er87     Er     0.3302   0.269   0.2747
He88     He     0.1863   0.4369   0.3098
He89     He     0.1863   0.5631   0.3098
S90     S     0.1296   0.5   0.3772
Li91     Li     0.781   0.674   0.2735
Li92     Li     0.219   0.674   0.2735
Er93     Er     0.6698   0.731   0.2747
V94     V     0.5623   0.6941   0.3124
V95     V     0.4377   0.6941   0.3124
Er96     Er     0.3302   0.731   0.2747
loop_
_geom_bond_atom_site_label_1
_geom_bond_atom_site_label_2
_geom_bond_distance
_geom_bond_site_symmetry_2
_ccdc_geom_bond_type
Ce1     Ce2    9.999   1_556     S
Ce1     Ce3    10.0   1_545     S
Ce1     Ti5    10.0   .     S
Ce2     Ce1    9.999   1_554     S
Ce2     Ce4    10.0   1_545     S
Ce2     Ti7    10.0   .     S
Ce3     Ce4    9.999   1_556     S
Ce3     Ce1    10.0   1_565     S
Ce3     Ti6    10.0   .     S
Ce4     Ce3    9.999   1_554     S
Ce4     Ce2    10.0   1_565     S
Ce4     Ti8    10.0   .     S
Ti5     V46    10.0   .     S
Ti5     V47    10.0   1_455     S
Ti6     V34    10.0   .     S
Ti6     V35    10.0   1_455     S
Ti7     V24    10.0   1_455     S
Ti7     V25    10.0   .     S
Ti8     V12    10.0   .     S
Ti8     V13    10.0   1_455     S
Li9     Er96    10.0   .     S
Li9     Er14    10.0   .     S
Li9     He15    10.0   .     S
Li10     Er93    10.0   .     S
Li10     Er11    10.0   .     S
Li10     He18    10.0   .     S
Er11     V13    10.0   .     S
Er11     Li91    10.0   .     S
V12     V13    10.0   1_455     S
V12     Er14    10.0   .     S
V13     Ti8    10.0   1_655     S
V13     V12    10.0   1_655     S
Er14     Li92    10.0   .     S
He15     He16    10.0   1_565     S
He15     S17    10.0   1_565     S
He16     Li22    10.0   .     S
He16     He15    10.0   1_545     S
He16     S17    10.0   .     S
S17     He15    10.0   1_545     S
S17     H28    10.001   .     S
He18     He19    10.0   1_565     S
He18     S20    10.0   1_565     S
He19     Li21    10.0   .     S
He19     He18    10.0   1_545     S
He19     S20    10.0   .     S
S20     He18    10.0   1_545     S
S20     H30    10.001   .     S
Li21     Er84    10.0   .     S
Li21     Er23    10.0   .     S
Li22     Er87    10.0   .     S
Li22     Er26    10.0   .     S
Er23     V24    10.0   .     S
Er23     Li82    10.0   .     S
V24     Ti7    10.0   1_655     S
V24     V25    10.0   1_655     S
V25     V24    10.0   1_455     S
V25     Er26    10.0   .     S
Er26     Li83    10.0   .     S
H27     H28    9.999   1_556     S
H27     H29    10.0   .     S
H27     S39    10.001   .     S
H28     H27    9.999   1_554     S
H28     H30    10.0   .     S
H29     H30    9.999   1_556     S
H29     S42    10.001   .     S
H30     H29    9.999   1_554     S
Li31     Er65    10.0   .     S
Li31     Er36    10.0   .     S
Li31     He38    10.0   .     S
Li32     Er62    10.0   .     S
Li32     Er33    10.0   .     S
Li32     He40    10.0   .     S
Er33     V35    10.0   .     S
Er33     Li60    10.0   .     S
V34     V35    10.0   1_455     S
V34     Er36    10.0   .     S
V35     Ti6    10.0   1_655     S
V35     V34    10.0   1_655     S
Er36     Li61    10.0   .     S
He37     Li44    10.0   .     S
He37     He38    10.0   1_545     S
He37     S39    10.0   .     S
He38     He37    10.0   1_565     S
He38     S39    10.0   1_565     S
S39     He38    10.0   1_545     S
He40     He41    10.0   1_565     S
He40     S42    10.0   1_565     S
He41     Li43    10.0   .     S
He41     He40    10.0   1_545     S
He41     S42    10.0   .     S
S42     He40    10.0   1_545     S
Li43     Er71    10.0   .     S
Li43     Er45    10.0   .     S
Li44     Er74    10.0   .     S
Li44     Er48    10.0   .     S
Er45     V47    10.0   .     S
Er45     Li70    10.0   .     S
V46     V47    10.0   1_455     S
V46     Er48    10.0   .     S
V47     Ti5    10.0   1_655     S
V47     V46    10.0   1_655     S
Er48     Li69    10.0   .     S
Ce49     Ce50    9.999   .     S
Ce49     Ce51    10.0   .     S
Ce49     Ti55    10.0   .     S
Ce50     Ce52    10.0   .     S
Ce50     Ti56    10.0   .     S
Ce51     Ce52    9.999   .     S
Ce51     Ti53    10.0   .     S
Ce52     Ti54    10.0   .     S
Ti53     V72    10.0   .     S
Ti53     V73    10.0   .     S
Ti54     V85    10.0   .     S
Ti54     V86    10.0   .     S
Ti55     V63    10.0   .     S
Ti55     V64    10.0   .     S
Ti56     V94    10.0   .     S
Ti56     V95    10.0   .     S
He57     Li70    10.0   .     S
He57     He58    10.0   .     S
He57     S59    10.0   .     S
He58     Li60    10.0   .     S
He58     S59    10.0   .     S
S59     H77    10.001   .     S
Li60     Er62    10.0   .     S
Li61     Er65    10.0   .     S
Li61     He66    10.0   .     S
Er62     V63    10.0   .     S
V63     V64    10.0   .     S
V64     Er65    10.0   .     S
He66     He67    10.0   .     S
He66     S68    10.0   .     S
He67     Li69    10.0   .     S
He67     S68    10.0   .     S
S68     H75    10.001   .     S
Li69     Er74    10.0   .     S
Li70     Er71    10.0   .     S
Er71     V73    10.0   .     S
V72     V73    10.0   .     S
V72     Er74    10.0   .     S
H75     H76    9.999   .     S
H75     H77    10.0   1_455     S
H76     H78    10.0   1_455     S
H76     S90    10.001   .     S
H77     H78    9.999   .     S
H77     H75    10.0   1_655     S
H78     H76    10.0   1_655     S
H78     S81    10.001   .     S
He79     Li91    10.0   .     S
He79     He80    10.0   .     S
He79     S81    10.0   .     S
He80     Li82    10.0   .     S
He80     S81    10.0   .     S
Li82     Er84    10.0   .     S
Li83     Er87    10.0   .     S
Li83     He88    10.0   .     S
Er84     V85    10.0   .     S
V85     V86    10.0   .     S
V86     Er87    10.0   .     S
He88     He89    10.0   .     S
He88     S90    10.0   .     S
He89     Li92    10.0   .     S
He89     S90    10.0   .     S
Li91     Er93    10.0   .     S
Li92     Er96    10.0   .     S
Er93     V94    10.0   .     S
V94     V95    10.0   .     S
V95     Er96    10.0   .     S
