data_fmza
_audit_creation_date              2020-02-04
_audit_creation_method            'Pymatgen'
_symmetry_space_group_name_H-M    'P1'
_symmetry_Int_Tables_number       1
loop_
_symmetry_equiv_pos_as_xyz
  x,y,z
_cell_length_a                    77.3075
_cell_length_b                    77.3075
_cell_length_c                    167.8706
_cell_angle_alpha                 90.0
_cell_angle_beta                 90.0
_cell_angle_gamma                 120.0
loop_
_atom_site_label
_atom_site_type_symbol
_atom_site_fract_x
_atom_site_fract_y
_atom_site_fract_z
Ti1     Ti     0.1542   0.4247   0.0433
Er2     Er     0.0643   0.4115   0.998
V3     V     0.0835   0.5033   0.0434
S4     S     0.3504   0.3528   0.1146
Ce5     Ce     0.2753   0.2116   0.0954
S6     S     0.3309   0.3139   0.0521
Ce7     Ce     0.397   0.4551   0.0712
H8     H     0.2502   0.3808   0.0604
H9     H     0.2027   0.2858   0.1063
Ti10     Ti     0.0628   0.242   0.1234
Er11     Er     0.9862   0.2552   0.1686
V12     V     0.9136   0.1634   0.1233
Ti13     Ti     0.8208   0.0628   0.8766
Er14     Er     0.731   0.9862   0.8314
V15     V     0.7502   0.9136   0.8767
S16     S     0.9976   0.3504   0.8854
Ce17     Ce     0.0637   0.2753   0.9046
H18     H     0.8694   0.2502   0.9396
H19     H     0.9169   0.2027   0.8937
S20     S     0.017   0.3309   0.9479
Ce21     Ce     0.9419   0.397   0.9288
Ti22     Ti     0.7295   0.1542   0.9567
Er23     Er     0.6528   0.0643   0.002
V24     V     0.5802   0.0835   0.9566
Ti25     Ti     0.4875   0.0913   0.7099
Er26     Er     0.3977   0.0782   0.6647
V27     V     0.4168   0.17   0.7101
S28     S     0.6837   0.0195   0.7813
Ce29     Ce     0.6086   0.8782   0.7621
H30     H     0.5836   0.0475   0.727
H31     H     0.5361   0.9525   0.773
S32     S     0.6642   0.9805   0.7187
Ce33     Ce     0.7304   0.1218   0.7379
Ti34     Ti     0.3962   0.9087   0.7901
Er35     Er     0.3195   0.9218   0.8353
V36     V     0.2469   0.83   0.7899
Ti37     Ti     0.4875   0.3962   0.2099
Er38     Er     0.3977   0.3195   0.1647
V39     V     0.4168   0.2469   0.2101
S40     S     0.6642   0.6837   0.2187
Ce41     Ce     0.7304   0.6086   0.2379
H42     H     0.5361   0.5836   0.273
H43     H     0.5836   0.5361   0.227
S44     S     0.6837   0.6642   0.2813
Ce45     Ce     0.6086   0.7304   0.2621
Ti46     Ti     0.3962   0.4875   0.2901
Er47     Er     0.3195   0.3977   0.3353
V48     V     0.2469   0.4168   0.2899
Ti49     Ti     0.5753   0.8458   0.5433
Er50     Er     0.5885   0.9357   0.498
V51     V     0.4967   0.9165   0.5434
S52     S     0.6861   0.6691   0.5521
Ce53     Ce     0.5449   0.603   0.5712
S54     S     0.6472   0.6496   0.6146
Ce55     Ce     0.7884   0.7247   0.5954
H56     H     0.7142   0.7973   0.6063
H57     H     0.6192   0.7498   0.5604
Ti58     Ti     0.758   0.9372   0.6234
Er59     Er     0.7448   0.0138   0.6686
V60     V     0.8366   0.0864   0.6233
Ti61     Ti     0.8208   0.758   0.3766
Er62     Er     0.731   0.7448   0.3314
V63     V     0.7502   0.8366   0.3767
S64     S     0.017   0.6861   0.4479
Ce65     Ce     0.9419   0.5449   0.4288
S66     S     0.9976   0.6472   0.3854
Ce67     Ce     0.0637   0.7884   0.4046
H68     H     0.9169   0.7142   0.3937
H69     H     0.8694   0.6192   0.4396
Ti70     Ti     0.7295   0.5753   0.4567
Er71     Er     0.6528   0.5885   0.502
V72     V     0.5802   0.4967   0.4566
Ti73     Ti     0.5753   0.7295   0.0433
Er74     Er     0.5885   0.6528   0.998
V75     V     0.4967   0.5802   0.0434
S76     S     0.6861   0.017   0.0521
Ce77     Ce     0.5449   0.9419   0.0712
S78     S     0.6472   0.9976   0.1146
Ce79     Ce     0.7884   0.0637   0.0954
H80     H     0.6192   0.8694   0.0604
H81     H     0.7142   0.9169   0.1063
Ti82     Ti     0.758   0.8208   0.1234
Er83     Er     0.7448   0.731   0.1686
V84     V     0.8366   0.7502   0.1233
Ti85     Ti     0.8458   0.5753   0.9567
Er86     Er     0.9357   0.5885   0.002
V87     V     0.9165   0.4967   0.9566
S88     S     0.6496   0.6472   0.8854
Ce89     Ce     0.7247   0.7884   0.9046
H90     H     0.7973   0.7142   0.8937
H91     H     0.7498   0.6192   0.9396
S92     S     0.6691   0.6861   0.9479
Ce93     Ce     0.603   0.5449   0.9288
Ti94     Ti     0.9372   0.758   0.8766
Er95     Er     0.0138   0.7448   0.8314
V96     V     0.0864   0.8366   0.8767
Ti97     Ti     0.6038   0.0913   0.2099
Er98     Er     0.6805   0.0782   0.1647
V99     V     0.7531   0.17   0.2101
S100     S     0.3163   0.9805   0.2187
Ce101     Ce     0.3914   0.1218   0.2379
S102     S     0.3358   0.0195   0.2813
Ce103     Ce     0.2696   0.8782   0.2621
H104     H     0.4164   0.9525   0.273
H105     H     0.4639   0.0475   0.227
Ti106     Ti     0.5125   0.9087   0.2901
Er107     Er     0.6023   0.9218   0.3353
V108     V     0.5832   0.83   0.2899
Ti109     Ti     0.0913   0.4875   0.7901
Er110     Er     0.0782   0.3977   0.8353
V111     V     0.17   0.4168   0.7899
S112     S     0.0195   0.6837   0.7187
Ce113     Ce     0.8782   0.6086   0.7379
S114     S     0.9805   0.6642   0.7813
Ce115     Ce     0.1218   0.7304   0.7621
H116     H     0.9525   0.5361   0.727
H117     H     0.0475   0.5836   0.773
Ti118     Ti     0.9087   0.3962   0.7099
Er119     Er     0.9218   0.3195   0.6647
V120     V     0.83   0.2469   0.7101
Ti121     Ti     0.1542   0.7295   0.5433
Er122     Er     0.0643   0.6528   0.498
V123     V     0.0835   0.5802   0.5434
S124     S     0.3309   0.017   0.5521
Ce125     Ce     0.397   0.9419   0.5712
S126     S     0.3504   0.9976   0.6146
Ce127     Ce     0.2753   0.0637   0.5954
H128     H     0.2027   0.9169   0.6063
H129     H     0.2502   0.8694   0.5604
Ti130     Ti     0.0628   0.8208   0.6234
Er131     Er     0.9862   0.731   0.6686
V132     V     0.9136   0.7502   0.6233
Ti133     Ti     0.242   0.0628   0.3766
Er134     Er     0.2552   0.9862   0.3314
V135     V     0.1634   0.9136   0.3767
S136     S     0.3139   0.3309   0.4479
Ce137     Ce     0.4551   0.397   0.4288
H138     H     0.2858   0.2027   0.3937
H139     H     0.3808   0.2502   0.4396
S140     S     0.3528   0.3504   0.3854
Ce141     Ce     0.2116   0.2753   0.4046
Ti142     Ti     0.4247   0.1542   0.4567
Er143     Er     0.4115   0.0643   0.502
V144     V     0.5033   0.0835   0.4566
Ti145     Ti     0.2705   0.8458   0.0433
Er146     Er     0.3472   0.9357   0.998
V147     V     0.4198   0.9165   0.0434
S148     S     0.983   0.6691   0.0521
Ce149     Ce     0.0581   0.603   0.0712
S150     S     0.0024   0.6496   0.1146
Ce151     Ce     0.9363   0.7247   0.0954
H152     H     0.1306   0.7498   0.0604
H153     H     0.0831   0.7973   0.1063
Ti154     Ti     0.1792   0.9372   0.1234
Er155     Er     0.269   0.0138   0.1686
V156     V     0.2498   0.0864   0.1233
Ti157     Ti     0.4247   0.2705   0.9567
Er158     Er     0.4115   0.3472   0.002
V159     V     0.5033   0.4198   0.9566
S160     S     0.3528   0.0024   0.8854
Ce161     Ce     0.2116   0.9363   0.9046
H162     H     0.3808   0.1306   0.9396
H163     H     0.2858   0.0831   0.8937
S164     S     0.3139   0.983   0.9479
Ce165     Ce     0.4551   0.0581   0.9288
Ti166     Ti     0.242   0.1792   0.8766
Er167     Er     0.2552   0.269   0.8314
V168     V     0.1634   0.2498   0.8767
Ti169     Ti     0.5125   0.6038   0.7901
Er170     Er     0.6023   0.6805   0.8353
V171     V     0.5832   0.7531   0.7899
S172     S     0.3163   0.3358   0.7187
Ce173     Ce     0.3914   0.2696   0.7379
S174     S     0.3358   0.3163   0.7813
Ce175     Ce     0.2696   0.3914   0.7621
H176     H     0.4164   0.4639   0.773
H177     H     0.4639   0.4164   0.727
Ti178     Ti     0.6038   0.5125   0.7099
Er179     Er     0.6805   0.6023   0.6647
V180     V     0.7531   0.5832   0.7101
Ti181     Ti     0.0913   0.6038   0.2901
Er182     Er     0.0782   0.6805   0.3353
V183     V     0.17   0.7531   0.2899
S184     S     0.9805   0.3163   0.2813
Ce185     Ce     0.1218   0.3914   0.2621
S186     S     0.0195   0.3358   0.2187
Ce187     Ce     0.8782   0.2696   0.2379
H188     H     0.0475   0.4639   0.273
H189     H     0.9525   0.4164   0.227
Ti190     Ti     0.9087   0.5125   0.2099
Er191     Er     0.9218   0.6023   0.1647
V192     V     0.83   0.5832   0.2101
Ti193     Ti     0.2705   0.4247   0.5433
Er194     Er     0.3472   0.4115   0.498
V195     V     0.4198   0.5033   0.5434
H196     H     0.1306   0.3808   0.5604
H197     H     0.0831   0.2858   0.6063
S198     S     0.0024   0.3528   0.6146
Ce199     Ce     0.9363   0.2116   0.5954
S200     S     0.983   0.3139   0.5521
Ce201     Ce     0.0581   0.4551   0.5712
Ti202     Ti     0.1792   0.242   0.6234
Er203     Er     0.269   0.2552   0.6686
V204     V     0.2498   0.1634   0.6233
Ti205     Ti     0.8458   0.2705   0.4567
Er206     Er     0.9357   0.3472   0.502
V207     V     0.9165   0.4198   0.4566
S208     S     0.6496   0.0024   0.3854
Ce209     Ce     0.7247   0.9363   0.4046
S210     S     0.6691   0.983   0.4479
Ce211     Ce     0.603   0.0581   0.4288
H212     H     0.7973   0.0831   0.3937
H213     H     0.7498   0.1306   0.4396
Ti214     Ti     0.9372   0.1792   0.3766
Er215     Er     0.0138   0.269   0.3314
V216     V     0.0864   0.2498   0.3767
loop_
_geom_bond_atom_site_label_1
_geom_bond_atom_site_label_2
_geom_bond_distance
_geom_bond_site_symmetry_2
_ccdc_geom_bond_type
Ti1     Er2    9.994   1_554     S
Ti1     V3    10.0   .     S
Ti1     H8    10.003   .     S
Er2     Ti1    9.994   1_556     S
Er2     V3    10.001   1_556     S
Er2     S20    10.005   .     S
V3     Er2    10.001   1_554     S
V3     Ce149    10.01   .     S
S4     Ce5    9.994   .     S
S4     H9    9.996   .     S
S4     Er38    10.005   .     S
S4     Ce7    10.005   .     S
Ce5     H9    9.996   .     S
Ce5     S6    10.005   .     S
Ce5     V156    10.01   .     S
S6     Ce7    9.994   .     S
S6     H8    9.996   .     S
S6     Er158    10.005   .     S
Ce7     H8    9.996   .     S
Ce7     V75    10.01   .     S
H8     H9    9.993   .     S
H9     Ti10    10.003   .     S
Ti10     Er11    9.994   1_455     S
Ti10     V12    10.0   1_455     S
Er11     Ti10    9.994   1_655     S
Er11     V12    10.001   .     S
Er11     S186    10.005   1_655     S
V12     Ti10    10.0   1_655     S
V12     Ce79    10.01   .     S
Ti13     Er14    9.994   1_545     S
Ti13     V15    10.0   1_545     S
Ti13     H19    10.003   .     S
Er14     Ti13    9.994   1_565     S
Er14     V15    10.001   .     S
Er14     S28    10.005   1_565     S
V15     Ti13    10.0   1_565     S
V15     Ce89    10.01   .     S
S16     Ce17    9.994   1_655     S
S16     H19    9.996   .     S
S16     Er110    10.005   1_655     S
S16     Ce21    10.005   .     S
Ce17     S16    9.994   1_455     S
Ce17     H19    9.996   1_455     S
Ce17     S20    10.005   .     S
Ce17     V168    10.01   .     S
H18     H19    9.993   .     S
H18     S20    9.996   1_655     S
H18     Ce21    9.996   .     S
H18     Ti22    10.003   .     S
H19     Ce17    9.996   1_655     S
S20     H18    9.996   1_455     S
S20     Ce21    9.994   1_455     S
Ce21     S20    9.994   1_655     S
Ce21     V87    10.01   .     S
Ti22     Er23    9.994   1_556     S
Ti22     V24    10.0   .     S
Er23     Ti22    9.994   1_554     S
Er23     V24    10.001   1_554     S
Er23     S76    10.005   .     S
V24     Er23    10.001   1_556     S
V24     Ce165    10.01   .     S
Ti25     Er26    9.994   .     S
Ti25     V27    10.0   .     S
Ti25     H30    10.003   .     S
Er26     V27    10.001   .     S
Er26     S126    10.005   1_545     S
V27     Ce173    10.01   .     S
S28     H31    9.996   1_545     S
S28     Ce29    9.994   1_545     S
S28     Er14    10.005   1_545     S
S28     Ce33    10.005   .     S
Ce29     H31    9.996   .     S
Ce29     S28    9.994   1_565     S
Ce29     S32    10.005   .     S
Ce29     V171    10.01   .     S
H30     H31    9.993   1_545     S
H30     S32    9.996   1_545     S
H30     Ce33    9.996   .     S
H31     S28    9.996   1_565     S
H31     H30    9.993   1_565     S
H31     Ti34    10.003   .     S
S32     Ce33    9.994   1_565     S
S32     H30    9.996   1_565     S
S32     Er59    10.005   1_565     S
Ce33     S32    9.994   1_545     S
Ce33     V120    10.01   .     S
Ti34     Er35    9.994   .     S
Ti34     V36    10.0   .     S
Er35     V36    10.001   .     S
Er35     S160    10.005   1_565     S
V36     Ce115    10.01   .     S
Ti37     Er38    9.994   .     S
Ti37     V39    10.0   .     S
Ti37     H43    10.003   .     S
Er38     V39    10.001   .     S
V39     Ce101    10.01   .     S
S40     H43    9.996   .     S
S40     Ce41    9.994   .     S
S40     Er83    10.005   .     S
S40     Ce45    10.005   .     S
Ce41     H43    9.996   .     S
Ce41     S44    10.005   .     S
Ce41     V192    10.01   .     S
H42     H43    9.993   .     S
H42     S44    9.996   .     S
H42     Ce45    9.996   .     S
H42     Ti46    10.003   .     S
S44     Ce45    9.994   .     S
S44     Er62    10.005   .     S
Ce45     V108    10.01   .     S
Ti46     Er47    9.994   .     S
Ti46     V48    10.0   .     S
Er47     V48    10.001   .     S
Er47     S140    10.005   .     S
V48     Ce185    10.01   .     S
Ti49     Er50    9.994   .     S
Ti49     V51    10.0   .     S
Ti49     H57    10.003   .     S
Er50     V51    10.001   .     S
Er50     S210    10.005   .     S
V51     Ce125    10.01   .     S
S52     Ce53    9.994   .     S
S52     H57    9.996   .     S
S52     Er71    10.005   .     S
S52     Ce55    10.005   .     S
Ce53     H57    9.996   .     S
Ce53     S54    10.005   .     S
Ce53     V195    10.01   .     S
S54     Ce55    9.994   .     S
S54     H56    9.996   .     S
S54     Er179    10.005   .     S
Ce55     H56    9.996   .     S
Ce55     V132    10.01   .     S
H56     H57    9.993   .     S
H56     Ti58    10.003   .     S
Ti58     Er59    9.994   1_565     S
Ti58     V60    10.0   1_565     S
Er59     S32    10.005   1_545     S
Er59     Ti58    9.994   1_545     S
Er59     V60    10.001   .     S
V60     Ti58    10.0   1_545     S
V60     Ce199    10.01   .     S
Ti61     Er62    9.994   .     S
Ti61     V63    10.0   .     S
Ti61     H68    10.003   .     S
Er62     V63    10.001   .     S
V63     Ce209    10.01   .     S
S64     Ce65    9.994   1_455     S
S64     H69    9.996   1_455     S
S64     Er122    10.005   .     S
S64     Ce67    10.005   .     S
Ce65     S64    9.994   1_655     S
Ce65     H69    9.996   .     S
Ce65     S66    10.005   .     S
Ce65     V207    10.01   .     S
S66     Ce67    9.994   1_655     S
S66     H68    9.996   .     S
S66     Er182    10.005   1_655     S
Ce67     S66    9.994   1_455     S
Ce67     H68    9.996   1_455     S
Ce67     V135    10.01   .     S
H68     Ce67    9.996   1_655     S
H68     H69    9.993   .     S
H69     S64    9.996   1_655     S
H69     Ti70    10.003   .     S
Ti70     Er71    9.994   .     S
Ti70     V72    10.0   .     S
Er71     V72    10.001   .     S
V72     Ce137    10.01   .     S
Ti73     Er74    9.994   1_554     S
Ti73     V75    10.0   .     S
Ti73     H80    10.003   .     S
Er74     Ti73    9.994   1_556     S
Er74     V75    10.001   1_556     S
Er74     S92    10.005   .     S
V75     Er74    10.001   1_554     S
S76     Ce77    9.994   1_545     S
S76     H80    9.996   1_545     S
S76     Ce79    10.005   .     S
Ce77     S76    9.994   1_565     S
Ce77     H80    9.996   .     S
Ce77     S78    10.005   .     S
Ce77     V147    10.01   .     S
S78     Ce79    9.994   1_565     S
S78     H81    9.996   .     S
S78     Er98    10.005   1_565     S
Ce79     S78    9.994   1_545     S
Ce79     H81    9.996   1_545     S
H80     S76    9.996   1_565     S
H80     H81    9.993   .     S
H81     Ce79    9.996   1_565     S
H81     Ti82    10.003   .     S
Ti82     Er83    9.994   .     S
Ti82     V84    10.0   .     S
Er83     V84    10.001   .     S
V84     Ce151    10.01   .     S
Ti85     Er86    9.994   1_556     S
Ti85     V87    10.0   .     S
Ti85     H91    10.003   .     S
Er86     Ti85    9.994   1_554     S
Er86     V87    10.001   1_554     S
Er86     S148    10.005   .     S
V87     Er86    10.001   1_556     S
S88     Ce89    9.994   .     S
S88     H90    9.996   .     S
S88     Er170    10.005   .     S
S88     Ce93    10.005   .     S
Ce89     H90    9.996   .     S
Ce89     S92    10.005   .     S
H90     H91    9.993   .     S
H90     Ti94    10.003   .     S
H91     S92    9.996   .     S
H91     Ce93    9.996   .     S
S92     Ce93    9.994   .     S
Ce93     V159    10.01   .     S
Ti94     Er95    9.994   1_655     S
Ti94     V96    10.0   1_655     S
Er95     Ti94    9.994   1_455     S
Er95     V96    10.001   .     S
Er95     S114    10.005   1_455     S
V96     Ti94    10.0   1_455     S
V96     Ce161    10.01   .     S
Ti97     Er98    9.994   .     S
Ti97     V99    10.0   .     S
Ti97     H105    10.003   .     S
Er98     S78    10.005   1_545     S
Er98     V99    10.001   .     S
V99     Ce187    10.01   .     S
S100     Ce101    9.994   1_565     S
S100     H105    9.996   1_565     S
S100     Er155    10.005   1_565     S
S100     Ce103    10.005   .     S
Ce101     S100    9.994   1_545     S
Ce101     H105    9.996   .     S
Ce101     S102    10.005   .     S
S102     Ce103    9.994   1_545     S
S102     H104    9.996   1_545     S
S102     Er134    10.005   1_545     S
Ce103     S102    9.994   1_565     S
Ce103     H104    9.996   .     S
Ce103     V183    10.01   .     S
H104     H105    9.993   1_565     S
H104     S102    9.996   1_565     S
H104     Ti106    10.003   .     S
H105     S100    9.996   1_545     S
H105     H104    9.993   1_545     S
Ti106     Er107    9.994   .     S
Ti106     V108    10.0   .     S
Er107     V108    10.001   .     S
Er107     S208    10.005   1_565     S
Ti109     Er110    9.994   .     S
Ti109     V111    10.0   .     S
Ti109     H117    10.003   .     S
Er110     S16    10.005   1_455     S
Er110     V111    10.001   .     S
V111     Ce175    10.01   .     S
S112     H116    9.996   1_455     S
S112     Ce113    9.994   1_455     S
S112     Er131    10.005   1_455     S
S112     Ce115    10.005   .     S
Ce113     H116    9.996   .     S
Ce113     S112    9.994   1_655     S
Ce113     S114    10.005   .     S
Ce113     V180    10.01   .     S
S114     Ce115    9.994   1_655     S
S114     H117    9.996   1_655     S
S114     Er95    10.005   1_655     S
Ce115     S114    9.994   1_455     S
Ce115     H117    9.996   .     S
H116     S112    9.996   1_655     S
H116     H117    9.993   1_655     S
H116     Ti118    10.003   .     S
H117     H116    9.993   1_455     S
H117     S114    9.996   1_455     S
Ti118     Er119    9.994   .     S
Ti118     V120    10.0   .     S
Er119     V120    10.001   .     S
Er119     S198    10.005   1_655     S
Ti121     Er122    9.994   .     S
Ti121     V123    10.0   .     S
Ti121     H129    10.003   .     S
Er122     V123    10.001   .     S
V123     Ce201    10.01   .     S
S124     Ce125    9.994   1_545     S
S124     H129    9.996   1_545     S
S124     Er143    10.005   .     S
S124     Ce127    10.005   .     S
Ce125     S124    9.994   1_565     S
Ce125     H129    9.996   .     S
Ce125     S126    10.005   .     S
S126     Ce127    9.994   1_565     S
S126     H128    9.996   .     S
S126     Er26    10.005   1_565     S
Ce127     S126    9.994   1_545     S
Ce127     H128    9.996   1_545     S
Ce127     V204    10.01   .     S
H128     H129    9.993   .     S
H128     Ce127    9.996   1_565     S
H128     Ti130    10.003   .     S
H129     S124    9.996   1_565     S
Ti130     Er131    9.994   1_455     S
Ti130     V132    10.0   1_455     S
Er131     S112    10.005   1_655     S
Er131     Ti130    9.994   1_655     S
Er131     V132    10.001   .     S
V132     Ti130    10.0   1_655     S
Ti133     Er134    9.994   1_545     S
Ti133     V135    10.0   1_545     S
Ti133     H138    10.003   .     S
Er134     S102    10.005   1_565     S
Er134     Ti133    9.994   1_565     S
Er134     V135    10.001   .     S
V135     Ti133    10.0   1_565     S
S136     H139    9.996   .     S
S136     Ce137    9.994   .     S
S136     Er194    10.005   .     S
S136     Ce141    10.005   .     S
Ce137     H139    9.996   .     S
Ce137     S140    10.005   .     S
H138     H139    9.993   .     S
H138     S140    9.996   .     S
H138     Ce141    9.996   .     S
H139     Ti142    10.003   .     S
S140     Ce141    9.994   .     S
Ce141     V216    10.01   .     S
Ti142     Er143    9.994   .     S
Ti142     V144    10.0   .     S
Er143     V144    10.001   .     S
V144     Ce211    10.01   .     S
Ti145     Er146    9.994   1_554     S
Ti145     V147    10.0   .     S
Ti145     H152    10.003   .     S
Er146     Ti145    9.994   1_556     S
Er146     V147    10.001   1_556     S
Er146     S164    10.005   .     S
V147     Er146    10.001   1_554     S
S148     H152    9.996   1_655     S
S148     Ce149    9.994   1_655     S
S148     Ce151    10.005   .     S
Ce149     H152    9.996   .     S
Ce149     S148    9.994   1_455     S
Ce149     S150    10.005   .     S
S150     Ce151    9.994   1_455     S
S150     H153    9.996   .     S
S150     Er191    10.005   1_455     S
Ce151     S150    9.994   1_655     S
Ce151     H153    9.996   1_655     S
H152     S148    9.996   1_455     S
H152     H153    9.993   .     S
H153     Ce151    9.996   1_455     S
H153     Ti154    10.003   .     S
Ti154     Er155    9.994   1_565     S
Ti154     V156    10.0   1_565     S
Er155     S100    10.005   1_545     S
Er155     Ti154    9.994   1_545     S
Er155     V156    10.001   .     S
V156     Ti154    10.0   1_545     S
Ti157     Er158    9.994   1_556     S
Ti157     V159    10.0   .     S
Ti157     H162    10.003   .     S
Er158     Ti157    9.994   1_554     S
Er158     V159    10.001   1_554     S
V159     Er158    10.001   1_556     S
S160     Ce161    9.994   1_545     S
S160     H163    9.996   .     S
S160     Er35    10.005   1_545     S
S160     Ce165    10.005   .     S
Ce161     S160    9.994   1_565     S
Ce161     H163    9.996   1_565     S
Ce161     S164    10.005   .     S
H162     H163    9.993   .     S
H162     S164    9.996   1_545     S
H162     Ce165    9.996   .     S
H163     Ce161    9.996   1_545     S
H163     Ti166    10.003   .     S
S164     Ce165    9.994   1_565     S
S164     H162    9.996   1_565     S
Ce165     S164    9.994   1_545     S
Ti166     Er167    9.994   .     S
Ti166     V168    10.0   .     S
Er167     V168    10.001   .     S
Er167     S174    10.005   .     S
Ti169     Er170    9.994   .     S
Ti169     V171    10.0   .     S
Ti169     H176    10.003   .     S
Er170     V171    10.001   .     S
S172     Ce173    9.994   .     S
S172     H177    9.996   .     S
S172     Er203    10.005   .     S
S172     Ce175    10.005   .     S
Ce173     H177    9.996   .     S
Ce173     S174    10.005   .     S
S174     Ce175    9.994   .     S
S174     H176    9.996   .     S
Ce175     H176    9.996   .     S
H176     H177    9.993   .     S
H177     Ti178    10.003   .     S
Ti178     Er179    9.994   .     S
Ti178     V180    10.0   .     S
Er179     V180    10.001   .     S
Ti181     Er182    9.994   .     S
Ti181     V183    10.0   .     S
Ti181     H188    10.003   .     S
Er182     S66    10.005   1_455     S
Er182     V183    10.001   .     S
S184     Ce185    9.994   1_655     S
S184     H188    9.996   1_655     S
S184     Er215    10.005   1_655     S
S184     Ce187    10.005   .     S
Ce185     S184    9.994   1_455     S
Ce185     H188    9.996   .     S
Ce185     S186    10.005   .     S
S186     Ce187    9.994   1_455     S
S186     H189    9.996   1_455     S
S186     Er11    10.005   1_455     S
Ce187     S186    9.994   1_655     S
Ce187     H189    9.996   .     S
H188     S184    9.996   1_455     S
H188     H189    9.993   1_455     S
H189     H188    9.993   1_655     S
H189     S186    9.996   1_655     S
H189     Ti190    10.003   .     S
Ti190     Er191    9.994   .     S
Ti190     V192    10.0   .     S
Er191     S150    10.005   1_655     S
Er191     V192    10.001   .     S
Ti193     Er194    9.994   .     S
Ti193     V195    10.0   .     S
Ti193     H196    10.003   .     S
Er194     V195    10.001   .     S
H196     H197    9.993   .     S
H196     S200    9.996   1_455     S
H196     Ce201    9.996   .     S
H197     S198    9.996   .     S
H197     Ce199    9.996   1_455     S
H197     Ti202    10.003   .     S
S198     Ce199    9.994   1_455     S
S198     Er119    10.005   1_455     S
S198     Ce201    10.005   .     S
Ce199     H197    9.996   1_655     S
Ce199     S198    9.994   1_655     S
Ce199     S200    10.005   .     S
S200     H196    9.996   1_655     S
S200     Ce201    9.994   1_655     S
S200     Er206    10.005   .     S
Ce201     S200    9.994   1_455     S
Ti202     Er203    9.994   .     S
Ti202     V204    10.0   .     S
Er203     V204    10.001   .     S
Ti205     Er206    9.994   .     S
Ti205     V207    10.0   .     S
Ti205     H213    10.003   .     S
Er206     V207    10.001   .     S
S208     Ce209    9.994   1_545     S
S208     H212    9.996   .     S
S208     Er107    10.005   1_545     S
S208     Ce211    10.005   .     S
Ce209     S208    9.994   1_565     S
Ce209     H212    9.996   1_565     S
Ce209     S210    10.005   .     S
S210     Ce211    9.994   1_565     S
S210     H213    9.996   1_565     S
Ce211     S210    9.994   1_545     S
Ce211     H213    9.996   .     S
H212     Ce209    9.996   1_545     S
H212     H213    9.993   .     S
H212     Ti214    10.003   .     S
H213     S210    9.996   1_545     S
Ti214     Er215    9.994   1_655     S
Ti214     V216    10.0   1_655     S
Er215     S184    10.005   1_455     S
Er215     Ti214    9.994   1_455     S
Er215     V216    10.001   .     S
V216     Ti214    10.0   1_455     S
