data_fnd
_audit_creation_date              2020-02-04
_audit_creation_method            'Pymatgen'
_symmetry_space_group_name_H-M    'P1'
_symmetry_Int_Tables_number       1
loop_
_symmetry_equiv_pos_as_xyz
  x,y,z
_cell_length_a                    51.3124
_cell_length_b                    51.3124
_cell_length_c                    20.0
_cell_angle_alpha                 90.0
_cell_angle_beta                 90.0
_cell_angle_gamma                 120.0
loop_
_atom_site_label
_atom_site_type_symbol
_atom_site_fract_x
_atom_site_fract_y
_atom_site_fract_z
V1     V     0.555   0.445   0.4467
V2     V     0.555   0.445   0.9467
V3     V     0.445   0.555   0.0533
V4     V     0.445   0.555   0.5533
V5     V     0.8901   0.445   0.4467
V6     V     0.8901   0.445   0.9467
V7     V     0.1099   0.555   0.0533
V8     V     0.1099   0.555   0.5533
V9     V     0.8883   0.7766   0.2801
V10     V     0.8883   0.7766   0.7801
V11     V     0.7784   0.5567   0.3866
V12     V     0.7784   0.5567   0.8866
V13     V     0.2216   0.7784   0.1134
V14     V     0.2216   0.7784   0.6134
V15     V     0.1117   0.8883   0.2199
V16     V     0.1117   0.8883   0.7199
V17     V     0.445   0.8901   0.0533
V18     V     0.445   0.8901   0.5533
V19     V     0.555   0.1099   0.4467
V20     V     0.555   0.1099   0.9467
V21     V     0.7766   0.8883   0.2199
V22     V     0.7766   0.8883   0.7199
V23     V     0.5567   0.7784   0.1134
V24     V     0.5567   0.7784   0.6134
V25     V     0.7784   0.2216   0.3866
V26     V     0.7784   0.2216   0.8866
V27     V     0.8883   0.1117   0.2801
V28     V     0.8883   0.1117   0.7801
V29     V     0.2216   0.4433   0.1134
V30     V     0.2216   0.4433   0.6134
V31     V     0.1117   0.2234   0.2199
V32     V     0.1117   0.2234   0.7199
V33     V     0.2234   0.1117   0.2801
V34     V     0.2234   0.1117   0.7801
V35     V     0.4433   0.2216   0.3866
V36     V     0.4433   0.2216   0.8866
loop_
_geom_bond_atom_site_label_1
_geom_bond_atom_site_label_2
_geom_bond_distance
_geom_bond_site_symmetry_2
_ccdc_geom_bond_type
V1     V4    10.0   .     S
V1     V2    10.0   1_554     S
V1     V2    10.0   .     S
V1     V11    10.0   .     S
V1     V35    10.0   .     S
V2     V3    10.0   1_556     S
V2     V1    10.0   1_556     S
V2     V12    10.0   .     S
V2     V36    10.0   .     S
V3     V2    10.0   1_554     S
V3     V4    10.0   .     S
V3     V4    10.0   1_554     S
V3     V23    10.0   .     S
V3     V29    10.0   .     S
V4     V3    10.0   1_556     S
V4     V24    10.0   .     S
V4     V30    10.0   .     S
V5     V8    10.0   1_655     S
V5     V6    10.0   1_554     S
V5     V6    10.0   .     S
V5     V11    10.0   .     S
V5     V25    10.0   .     S
V6     V7    10.0   1_656     S
V6     V5    10.0   1_556     S
V6     V12    10.0   .     S
V6     V26    10.0   .     S
V7     V6    10.0   1_454     S
V7     V8    10.0   .     S
V7     V8    10.0   1_554     S
V7     V13    10.0   .     S
V7     V29    10.0   .     S
V8     V5    10.0   1_455     S
V8     V7    10.0   1_556     S
V8     V14    10.0   .     S
V8     V30    10.0   .     S
V9     V11    10.0   .     S
V9     V10    10.0   1_554     S
V9     V10    10.0   .     S
V9     V15    10.0   1_655     S
V9     V21    10.0   .     S
V10     V12    10.0   .     S
V10     V9    10.0   1_556     S
V10     V16    10.0   1_655     S
V10     V22    10.0   .     S
V11     V12    10.0   1_554     S
V11     V12    10.0   .     S
V12     V11    10.0   1_556     S
V13     V15    10.0   .     S
V13     V14    10.0   .     S
V13     V14    10.0   1_554     S
V13     V17    10.0   .     S
V14     V16    10.0   .     S
V14     V13    10.0   1_556     S
V14     V18    10.0   .     S
V15     V9    10.0   1_455     S
V15     V16    10.0   .     S
V15     V16    10.0   1_554     S
V15     V33    10.0   1_565     S
V16     V10    10.0   1_455     S
V16     V15    10.0   1_556     S
V16     V34    10.0   1_565     S
V17     V20    10.0   1_564     S
V17     V18    10.0   .     S
V17     V18    10.0   1_554     S
V17     V23    10.0   .     S
V18     V19    10.0   1_565     S
V18     V17    10.0   1_556     S
V18     V24    10.0   .     S
V19     V18    10.0   1_545     S
V19     V20    10.0   1_554     S
V19     V20    10.0   .     S
V19     V25    10.0   .     S
V19     V35    10.0   .     S
V20     V17    10.0   1_546     S
V20     V19    10.0   1_556     S
V20     V26    10.0   .     S
V20     V36    10.0   .     S
V21     V23    10.0   .     S
V21     V22    10.0   .     S
V21     V22    10.0   1_554     S
V21     V27    10.0   1_565     S
V22     V24    10.0   .     S
V22     V21    10.0   1_556     S
V22     V28    10.0   1_565     S
V23     V24    10.0   .     S
V23     V24    10.0   1_554     S
V24     V23    10.0   1_556     S
V25     V27    10.0   .     S
V25     V26    10.0   1_554     S
V25     V26    10.0   .     S
V26     V28    10.0   .     S
V26     V25    10.0   1_556     S
V27     V28    10.0   1_554     S
V27     V28    10.0   .     S
V27     V31    10.0   1_655     S
V27     V21    10.0   1_545     S
V28     V27    10.0   1_556     S
V28     V32    10.0   1_655     S
V28     V22    10.0   1_545     S
V29     V31    10.0   .     S
V29     V30    10.0   .     S
V29     V30    10.0   1_554     S
V30     V32    10.0   .     S
V30     V29    10.0   1_556     S
V31     V27    10.0   1_455     S
V31     V32    10.0   .     S
V31     V32    10.0   1_554     S
V31     V33    10.0   .     S
V32     V28    10.0   1_455     S
V32     V31    10.0   1_556     S
V32     V34    10.0   .     S
V33     V35    10.0   .     S
V33     V34    10.0   1_554     S
V33     V34    10.0   .     S
V33     V15    10.0   1_545     S
V34     V36    10.0   .     S
V34     V33    10.0   1_556     S
V34     V16    10.0   1_545     S
V35     V36    10.0   1_554     S
V35     V36    10.0   .     S
V36     V35    10.0   1_556     S
