data_fnj
_audit_creation_date              2020-02-04
_audit_creation_method            'Pymatgen'
_symmetry_space_group_name_H-M    'P1'
_symmetry_Int_Tables_number       1
loop_
_symmetry_equiv_pos_as_xyz
  x,y,z
_cell_length_a                    47.386
_cell_length_b                    47.386
_cell_length_c                    20.0
_cell_angle_alpha                 90.0
_cell_angle_beta                 90.0
_cell_angle_gamma                 90.0
loop_
_atom_site_label
_atom_site_type_symbol
_atom_site_fract_x
_atom_site_fract_y
_atom_site_fract_z
V1     V     0.75   0.6445   0.375
V2     V     0.75   0.6445   0.875
V3     V     0.75   0.3555   0.125
V4     V     0.75   0.3555   0.625
V5     V     0.8945   0.5   0.25
V6     V     0.8945   0.5   0.75
V7     V     0.6055   0.5   0.0
V8     V     0.6055   0.5   0.5
V9     V     0.3945   0.5   0.0
V10     V     0.3945   0.5   0.5
V11     V     0.1055   0.5   0.25
V12     V     0.1055   0.5   0.75
V13     V     0.25   0.6445   0.375
V14     V     0.25   0.6445   0.875
V15     V     0.25   0.3555   0.125
V16     V     0.25   0.3555   0.625
V17     V     0.75   0.8555   0.375
V18     V     0.75   0.8555   0.875
V19     V     0.6055   0.0   0.0
V20     V     0.6055   0.0   0.5
V21     V     0.75   0.1445   0.125
V22     V     0.75   0.1445   0.625
V23     V     0.8945   0.0   0.25
V24     V     0.8945   0.0   0.75
V25     V     0.1055   0.0   0.25
V26     V     0.1055   0.0   0.75
V27     V     0.25   0.1445   0.125
V28     V     0.25   0.1445   0.625
V29     V     0.3945   0.0   0.0
V30     V     0.3945   0.0   0.5
V31     V     0.25   0.8555   0.375
V32     V     0.25   0.8555   0.875
loop_
_geom_bond_atom_site_label_1
_geom_bond_atom_site_label_2
_geom_bond_distance
_geom_bond_site_symmetry_2
_ccdc_geom_bond_type
V1     V8    10.0   .     S
V1     V5    10.0   .     S
V1     V2    10.0   1_554     S
V1     V2    10.0   .     S
V1     V17    10.0   .     S
V2     V7    10.0   1_556     S
V2     V6    10.0   .     S
V2     V1    10.0   1_556     S
V2     V18    10.0   .     S
V3     V7    10.0   .     S
V3     V5    10.0   .     S
V3     V4    10.0   .     S
V3     V4    10.0   1_554     S
V3     V21    10.0   .     S
V4     V8    10.0   .     S
V4     V6    10.0   .     S
V4     V3    10.0   1_556     S
V4     V22    10.0   .     S
V5     V6    10.0   1_554     S
V5     V6    10.0   .     S
V5     V11    10.0   1_655     S
V6     V5    10.0   1_556     S
V6     V12    10.0   1_655     S
V7     V2    10.0   1_554     S
V7     V8    10.0   .     S
V7     V8    10.0   1_554     S
V7     V9    10.0   .     S
V8     V7    10.0   1_556     S
V8     V10    10.0   .     S
V9     V15    10.0   .     S
V9     V14    10.0   1_554     S
V9     V10    10.0   .     S
V9     V10    10.0   1_554     S
V10     V16    10.0   .     S
V10     V13    10.0   .     S
V10     V9    10.0   1_556     S
V11     V13    10.0   .     S
V11     V15    10.0   .     S
V11     V12    10.0   1_554     S
V11     V12    10.0   .     S
V11     V5    10.0   1_455     S
V12     V14    10.0   .     S
V12     V16    10.0   .     S
V12     V11    10.0   1_556     S
V12     V6    10.0   1_455     S
V13     V14    10.0   1_554     S
V13     V14    10.0   .     S
V13     V31    10.0   .     S
V14     V9    10.0   1_556     S
V14     V13    10.0   1_556     S
V14     V32    10.0   .     S
V15     V16    10.0   .     S
V15     V16    10.0   1_554     S
V15     V27    10.0   .     S
V16     V15    10.0   1_556     S
V16     V28    10.0   .     S
V17     V23    10.0   1_565     S
V17     V20    10.0   1_565     S
V17     V18    10.0   1_554     S
V17     V18    10.0   .     S
V18     V24    10.0   1_565     S
V18     V19    10.0   1_566     S
V18     V17    10.0   1_556     S
V19     V18    10.0   1_544     S
V19     V21    10.0   .     S
V19     V20    10.0   .     S
V19     V20    10.0   1_554     S
V19     V29    10.0   .     S
V20     V17    10.0   1_545     S
V20     V22    10.0   .     S
V20     V19    10.0   1_556     S
V20     V30    10.0   .     S
V21     V23    10.0   .     S
V21     V22    10.0   .     S
V21     V22    10.0   1_554     S
V22     V24    10.0   .     S
V22     V21    10.0   1_556     S
V23     V17    10.0   1_545     S
V23     V24    10.0   1_554     S
V23     V24    10.0   .     S
V23     V25    10.0   1_655     S
V24     V18    10.0   1_545     S
V24     V23    10.0   1_556     S
V24     V26    10.0   1_655     S
V25     V31    10.0   1_545     S
V25     V27    10.0   .     S
V25     V26    10.0   1_554     S
V25     V26    10.0   .     S
V25     V23    10.0   1_455     S
V26     V32    10.0   1_545     S
V26     V28    10.0   .     S
V26     V25    10.0   1_556     S
V26     V24    10.0   1_455     S
V27     V29    10.0   .     S
V27     V28    10.0   .     S
V27     V28    10.0   1_554     S
V28     V30    10.0   .     S
V28     V27    10.0   1_556     S
V29     V32    10.0   1_544     S
V29     V30    10.0   .     S
V29     V30    10.0   1_554     S
V30     V31    10.0   1_545     S
V30     V29    10.0   1_556     S
V31     V25    10.0   1_565     S
V31     V30    10.0   1_565     S
V31     V32    10.0   1_554     S
V31     V32    10.0   .     S
V32     V26    10.0   1_565     S
V32     V29    10.0   1_566     S
V32     V31    10.0   1_556     S
