data_fno
_audit_creation_date              2020-02-04
_audit_creation_method            'Pymatgen'
_symmetry_space_group_name_H-M    'P1'
_symmetry_Int_Tables_number       1
loop_
_symmetry_equiv_pos_as_xyz
  x,y,z
_cell_length_a                    35.5405
_cell_length_b                    35.5405
_cell_length_c                    35.5405
_cell_angle_alpha                 90.0
_cell_angle_beta                 90.0
_cell_angle_gamma                 90.0
loop_
_atom_site_label
_atom_site_type_symbol
_atom_site_fract_x
_atom_site_fract_y
_atom_site_fract_z
V1     V     0.8495   0.375   0.9005
V2     V     0.375   0.9005   0.8495
V3     V     0.8495   0.625   0.5995
V4     V     0.9005   0.6505   0.875
V5     V     0.625   0.5995   0.8495
V6     V     0.6505   0.875   0.9005
V7     V     0.5995   0.8495   0.625
V8     V     0.875   0.9005   0.6505
V9     V     0.4005   0.6505   0.625
V10     V     0.0995   0.8495   0.875
V11     V     0.1505   0.875   0.5995
V12     V     0.125   0.5995   0.6505
V13     V     0.625   0.9005   0.3495
V14     V     0.125   0.9005   0.1505
V15     V     0.3495   0.875   0.4005
V16     V     0.375   0.5995   0.3495
V17     V     0.0995   0.6505   0.375
V18     V     0.4005   0.8495   0.125
V19     V     0.1505   0.375   0.4005
V20     V     0.125   0.0995   0.3495
V21     V     0.0995   0.1505   0.625
V22     V     0.9005   0.8495   0.375
V23     V     0.6505   0.625   0.4005
V24     V     0.5995   0.6505   0.125
V25     V     0.875   0.5995   0.1505
V26     V     0.8495   0.875   0.0995
V27     V     0.9005   0.3495   0.625
V28     V     0.9005   0.1505   0.125
V29     V     0.6505   0.375   0.0995
V30     V     0.875   0.4005   0.3495
V31     V     0.5995   0.3495   0.375
V32     V     0.8495   0.125   0.4005
V33     V     0.1505   0.625   0.0995
V34     V     0.4005   0.1505   0.375
V35     V     0.3495   0.125   0.0995
V36     V     0.0995   0.3495   0.125
V37     V     0.375   0.4005   0.1505
V38     V     0.625   0.0995   0.1505
V39     V     0.3495   0.625   0.9005
V40     V     0.1505   0.125   0.9005
V41     V     0.4005   0.3495   0.875
V42     V     0.3495   0.375   0.5995
V43     V     0.375   0.0995   0.6505
V44     V     0.125   0.4005   0.8495
V45     V     0.625   0.4005   0.6505
V46     V     0.875   0.0995   0.8495
V47     V     0.6505   0.125   0.5995
V48     V     0.5995   0.1505   0.875
loop_
_geom_bond_atom_site_label_1
_geom_bond_atom_site_label_2
_geom_bond_distance
_geom_bond_site_symmetry_2
_ccdc_geom_bond_type
V1     V4    10.0   .     S
V1     V44    10.0   1_655     S
V1     V27    10.0   .     S
V1     V46    10.0   .     S
V1     V29    10.0   1_556     S
V2     V6    10.0   .     S
V2     V18    10.0   1_556     S
V2     V10    10.0   .     S
V2     V39    10.0   .     S
V2     V43    10.0   1_565     S
V3     V27    10.0   .     S
V3     V8    10.0   .     S
V3     V4    10.0   .     S
V3     V12    10.0   1_655     S
V3     V23    10.0   .     S
V4     V5    10.0   .     S
V4     V25    10.0   1_556     S
V4     V10    10.0   1_655     S
V5     V39    10.0   .     S
V5     V24    10.0   1_556     S
V5     V6    10.0   .     S
V5     V45    10.0   .     S
V6     V7    10.0   .     S
V6     V48    10.0   1_565     S
V6     V26    10.0   1_556     S
V7     V13    10.0   .     S
V7     V47    10.0   1_565     S
V7     V8    10.0   .     S
V7     V9    10.0   .     S
V8     V11    10.0   1_655     S
V8     V22    10.0   .     S
V8     V46    10.0   1_565     S
V9     V16    10.0   .     S
V9     V12    10.0   .     S
V9     V39    10.0   .     S
V9     V42    10.0   .     S
V10     V11    10.0   .     S
V10     V40    10.0   1_565     S
V10     V14    10.0   1_556     S
V10     V4    10.0   1_455     S
V11     V12    10.0   .     S
V11     V8    10.0   1_455     S
V11     V21    10.0   1_565     S
V11     V15    10.0   .     S
V12     V3    10.0   1_455     S
V12     V17    10.0   .     S
V12     V44    10.0   .     S
V13     V15    10.0   .     S
V13     V22    10.0   .     S
V13     V23    10.0   .     S
V13     V38    10.0   1_565     S
V14     V10    10.0   1_554     S
V14     V18    10.0   .     S
V14     V26    10.0   1_455     S
V14     V33    10.0   .     S
V14     V20    10.0   1_565     S
V15     V18    10.0   .     S
V15     V16    10.0   .     S
V15     V34    10.0   1_565     S
V16     V23    10.0   .     S
V16     V17    10.0   .     S
V16     V37    10.0   .     S
V17     V19    10.0   .     S
V17     V33    10.0   .     S
V17     V22    10.0   1_455     S
V18     V2    10.0   1_554     S
V18     V35    10.0   1_565     S
V18     V24    10.0   .     S
V19     V36    10.0   .     S
V19     V30    10.0   1_455     S
V19     V20    10.0   .     S
V19     V42    10.0   .     S
V20     V21    10.0   .     S
V20     V32    10.0   1_455     S
V20     V34    10.0   .     S
V20     V14    10.0   1_545     S
V21     V43    10.0   .     S
V21     V11    10.0   1_545     S
V21     V40    10.0   .     S
V21     V27    10.0   1_455     S
V22     V32    10.0   1_565     S
V22     V26    10.0   .     S
V22     V17    10.0   1_655     S
V23     V31    10.0   .     S
V23     V24    10.0   .     S
V24     V5    10.0   1_554     S
V24     V25    10.0   .     S
V24     V29    10.0   .     S
V25     V4    10.0   1_554     S
V25     V26    10.0   .     S
V25     V33    10.0   1_655     S
V25     V30    10.0   .     S
V26     V14    10.0   1_655     S
V26     V28    10.0   1_565     S
V26     V6    10.0   1_554     S
V27     V30    10.0   .     S
V27     V45    10.0   .     S
V27     V21    10.0   1_655     S
V28     V26    10.0   1_545     S
V28     V32    10.0   .     S
V28     V38    10.0   .     S
V28     V46    10.0   1_554     S
V28     V36    10.0   1_655     S
V29     V31    10.0   .     S
V29     V37    10.0   .     S
V29     V38    10.0   .     S
V29     V1    10.0   1_554     S
V30     V19    10.0   1_655     S
V30     V32    10.0   .     S
V30     V31    10.0   .     S
V31     V45    10.0   .     S
V31     V34    10.0   .     S
V32     V22    10.0   1_545     S
V32     V20    10.0   1_655     S
V32     V47    10.0   .     S
V33     V25    10.0   1_455     S
V33     V36    10.0   .     S
V33     V39    10.0   1_554     S
V34     V15    10.0   1_545     S
V34     V35    10.0   .     S
V34     V43    10.0   .     S
V35     V18    10.0   1_545     S
V35     V37    10.0   .     S
V35     V38    10.0   .     S
V35     V40    10.0   1_554     S
V36     V37    10.0   .     S
V36     V44    10.0   1_554     S
V36     V28    10.0   1_455     S
V37     V41    10.0   1_554     S
V38     V48    10.0   1_554     S
V38     V13    10.0   1_545     S
V39     V41    10.0   .     S
V39     V33    10.0   1_556     S
V40     V10    10.0   1_545     S
V40     V46    10.0   1_455     S
V40     V44    10.0   .     S
V40     V35    10.0   1_556     S
V41     V37    10.0   1_556     S
V41     V44    10.0   .     S
V41     V42    10.0   .     S
V41     V48    10.0   .     S
V42     V43    10.0   .     S
V42     V45    10.0   .     S
V43     V47    10.0   .     S
V43     V2    10.0   1_545     S
V44     V1    10.0   1_455     S
V44     V36    10.0   1_556     S
V45     V47    10.0   .     S
V46     V40    10.0   1_655     S
V46     V48    10.0   .     S
V46     V28    10.0   1_556     S
V46     V8    10.0   1_545     S
V47     V7    10.0   1_545     S
V47     V48    10.0   .     S
V48     V38    10.0   1_556     S
V48     V6    10.0   1_545     S
