data_fof
_audit_creation_date              2020-02-04
_audit_creation_method            'Pymatgen'
_symmetry_space_group_name_H-M    'P1'
_symmetry_Int_Tables_number       1
loop_
_symmetry_equiv_pos_as_xyz
  x,y,z
_cell_length_a                    33.9449
_cell_length_b                    33.9449
_cell_length_c                    54.2921
_cell_angle_alpha                 90.0
_cell_angle_beta                 90.0
_cell_angle_gamma                 120.0
loop_
_atom_site_label
_atom_site_type_symbol
_atom_site_fract_x
_atom_site_fract_y
_atom_site_fract_z
V1     V     0.5405   0.4595   0.081
V2     V     0.4595   0.5405   0.919
Er3     Er     0.5   0.5   0.5
Er4     Er     0.1667   0.8333   0.8333
V5     V     0.5405   0.0809   0.081
V6     V     0.4595   0.9191   0.919
V7     V     0.9191   0.4595   0.081
V8     V     0.0809   0.5405   0.919
Er9     Er     0.8333   0.1667   0.1667
V10     V     0.2071   0.7929   0.4143
V11     V     0.1262   0.8738   0.2523
V12     V     0.2071   0.4142   0.4143
V13     V     0.1262   0.2524   0.2523
Er14     Er     0.3333   0.1667   0.1667
Er15     Er     0.0   0.5   0.5
V16     V     0.7929   0.5858   0.5857
V17     V     0.8738   0.7476   0.7477
Er18     Er     0.6667   0.8333   0.8333
V19     V     0.7929   0.2071   0.5857
V20     V     0.8738   0.1262   0.7477
Er21     Er     0.8333   0.6667   0.1667
V22     V     0.5858   0.7929   0.4143
V23     V     0.7476   0.8738   0.2523
Er24     Er     0.5   0.0   0.5
V25     V     0.4142   0.2071   0.5857
V26     V     0.2524   0.1262   0.7477
Er27     Er     0.1667   0.3333   0.8333
loop_
_geom_bond_atom_site_label_1
_geom_bond_atom_site_label_2
_geom_bond_distance
_geom_bond_site_symmetry_2
_ccdc_geom_bond_type
V1     V2    10.0   1_554     S
V1     Er14    10.0   .     S
V1     Er21    10.0   .     S
V2     V1    10.0   1_556     S
V2     Er18    10.0   .     S
V2     Er27    10.0   .     S
Er3     V22    10.0   .     S
Er3     V16    10.0   .     S
Er3     V25    10.0   .     S
Er3     V12    10.0   .     S
Er4     V6    10.0   .     S
Er4     V8    10.0   .     S
Er4     V26    10.0   1_565     S
Er4     V17    10.0   1_455     S
V5     V6    10.0   1_544     S
V5     Er9    10.0   .     S
V5     Er14    10.0   .     S
V6     V5    10.0   1_566     S
V6     Er18    10.0   .     S
V7     V8    10.0   1_654     S
V7     Er9    10.0   .     S
V7     Er21    10.0   .     S
V8     V7    10.0   1_456     S
V8     Er27    10.0   .     S
Er9     V23    10.0   1_545     S
Er9     V13    10.0   1_655     S
V10     V11    10.0   .     S
V10     Er15    10.0   .     S
V10     Er24    10.0   1_565     S
V11     Er14    10.0   1_565     S
V11     Er21    10.0   1_455     S
V12     V13    10.0   .     S
V12     Er15    10.0   .     S
V13     Er9    10.0   1_455     S
V13     Er14    10.0   .     S
Er14     V11    10.0   1_545     S
Er15     V19    10.0   1_455     S
Er15     V16    10.0   1_455     S
V16     Er15    10.0   1_655     S
V16     V17    10.0   .     S
V17     Er4    10.0   1_655     S
V17     Er18    10.0   .     S
Er18     V20    10.0   1_565     S
V19     Er15    10.0   1_655     S
V19     V20    10.0   .     S
V19     Er24    10.0   .     S
V20     Er18    10.0   1_545     S
V20     Er27    10.0   1_655     S
Er21     V11    10.0   1_655     S
Er21     V23    10.0   .     S
V22     V23    10.0   .     S
V22     Er24    10.0   1_565     S
V23     Er9    10.0   1_565     S
Er24     V25    10.0   .     S
Er24     V22    10.0   1_545     S
Er24     V10    10.0   1_545     S
V25     V26    10.0   .     S
V26     Er4    10.0   1_545     S
V26     Er27    10.0   .     S
Er27     V20    10.0   1_455     S
