data_fofa
_audit_creation_date              2020-02-04
_audit_creation_method            'Pymatgen'
_symmetry_space_group_name_H-M    'P1'
_symmetry_Int_Tables_number       1
loop_
_symmetry_equiv_pos_as_xyz
  x,y,z
_cell_length_a                    77.4276
_cell_length_b                    77.4276
_cell_length_c                    119.4685
_cell_angle_alpha                 90.0
_cell_angle_beta                 90.0
_cell_angle_gamma                 120.0
loop_
_atom_site_label
_atom_site_type_symbol
_atom_site_fract_x
_atom_site_fract_y
_atom_site_fract_z
Er1     Er     0.7388   0.6068   0.1417
Er2     Er     0.7987   0.7265   0.1916
Er3     Er     0.9278   0.7265   0.1916
Er4     Er     0.868   0.6068   0.1417
Ti5     Ti     0.0532   0.2356   0.233
Ti6     Ti     0.1824   0.2356   0.233
Ti7     Ti     0.2801   0.4311   0.4336
Ti8     Ti     0.151   0.4311   0.4336
V9     V     0.1479   0.2958   0.2972
V10     V     0.1854   0.3709   0.3695
Er11     Er     0.9402   0.5347   0.525
Er12     Er     0.9402   0.4055   0.525
Er13     Er     0.0598   0.5945   0.475
Er14     Er     0.0598   0.4653   0.475
Ti15     Ti     0.0532   0.8176   0.233
Ti16     Ti     0.1824   0.9468   0.233
Ti17     Ti     0.2801   0.849   0.4336
Ti18     Ti     0.151   0.7199   0.4336
V19     V     0.1479   0.8521   0.2972
V20     V     0.1854   0.8146   0.3695
Er21     Er     0.3932   0.2612   0.1417
Er22     Er     0.2735   0.2013   0.1916
Er23     Er     0.2735   0.0722   0.1916
Er24     Er     0.3932   0.132   0.1417
Ti25     Ti     0.849   0.2801   0.5664
Ti26     Ti     0.7199   0.151   0.5664
Ti27     Ti     0.8176   0.0532   0.767
Ti28     Ti     0.9468   0.1824   0.767
V29     V     0.8521   0.1479   0.7028
V30     V     0.8146   0.1854   0.6305
Ti31     Ti     0.8176   0.7644   0.767
Ti32     Ti     0.9468   0.7644   0.767
V33     V     0.8521   0.7042   0.7028
V34     V     0.8146   0.6291   0.6305
Ti35     Ti     0.7199   0.5689   0.5664
Ti36     Ti     0.849   0.5689   0.5664
Er37     Er     0.5347   0.5945   0.475
Er38     Er     0.4055   0.4653   0.475
Er39     Er     0.5945   0.5347   0.525
Er40     Er     0.4653   0.4055   0.525
Er41     Er     0.7388   0.132   0.1417
Er42     Er     0.868   0.2612   0.1417
Er43     Er     0.9278   0.2013   0.1916
Er44     Er     0.7987   0.0722   0.1916
Ti45     Ti     0.7644   0.9468   0.233
Ti46     Ti     0.7644   0.8176   0.233
Ti47     Ti     0.5689   0.849   0.4336
Ti48     Ti     0.5689   0.7199   0.4336
V49     V     0.7042   0.8521   0.2972
V50     V     0.6291   0.8146   0.3695
Er51     Er     0.4055   0.9402   0.475
Er52     Er     0.5347   0.9402   0.475
Er53     Er     0.5945   0.0598   0.525
Er54     Er     0.4653   0.0598   0.525
Ti55     Ti     0.4311   0.151   0.5664
Ti56     Ti     0.4311   0.2801   0.5664
Ti57     Ti     0.2356   0.1824   0.767
Ti58     Ti     0.2356   0.0532   0.767
V59     V     0.2958   0.1479   0.7028
V60     V     0.3709   0.1854   0.6305
Ti61     Ti     0.9023   0.5157   0.1003
Ti62     Ti     0.9023   0.3866   0.1003
V63     V     0.9625   0.4812   0.0362
V64     V     0.0375   0.5188   0.9638
Ti65     Ti     0.0977   0.4843   0.8997
Ti66     Ti     0.0977   0.6134   0.8997
Ti67     Ti     0.5157   0.6134   0.8997
Ti68     Ti     0.3866   0.4843   0.8997
Ti69     Ti     0.6134   0.5157   0.1003
Ti70     Ti     0.4843   0.3866   0.1003
V71     V     0.5188   0.4812   0.0362
V72     V     0.4812   0.5188   0.9638
Er73     Er     0.0722   0.2735   0.8084
Er74     Er     0.132   0.3932   0.8583
Er75     Er     0.2612   0.3932   0.8583
Er76     Er     0.2013   0.2735   0.8084
Er77     Er     0.0722   0.7987   0.8084
Er78     Er     0.2013   0.9278   0.8084
Er79     Er     0.2612   0.868   0.8583
Er80     Er     0.132   0.7388   0.8583
Ti81     Ti     0.5157   0.9023   0.8997
Ti82     Ti     0.3866   0.9023   0.8997
Ti83     Ti     0.4843   0.0977   0.1003
Ti84     Ti     0.6134   0.0977   0.1003
V85     V     0.4812   0.9625   0.9638
V86     V     0.5188   0.0375   0.0362
Er87     Er     0.7265   0.7987   0.8084
Er88     Er     0.6068   0.7388   0.8583
Er89     Er     0.6068   0.868   0.8583
Er90     Er     0.7265   0.9278   0.8084
loop_
_geom_bond_atom_site_label_1
_geom_bond_atom_site_label_2
_geom_bond_distance
_geom_bond_site_symmetry_2
_ccdc_geom_bond_type
Er1     Er4    10.0   .     S
Er1     Er2    10.0   .     S
Er1     Ti69    10.0   .     S
Er2     Er3    10.0   .     S
Er2     Ti46    10.0   .     S
Er3     Er4    10.0   .     S
Er3     Ti15    10.0   1_655     S
Er4     Ti61    10.0   .     S
Ti5     Ti6    9.999   .     S
Ti5     V9    10.0   .     S
Ti5     Er43    10.0   1_455     S
Ti6     V9    10.0   .     S
Ti6     Er22    10.0   .     S
Ti7     Ti8    9.999   .     S
Ti7     V10    10.0   .     S
Ti7     Er38    10.0   .     S
Ti8     V10    10.0   .     S
Ti8     Er14    10.0   .     S
V9     V10    10.001   .     S
Er11     Er12    10.0   .     S
Er11     Er13    10.0   1_655     S
Er11     Ti36    10.0   .     S
Er12     Er14    10.0   1_655     S
Er12     Ti25    10.0   .     S
Er13     Er11    10.0   1_455     S
Er13     Er14    10.0   .     S
Er13     Ti18    10.0   .     S
Er14     Er12    10.0   1_455     S
Ti15     Er3    10.0   1_455     S
Ti15     Ti16    9.999   .     S
Ti15     V19    10.0   .     S
Ti16     V19    10.0   .     S
Ti16     Er23    10.0   1_565     S
Ti17     Ti18    9.999   .     S
Ti17     V20    10.0   .     S
Ti17     Er51    10.0   .     S
Ti18     V20    10.0   .     S
V19     V20    10.001   .     S
Er21     Er22    10.0   .     S
Er21     Ti70    10.0   .     S
Er21     Er24    10.0   .     S
Er22     Er23    10.0   .     S
Er23     Er24    10.0   .     S
Er23     Ti16    10.0   1_545     S
Er24     Ti83    10.0   .     S
Ti25     Ti26    9.999   .     S
Ti25     V30    10.0   .     S
Ti26     V30    10.0   .     S
Ti26     Er53    10.0   .     S
Ti27     Ti28    9.999   .     S
Ti27     V29    10.0   .     S
Ti27     Er90    10.0   1_545     S
Ti28     V29    10.0   .     S
Ti28     Er73    10.0   1_655     S
V29     V30    10.001   .     S
Ti31     Ti32    9.999   .     S
Ti31     V33    10.0   .     S
Ti31     Er87    10.0   .     S
Ti32     V33    10.0   .     S
Ti32     Er77    10.0   1_655     S
V33     V34    10.001   .     S
V34     Ti36    10.0   .     S
V34     Ti35    10.0   .     S
Ti35     Ti36    9.999   .     S
Ti35     Er39    10.0   .     S
Er37     Er38    10.0   .     S
Er37     Er39    10.0   .     S
Er37     Ti48    10.0   .     S
Er38     Er40    10.0   .     S
Er39     Er40    10.0   .     S
Er40     Ti56    10.0   .     S
Er41     Er44    10.0   .     S
Er41     Er42    10.0   .     S
Er41     Ti84    10.0   .     S
Er42     Er43    10.0   .     S
Er42     Ti62    10.0   .     S
Er43     Er44    10.0   .     S
Er43     Ti5    10.0   1_655     S
Er44     Ti45    10.0   1_545     S
Ti45     Er44    10.0   1_565     S
Ti45     Ti46    9.999   .     S
Ti45     V49    10.0   .     S
Ti46     V49    10.0   .     S
Ti47     Ti48    9.999   .     S
Ti47     V50    10.0   .     S
Ti47     Er52    10.0   .     S
Ti48     V50    10.0   .     S
V49     V50    10.001   .     S
Er51     Er52    10.0   .     S
Er51     Er54    10.0   1_565     S
Er52     Er53    10.0   1_565     S
Er53     Er52    10.0   1_545     S
Er53     Er54    10.0   .     S
Er54     Er51    10.0   1_545     S
Er54     Ti55    10.0   .     S
Ti55     Ti56    9.999   .     S
Ti55     V60    10.0   .     S
Ti56     V60    10.0   .     S
Ti57     Ti58    9.999   .     S
Ti57     V59    10.0   .     S
Ti57     Er76    10.0   .     S
Ti58     V59    10.0   .     S
Ti58     Er78    10.0   1_545     S
V59     V60    10.001   .     S
Ti61     Ti62    9.999   .     S
Ti61     V63    10.0   .     S
Ti62     V63    10.0   .     S
V63     V64    10.001   1_654     S
V64     V63    10.001   1_456     S
V64     Ti66    10.0   .     S
V64     Ti65    10.0   .     S
Ti65     Ti66    9.999   .     S
Ti65     Er74    10.0   .     S
Ti66     Er80    10.0   .     S
Ti67     Ti68    9.999   .     S
Ti67     V72    10.0   .     S
Ti67     Er88    10.0   .     S
Ti68     V72    10.0   .     S
Ti68     Er75    10.0   .     S
Ti69     Ti70    9.999   .     S
Ti69     V71    10.0   .     S
Ti70     V71    10.0   .     S
V71     V72    10.001   1_554     S
V72     V71    10.001   1_556     S
Er73     Er76    10.0   .     S
Er73     Er74    10.0   .     S
Er73     Ti28    10.0   1_455     S
Er74     Er75    10.0   .     S
Er75     Er76    10.0   .     S
Er77     Er78    10.0   .     S
Er77     Er80    10.0   .     S
Er77     Ti32    10.0   1_455     S
Er78     Er79    10.0   .     S
Er78     Ti58    10.0   1_565     S
Er79     Er80    10.0   .     S
Er79     Ti82    10.0   .     S
Ti81     Ti82    9.999   .     S
Ti81     V85    10.0   .     S
Ti81     Er89    10.0   .     S
Ti82     V85    10.0   .     S
Ti83     Ti84    9.999   .     S
Ti83     V86    10.0   .     S
Ti84     V86    10.0   .     S
V85     V86    10.001   1_566     S
V86     V85    10.001   1_544     S
Er87     Er90    10.0   .     S
Er87     Er88    10.0   .     S
Er88     Er89    10.0   .     S
Er89     Er90    10.0   .     S
Er90     Ti27    10.0   1_565     S
