data_frfa
_audit_creation_date              2020-02-04
_audit_creation_method            'Pymatgen'
_symmetry_space_group_name_H-M    'P1'
_symmetry_Int_Tables_number       1
loop_
_symmetry_equiv_pos_as_xyz
  x,y,z
_cell_length_a                    133.1629
_cell_length_b                    90.1744
_cell_length_c                    82.1022
_cell_angle_alpha                 90.0
_cell_angle_beta                 90.0
_cell_angle_gamma                 90.0
loop_
_atom_site_label
_atom_site_type_symbol
_atom_site_fract_x
_atom_site_fract_y
_atom_site_fract_z
He1     He     0.2586   0.2829   0.9148
Li2     Li     0.2786   0.2997   0.0307
Li3     Li     0.2214   0.2003   0.9693
He4     He     0.2414   0.2171   0.0852
Li5     Li     0.2786   0.7003   0.9693
He6     He     0.2586   0.7171   0.0852
He7     He     0.2414   0.7829   0.9148
Li8     Li     0.2214   0.7997   0.0307
He9     He     0.2586   0.7171   0.4148
Li10     Li     0.2786   0.7003   0.5307
He11     He     0.2414   0.7829   0.5852
Li12     Li     0.2214   0.7997   0.4693
Li13     Li     0.7786   0.2003   0.5307
He14     He     0.7586   0.2171   0.4148
He15     He     0.7414   0.2829   0.5852
Li16     Li     0.7214   0.2997   0.4693
He17     He     0.7414   0.2829   0.9148
Li18     Li     0.7214   0.2997   0.0307
Li19     Li     0.7786   0.2003   0.9693
He20     He     0.7586   0.2171   0.0852
Li21     Li     0.7214   0.7003   0.9693
He22     He     0.7414   0.7171   0.0852
He23     He     0.7586   0.7829   0.9148
Li24     Li     0.7786   0.7997   0.0307
Li25     Li     0.7214   0.7003   0.5307
He26     He     0.7414   0.7171   0.4148
Li27     Li     0.7786   0.7997   0.4693
He28     He     0.7586   0.7829   0.5852
H29     H     0.1099   0.9373   0.4368
Ce30     Ce     0.1754   0.883   0.4392
S31     S     0.1693   0.9781   0.3773
Er32     Er     0.2239   0.1653   0.3109
Er33     Er     0.2239   0.1653   0.1891
V34     V     0.1931   0.0641   0.1891
V35     V     0.1931   0.0641   0.3109
H36     H     0.1099   0.9373   0.0632
Ce37     Ce     0.1754   0.883   0.0608
S38     S     0.1693   0.9781   0.1227
H39     H     0.1099   0.0627   0.5632
Ce40     Ce     0.1754   0.117   0.5608
S41     S     0.1693   0.0219   0.6227
Er42     Er     0.2239   0.8347   0.6891
Er43     Er     0.2239   0.8347   0.8109
V44     V     0.1931   0.9359   0.8109
V45     V     0.1931   0.9359   0.6891
H46     H     0.1099   0.0627   0.9368
Ce47     Ce     0.1754   0.117   0.9392
S48     S     0.1693   0.0219   0.8773
Ti49     Ti     0.9624   0.0402   0.542
Ti50     Ti     0.9624   0.9598   0.458
Ti51     Ti     0.0376   0.0402   0.542
Ti52     Ti     0.0376   0.9598   0.458
H53     H     0.8901   0.0627   0.5632
Ce54     Ce     0.8246   0.117   0.5608
S55     S     0.8307   0.0219   0.6227
Er56     Er     0.7761   0.8347   0.8109
Er57     Er     0.7761   0.8347   0.6891
V58     V     0.8069   0.9359   0.8109
V59     V     0.8069   0.9359   0.6891
H60     H     0.8901   0.0627   0.9368
Ce61     Ce     0.8246   0.117   0.9392
S62     S     0.8307   0.0219   0.8773
Ti63     Ti     0.9624   0.0402   0.958
Ti64     Ti     0.9624   0.9598   0.042
Ti65     Ti     0.0376   0.9598   0.042
Ti66     Ti     0.0376   0.0402   0.958
H67     H     0.8901   0.9373   0.0632
Ce68     Ce     0.8246   0.883   0.0608
S69     S     0.8307   0.9781   0.1227
Er70     Er     0.7761   0.1653   0.1891
Er71     Er     0.7761   0.1653   0.3109
V72     V     0.8069   0.0641   0.3109
V73     V     0.8069   0.0641   0.1891
H74     H     0.8901   0.9373   0.4368
Ce75     Ce     0.8246   0.883   0.4392
S76     S     0.8307   0.9781   0.3773
Li77     Li     0.2786   0.2997   0.4693
He78     He     0.2586   0.2829   0.5852
Li79     Li     0.2214   0.2003   0.5307
He80     He     0.2414   0.2171   0.4148
Ti81     Ti     0.4624   0.5402   0.542
Ti82     Ti     0.4624   0.4598   0.458
Ti83     Ti     0.5376   0.5402   0.542
Ti84     Ti     0.5376   0.4598   0.458
H85     H     0.6099   0.4373   0.4368
Ce86     Ce     0.6754   0.383   0.4392
S87     S     0.6693   0.4781   0.3773
Er88     Er     0.7239   0.6653   0.3109
Er89     Er     0.7239   0.6653   0.1891
V90     V     0.6931   0.5641   0.1891
V91     V     0.6931   0.5641   0.3109
H92     H     0.6099   0.4373   0.0632
Ce93     Ce     0.6754   0.383   0.0608
S94     S     0.6693   0.4781   0.1227
H95     H     0.3901   0.5627   0.5632
Ce96     Ce     0.3246   0.617   0.5608
S97     S     0.3307   0.5219   0.6227
Er98     Er     0.2761   0.3347   0.8109
Er99     Er     0.2761   0.3347   0.6891
V100     V     0.3069   0.4359   0.8109
V101     V     0.3069   0.4359   0.6891
H102     H     0.3901   0.5627   0.9368
Ce103     Ce     0.3246   0.617   0.9392
S104     S     0.3307   0.5219   0.8773
H105     H     0.3901   0.4373   0.0632
Ce106     Ce     0.3246   0.383   0.0608
S107     S     0.3307   0.4781   0.1227
Er108     Er     0.2761   0.6653   0.1891
Er109     Er     0.2761   0.6653   0.3109
V110     V     0.3069   0.5641   0.3109
V111     V     0.3069   0.5641   0.1891
H112     H     0.3901   0.4373   0.4368
Ce113     Ce     0.3246   0.383   0.4392
S114     S     0.3307   0.4781   0.3773
Ti115     Ti     0.5376   0.4598   0.042
Ti116     Ti     0.5376   0.5402   0.958
Ti117     Ti     0.4624   0.5402   0.958
Ti118     Ti     0.4624   0.4598   0.042
H119     H     0.6099   0.5627   0.5632
Ce120     Ce     0.6754   0.617   0.5608
S121     S     0.6693   0.5219   0.6227
Er122     Er     0.7239   0.3347   0.6891
Er123     Er     0.7239   0.3347   0.8109
V124     V     0.6931   0.4359   0.8109
V125     V     0.6931   0.4359   0.6891
H126     H     0.6099   0.5627   0.9368
Ce127     Ce     0.6754   0.617   0.9392
S128     S     0.6693   0.5219   0.8773
loop_
_geom_bond_atom_site_label_1
_geom_bond_atom_site_label_2
_geom_bond_distance
_geom_bond_site_symmetry_2
_ccdc_geom_bond_type
He1     Li2    9.999   1_556     S
He1     Li3    10.002   .     S
He1     Er98    10.003   .     S
Li2     He1    9.999   1_554     S
Li2     Ce106    10.002   .     S
Li2     He4    10.002   .     S
Li3     He4    9.999   1_556     S
Li3     Ce47    10.002   .     S
He4     Li3    9.999   1_554     S
He4     Er33    10.003   .     S
Li5     He6    9.999   1_556     S
Li5     Ce103    10.002   .     S
Li5     He7    10.002   .     S
He6     Li5    9.999   1_554     S
He6     Li8    10.002   .     S
He6     Er108    10.003   .     S
He7     Li8    9.999   1_556     S
He7     Er43    10.003   .     S
Li8     He7    9.999   1_554     S
Li8     Ce37    10.002   .     S
He9     Li10    9.999   .     S
He9     Li12    10.002   .     S
He9     Er109    10.003   .     S
Li10     Ce96    10.002   .     S
Li10     He11    10.002   .     S
He11     Li12    9.999   .     S
He11     Er42    10.003   .     S
Li12     Ce30    10.002   .     S
Li13     He14    9.999   .     S
Li13     Ce54    10.002   .     S
Li13     He15    10.002   .     S
He14     Li16    10.002   .     S
He14     Er71    10.003   .     S
He15     Li16    9.999   .     S
He15     Er122    10.003   .     S
Li16     Ce86    10.002   .     S
He17     Li18    9.999   1_556     S
He17     Li19    10.002   .     S
He17     Er123    10.003   .     S
Li18     He17    9.999   1_554     S
Li18     Ce93    10.002   .     S
Li18     He20    10.002   .     S
Li19     He20    9.999   1_556     S
Li19     Ce61    10.002   .     S
He20     Li19    9.999   1_554     S
He20     Er70    10.003   .     S
Li21     He22    9.999   1_556     S
Li21     Ce127    10.002   .     S
Li21     He23    10.002   .     S
He22     Li21    9.999   1_554     S
He22     Li24    10.002   .     S
He22     Er89    10.003   .     S
He23     Li24    9.999   1_556     S
He23     Er56    10.003   .     S
Li24     He23    9.999   1_554     S
Li24     Ce68    10.002   .     S
Li25     He26    9.999   .     S
Li25     Ce120    10.002   .     S
Li25     He28    10.002   .     S
He26     Li27    10.002   .     S
He26     Er88    10.003   .     S
Li27     He28    9.999   .     S
Li27     Ce75    10.002   .     S
He28     Er57    10.003   .     S
H29     S31    9.997   .     S
H29     Ce30    10.0   .     S
H29     Ti52    10.001   .     S
Ce30     S31    9.998   .     S
S31     V35    10.0   1_565     S
Er32     V35    9.999   .     S
Er32     Er33    10.002   .     S
Er32     He80    10.003   .     S
Er33     V34    9.999   .     S
V34     V35    9.997   .     S
V34     S38    10.0   1_545     S
V35     S31    10.0   1_545     S
H36     S38    9.997   .     S
H36     Ce37    10.0   .     S
H36     Ti65    10.001   .     S
Ce37     S38    9.998   .     S
S38     V34    10.0   1_565     S
H39     S41    9.997   .     S
H39     Ce40    10.0   .     S
H39     Ti51    10.001   .     S
Ce40     S41    9.998   .     S
Ce40     Li79    10.002   .     S
S41     V45    10.0   1_545     S
Er42     V45    9.999   .     S
Er42     Er43    10.002   .     S
Er43     V44    9.999   .     S
V44     V45    9.997   .     S
V44     S48    10.0   1_565     S
V45     S41    10.0   1_565     S
H46     S48    9.997   .     S
H46     Ce47    10.0   .     S
H46     Ti66    10.001   .     S
Ce47     S48    9.998   .     S
S48     V44    10.0   1_545     S
Ti49     Ti50    9.996   1_545     S
Ti49     Ti51    10.001   1_655     S
Ti49     H53    10.001   .     S
Ti50     Ti49    9.996   1_565     S
Ti50     Ti52    10.001   1_655     S
Ti50     H74    10.001   .     S
Ti51     Ti52    9.996   1_545     S
Ti51     Ti49    10.001   1_455     S
Ti52     Ti51    9.996   1_565     S
Ti52     Ti50    10.001   1_455     S
H53     S55    9.997   .     S
H53     Ce54    10.0   .     S
Ce54     S55    9.998   .     S
S55     V59    10.0   1_545     S
Er56     V58    9.999   .     S
Er56     Er57    10.002   .     S
Er57     V59    9.999   .     S
V58     V59    9.997   .     S
V58     S62    10.0   1_565     S
V59     S55    10.0   1_565     S
H60     S62    9.997   .     S
H60     Ce61    10.0   .     S
H60     Ti63    10.001   .     S
Ce61     S62    9.998   .     S
S62     V58    10.0   1_545     S
Ti63     Ti64    9.996   1_546     S
Ti63     Ti66    10.001   1_655     S
Ti64     Ti63    9.996   1_564     S
Ti64     Ti65    10.001   1_655     S
Ti64     H67    10.001   .     S
Ti65     Ti66    9.996   1_564     S
Ti65     Ti64    10.001   1_455     S
Ti66     Ti65    9.996   1_546     S
Ti66     Ti63    10.001   1_455     S
H67     S69    9.997   .     S
H67     Ce68    10.0   .     S
Ce68     S69    9.998   .     S
S69     V73    10.0   1_565     S
Er70     V73    9.999   .     S
Er70     Er71    10.002   .     S
Er71     V72    9.999   .     S
V72     V73    9.997   .     S
V72     S76    10.0   1_545     S
V73     S69    10.0   1_545     S
H74     S76    9.997   .     S
H74     Ce75    10.0   .     S
Ce75     S76    9.998   .     S
S76     V72    10.0   1_565     S
Li77     He78    9.999   .     S
Li77     Ce113    10.002   .     S
Li77     He80    10.002   .     S
He78     Li79    10.002   .     S
He78     Er99    10.003   .     S
Li79     He80    9.999   .     S
Ti81     Ti82    9.996   .     S
Ti81     Ti83    10.001   .     S
Ti81     H95    10.001   .     S
Ti82     Ti84    10.001   .     S
Ti82     H112    10.001   .     S
Ti83     Ti84    9.996   .     S
Ti83     H119    10.001   .     S
Ti84     H85    10.001   .     S
H85     S87    9.997   .     S
H85     Ce86    10.0   .     S
Ce86     S87    9.998   .     S
S87     V91    10.0   .     S
Er88     V91    9.999   .     S
Er88     Er89    10.002   .     S
Er89     V90    9.999   .     S
V90     V91    9.997   .     S
V90     S94    10.0   .     S
H92     S94    9.997   .     S
H92     Ce93    10.0   .     S
H92     Ti115    10.001   .     S
Ce93     S94    9.998   .     S
H95     S97    9.997   .     S
H95     Ce96    10.0   .     S
Ce96     S97    9.998   .     S
S97     V101    10.0   .     S
Er98     V100    9.999   .     S
Er98     Er99    10.002   .     S
Er99     V101    9.999   .     S
V100     V101    9.997   .     S
V100     S104    10.0   .     S
H102     S104    9.997   .     S
H102     Ce103    10.0   .     S
H102     Ti117    10.001   .     S
Ce103     S104    9.998   .     S
H105     S107    9.997   .     S
H105     Ce106    10.0   .     S
H105     Ti118    10.001   .     S
Ce106     S107    9.998   .     S
S107     V111    10.0   .     S
Er108     V111    9.999   .     S
Er108     Er109    10.002   .     S
Er109     V110    9.999   .     S
V110     V111    9.997   .     S
V110     S114    10.0   .     S
H112     S114    9.997   .     S
H112     Ce113    10.0   .     S
Ce113     S114    9.998   .     S
Ti115     Ti116    9.996   1_554     S
Ti115     Ti118    10.001   .     S
Ti116     Ti115    9.996   1_556     S
Ti116     Ti117    10.001   .     S
Ti116     H126    10.001   .     S
Ti117     Ti118    9.996   1_556     S
Ti118     Ti117    9.996   1_554     S
H119     S121    9.997   .     S
H119     Ce120    10.0   .     S
Ce120     S121    9.998   .     S
S121     V125    10.0   .     S
Er122     V125    9.999   .     S
Er122     Er123    10.002   .     S
Er123     V124    9.999   .     S
V124     V125    9.997   .     S
V124     S128    10.0   .     S
H126     S128    9.997   .     S
H126     Ce127    10.0   .     S
Ce127     S128    9.998   .     S
