data_fsia
_audit_creation_date              2020-02-04
_audit_creation_method            'Pymatgen'
_symmetry_space_group_name_H-M    'P1'
_symmetry_Int_Tables_number       1
loop_
_symmetry_equiv_pos_as_xyz
  x,y,z
_cell_length_a                    109.4777
_cell_length_b                    55.4555
_cell_length_c                    55.7589
_cell_angle_alpha                 90.0
_cell_angle_beta                 90.0
_cell_angle_gamma                 90.0
loop_
_atom_site_label
_atom_site_type_symbol
_atom_site_fract_x
_atom_site_fract_y
_atom_site_fract_z
S1     S     0.2554   0.4443   0.6795
S2     S     0.2554   0.5557   0.8205
Er3     Er     0.1857   0.6295   0.9103
Er4     Er     0.1857   0.6295   0.0897
S5     S     0.2554   0.5557   0.1795
S6     S     0.2554   0.4443   0.3205
Er7     Er     0.1857   0.3705   0.5897
Er8     Er     0.1857   0.3705   0.4103
V9     V     0.35   0.2954   0.9103
V10     V     0.35   0.2954   0.0897
H11     H     0.32   0.5709   0.6946
H12     H     0.32   0.4291   0.8054
H13     H     0.32   0.5709   0.3054
H14     H     0.32   0.4291   0.1946
V15     V     0.35   0.7046   0.5897
V16     V     0.35   0.7046   0.4103
S17     S     0.2446   0.9443   0.6795
S18     S     0.2446   0.0557   0.8205
Er19     Er     0.3143   0.1295   0.9103
Er20     Er     0.3143   0.1295   0.0897
S21     S     0.2446   0.0557   0.1795
S22     S     0.2446   0.9443   0.3205
Er23     Er     0.3143   0.8705   0.5897
Er24     Er     0.3143   0.8705   0.4103
H25     H     0.18   0.9291   0.1946
H26     H     0.18   0.0709   0.3054
V27     V     0.15   0.7954   0.9103
V28     V     0.15   0.7954   0.0897
H29     H     0.18   0.9291   0.8054
H30     H     0.18   0.0709   0.6946
V31     V     0.15   0.2046   0.4103
V32     V     0.15   0.2046   0.5897
Ti33     Ti     0.595   0.1514   0.5897
Ti34     Ti     0.595   0.1514   0.4103
Ti35     Ti     0.595   0.8486   0.9103
Ti36     Ti     0.595   0.8486   0.0897
Ti37     Ti     0.405   0.1514   0.9103
Ti38     Ti     0.405   0.1514   0.0897
Ce39     Ce     0.5323   0.9362   0.8134
Ce40     Ce     0.4677   0.9362   0.6866
Ce41     Ce     0.5323   0.0638   0.6866
Ce42     Ce     0.4677   0.0638   0.8134
Ce43     Ce     0.5323   0.9362   0.1866
Ce44     Ce     0.4677   0.9362   0.3134
Ce45     Ce     0.5323   0.0638   0.3134
Ce46     Ce     0.4677   0.0638   0.1866
Ti47     Ti     0.405   0.8486   0.5897
Ti48     Ti     0.405   0.8486   0.4103
S49     S     0.7554   0.0557   0.6795
S50     S     0.7554   0.9443   0.8205
Er51     Er     0.6857   0.8705   0.9103
Er52     Er     0.6857   0.8705   0.0897
S53     S     0.7554   0.9443   0.1795
S54     S     0.7554   0.0557   0.3205
Er55     Er     0.6857   0.1295   0.5897
Er56     Er     0.6857   0.1295   0.4103
H57     H     0.82   0.9291   0.3054
H58     H     0.82   0.0709   0.1946
V59     V     0.85   0.2046   0.9103
V60     V     0.85   0.2046   0.0897
H61     H     0.82   0.9291   0.6946
H62     H     0.82   0.0709   0.8054
V63     V     0.85   0.7954   0.4103
V64     V     0.85   0.7954   0.5897
S65     S     0.7446   0.5557   0.6795
S66     S     0.7446   0.4443   0.8205
Er67     Er     0.8143   0.3705   0.9103
Er68     Er     0.8143   0.3705   0.0897
S69     S     0.7446   0.4443   0.1795
S70     S     0.7446   0.5557   0.3205
Er71     Er     0.8143   0.6295   0.5897
Er72     Er     0.8143   0.6295   0.4103
V73     V     0.65   0.2954   0.5897
V74     V     0.65   0.2954   0.4103
H75     H     0.68   0.5709   0.8054
H76     H     0.68   0.4291   0.6946
H77     H     0.68   0.5709   0.1946
H78     H     0.68   0.4291   0.3054
V79     V     0.65   0.7046   0.9103
V80     V     0.65   0.7046   0.0897
Ti81     Ti     0.095   0.3486   0.4103
Ti82     Ti     0.095   0.3486   0.5897
Ti83     Ti     0.095   0.6514   0.9103
Ti84     Ti     0.095   0.6514   0.0897
Ti85     Ti     0.905   0.3486   0.9103
Ti86     Ti     0.905   0.3486   0.0897
Ce87     Ce     0.0323   0.5638   0.1866
Ce88     Ce     0.9677   0.5638   0.3134
Ce89     Ce     0.0323   0.4362   0.3134
Ce90     Ce     0.9677   0.4362   0.1866
Ce91     Ce     0.9677   0.5638   0.6866
Ce92     Ce     0.0323   0.5638   0.8134
Ce93     Ce     0.0323   0.4362   0.6866
Ce94     Ce     0.9677   0.4362   0.8134
Ti95     Ti     0.905   0.6514   0.4103
Ti96     Ti     0.905   0.6514   0.5897
loop_
_geom_bond_atom_site_label_1
_geom_bond_atom_site_label_2
_geom_bond_distance
_geom_bond_site_symmetry_2
_ccdc_geom_bond_type
S1     S2    10.0   .     S
S1     Er7    10.0   .     S
S1     H11    10.0   .     S
S1     H12    10.0   .     S
S2     Er3    10.0   .     S
S2     H11    10.0   .     S
S2     H12    10.0   .     S
Er3     Er4    10.0   1_556     S
Er3     V27    10.0   .     S
Er3     Ti83    10.0   .     S
Er4     S5    10.0   .     S
Er4     Er3    10.0   1_554     S
Er4     V28    10.0   .     S
Er4     Ti84    10.0   .     S
S5     S6    10.0   .     S
S5     H13    10.0   .     S
S5     H14    10.0   .     S
S6     Er8    10.0   .     S
S6     H14    10.0   .     S
S6     H13    10.0   .     S
Er7     Er8    10.0   .     S
Er7     V32    10.0   .     S
Er7     Ti82    10.0   .     S
Er8     V31    10.0   .     S
Er8     Ti81    10.0   .     S
V9     Er19    10.0   .     S
V9     V10    10.0   1_556     S
V9     H12    10.0   .     S
V9     Ti37    10.0   .     S
V10     Er20    10.0   .     S
V10     V9    10.0   1_554     S
V10     H14    10.0   .     S
V10     Ti38    10.0   .     S
H11     H12    10.0   .     S
H11     V15    10.0   .     S
H13     H14    10.0   .     S
H13     V16    10.0   .     S
V15     Er23    10.0   .     S
V15     V16    10.0   .     S
V15     Ti47    10.0   .     S
V16     Er24    10.0   .     S
V16     Ti48    10.0   .     S
S17     S18    10.0   1_565     S
S17     Er23    10.0   .     S
S17     H29    10.0   .     S
S17     H30    10.0   1_565     S
S18     S17    10.0   1_545     S
S18     Er19    10.0   .     S
S18     H30    10.0   .     S
S18     H29    10.0   1_545     S
Er19     Er20    10.0   1_556     S
Er19     Ti37    10.0   .     S
Er20     S21    10.0   .     S
Er20     Er19    10.0   1_554     S
Er20     Ti38    10.0   .     S
S21     S22    10.0   1_545     S
S21     H25    10.0   1_545     S
S21     H26    10.0   .     S
S22     S21    10.0   1_565     S
S22     Er24    10.0   .     S
S22     H25    10.0   .     S
S22     H26    10.0   1_565     S
Er23     Er24    10.0   .     S
Er23     Ti47    10.0   .     S
Er24     Ti48    10.0   .     S
H25     H26    10.0   1_565     S
H25     S21    10.0   1_565     S
H25     V28    10.0   .     S
H26     H25    10.0   1_545     S
H26     S22    10.0   1_545     S
H26     V31    10.0   .     S
V27     V28    10.0   1_556     S
V27     H29    10.0   .     S
V27     Ti83    10.0   .     S
V28     V27    10.0   1_554     S
V28     Ti84    10.0   .     S
H29     H30    10.0   1_565     S
H29     S18    10.0   1_565     S
H30     H29    10.0   1_545     S
H30     S17    10.0   1_545     S
H30     V32    10.0   .     S
V31     V32    10.0   .     S
V31     Ti81    10.0   .     S
V32     Ti82    10.0   .     S
Ti33     Er55    10.0   .     S
Ti33     V73    10.0   .     S
Ti33     Ce41    10.0   .     S
Ti33     Ti34    10.0   .     S
Ti34     Er56    10.0   .     S
Ti34     V74    10.0   .     S
Ti34     Ce45    10.0   .     S
Ti35     Er51    10.0   .     S
Ti35     V79    10.0   .     S
Ti35     Ce39    10.0   .     S
Ti35     Ti36    10.0   1_556     S
Ti36     Er52    10.0   .     S
Ti36     V80    10.0   .     S
Ti36     Ce43    10.0   .     S
Ti36     Ti35    10.0   1_554     S
Ti37     Ce42    10.0   .     S
Ti37     Ti38    10.0   1_556     S
Ti38     Ce46    10.0   .     S
Ti38     Ti37    10.0   1_554     S
Ce39     Ce40    9.999   .     S
Ce39     Ce41    10.001   1_565     S
Ce39     Ce42    10.0   1_565     S
Ce40     Ce41    10.0   1_565     S
Ce40     Ce42    10.001   1_565     S
Ce40     Ti47    10.0   .     S
Ce41     Ce40    10.0   1_545     S
Ce41     Ce39    10.001   1_545     S
Ce41     Ce42    9.999   .     S
Ce42     Ce39    10.0   1_545     S
Ce42     Ce40    10.001   1_545     S
Ce43     Ce44    9.999   .     S
Ce43     Ce46    10.0   1_565     S
Ce43     Ce45    10.001   1_565     S
Ce44     Ce45    10.0   1_565     S
Ce44     Ce46    10.001   1_565     S
Ce44     Ti48    10.0   .     S
Ce45     Ce46    9.999   .     S
Ce45     Ce43    10.001   1_545     S
Ce45     Ce44    10.0   1_545     S
Ce46     Ce43    10.0   1_545     S
Ce46     Ce44    10.001   1_545     S
Ti47     Ti48    10.0   .     S
S49     S50    10.0   1_545     S
S49     Er55    10.0   .     S
S49     H62    10.0   .     S
S49     H61    10.0   1_545     S
S50     S49    10.0   1_565     S
S50     Er51    10.0   .     S
S50     H61    10.0   .     S
S50     H62    10.0   1_565     S
Er51     Er52    10.0   1_556     S
Er51     V79    10.0   .     S
Er52     S53    10.0   .     S
Er52     Er51    10.0   1_554     S
Er52     V80    10.0   .     S
S53     S54    10.0   1_565     S
S53     H57    10.0   .     S
S53     H58    10.0   1_565     S
S54     S53    10.0   1_545     S
S54     Er56    10.0   .     S
S54     H58    10.0   .     S
S54     H57    10.0   1_545     S
Er55     Er56    10.0   .     S
Er55     V73    10.0   .     S
Er56     V74    10.0   .     S
H57     H58    10.0   1_565     S
H57     S54    10.0   1_565     S
H57     V63    10.0   .     S
H58     H57    10.0   1_545     S
H58     S53    10.0   1_545     S
H58     V60    10.0   .     S
V59     Er67    10.0   .     S
V59     V60    10.0   1_556     S
V59     H62    10.0   .     S
V59     Ti85    10.0   .     S
V60     Er68    10.0   .     S
V60     V59    10.0   1_554     S
V60     Ti86    10.0   .     S
H61     H62    10.0   1_565     S
H61     S49    10.0   1_565     S
H61     V64    10.0   .     S
H62     H61    10.0   1_545     S
H62     S50    10.0   1_545     S
V63     Er72    10.0   .     S
V63     V64    10.0   .     S
V63     Ti95    10.0   .     S
V64     Er71    10.0   .     S
V64     Ti96    10.0   .     S
S65     S66    10.0   .     S
S65     Er71    10.0   .     S
S65     H75    10.0   .     S
S65     H76    10.0   .     S
S66     Er67    10.0   .     S
S66     H76    10.0   .     S
S66     H75    10.0   .     S
Er67     Er68    10.0   1_556     S
Er67     Ti85    10.0   .     S
Er68     S69    10.0   .     S
Er68     Er67    10.0   1_554     S
Er68     Ti86    10.0   .     S
S69     S70    10.0   .     S
S69     H77    10.0   .     S
S69     H78    10.0   .     S
S70     Er72    10.0   .     S
S70     H77    10.0   .     S
S70     H78    10.0   .     S
Er71     Er72    10.0   .     S
Er71     Ti96    10.0   .     S
Er72     Ti95    10.0   .     S
V73     V74    10.0   .     S
V73     H76    10.0   .     S
V74     H78    10.0   .     S
H75     H76    10.0   .     S
H75     V79    10.0   .     S
H77     H78    10.0   .     S
H77     V80    10.0   .     S
V79     V80    10.0   1_556     S
V80     V79    10.0   1_554     S
Ti81     Ce89    10.0   .     S
Ti81     Ti82    10.0   .     S
Ti82     Ce93    10.0   .     S
Ti83     Ce92    10.0   .     S
Ti83     Ti84    10.0   1_556     S
Ti84     Ce87    10.0   .     S
Ti84     Ti83    10.0   1_554     S
Ti85     Ce94    10.0   .     S
Ti85     Ti86    10.0   1_556     S
Ti86     Ce90    10.0   .     S
Ti86     Ti85    10.0   1_554     S
Ce87     Ce88    9.999   1_455     S
Ce87     Ce90    10.0   1_455     S
Ce87     Ce89    10.001   .     S
Ce88     Ce87    9.999   1_655     S
Ce88     Ce89    10.0   1_655     S
Ce88     Ce90    10.001   .     S
Ce88     Ti95    10.0   .     S
Ce89     Ce88    10.0   1_455     S
Ce89     Ce90    9.999   1_455     S
Ce90     Ce87    10.0   1_655     S
Ce90     Ce89    9.999   1_655     S
Ce91     Ce92    9.999   1_655     S
Ce91     Ce93    10.0   1_655     S
Ce91     Ce94    10.001   .     S
Ce91     Ti96    10.0   .     S
Ce92     Ce91    9.999   1_455     S
Ce92     Ce93    10.001   .     S
Ce92     Ce94    10.0   1_455     S
Ce93     Ce91    10.0   1_455     S
Ce93     Ce94    9.999   1_455     S
Ce94     Ce92    10.0   1_655     S
Ce94     Ce93    9.999   1_655     S
Ti95     Ti96    10.0   .     S
