data_fsn
_audit_creation_date              2020-02-04
_audit_creation_method            'Pymatgen'
_symmetry_space_group_name_H-M    'P1'
_symmetry_Int_Tables_number       1
loop_
_symmetry_equiv_pos_as_xyz
  x,y,z
_cell_length_a                    24.0309
_cell_length_b                    24.0309
_cell_length_c                    24.0309
_cell_angle_alpha                 90.0
_cell_angle_beta                 90.0
_cell_angle_gamma                 90.0
loop_
_atom_site_label
_atom_site_type_symbol
_atom_site_fract_x
_atom_site_fract_y
_atom_site_fract_z
Er1     Er     0.6201   0.6201   0.6201
Er2     Er     0.8799   0.1201   0.6201
Er3     Er     0.1201   0.6201   0.8799
Er4     Er     0.3799   0.3799   0.3799
Er5     Er     0.6201   0.8799   0.1201
Er6     Er     0.8799   0.3799   0.1201
Er7     Er     0.3799   0.1201   0.8799
Er8     Er     0.1201   0.8799   0.3799
V9     V     0.0   0.0   0.0
V10     V     0.5   0.0   0.5
V11     V     0.5   0.5   0.0
V12     V     0.0   0.5   0.5
loop_
_geom_bond_atom_site_label_1
_geom_bond_atom_site_label_2
_geom_bond_distance
_geom_bond_site_symmetry_2
_ccdc_geom_bond_type
Er1     V11    10.0   1_556     S
Er1     V12    10.0   1_655     S
Er1     V10    10.0   1_565     S
Er1     Er4    10.0   .     S
Er2     V9    10.0   1_656     S
Er2     V10    10.0   .     S
Er2     V12    10.0   1_655     S
Er2     Er8    10.0   1_645     S
Er3     V9    10.0   1_566     S
Er3     V12    10.0   .     S
Er3     V11    10.0   1_556     S
Er3     Er6    10.0   1_456     S
Er4     V11    10.0   .     S
Er4     V12    10.0   .     S
Er4     V10    10.0   .     S
Er5     V9    10.0   1_665     S
Er5     V11    10.0   .     S
Er5     V10    10.0   1_565     S
Er5     Er7    10.0   1_564     S
Er6     V9    10.0   1_655     S
Er6     V11    10.0   .     S
Er6     V12    10.0   1_655     S
Er6     Er3    10.0   1_654     S
Er7     V9    10.0   1_556     S
Er7     V10    10.0   .     S
Er7     V11    10.0   1_556     S
Er7     Er5    10.0   1_546     S
Er8     V9    10.0   1_565     S
Er8     V12    10.0   .     S
Er8     V10    10.0   1_565     S
Er8     Er2    10.0   1_465     S
V9     Er2    10.0   1_454     S
V9     Er3    10.0   1_544     S
V9     Er5    10.0   1_445     S
V9     Er6    10.0   1_455     S
V9     Er7    10.0   1_554     S
V9     Er8    10.0   1_545     S
V10     Er1    10.0   1_545     S
V10     Er5    10.0   1_545     S
V10     Er8    10.0   1_545     S
V11     Er1    10.0   1_554     S
V11     Er3    10.0   1_554     S
V11     Er7    10.0   1_554     S
V12     Er1    10.0   1_455     S
V12     Er2    10.0   1_455     S
V12     Er6    10.0   1_455     S
