data_fsya
_audit_creation_date              2020-02-04
_audit_creation_method            'Pymatgen'
_symmetry_space_group_name_H-M    'P1'
_symmetry_Int_Tables_number       1
loop_
_symmetry_equiv_pos_as_xyz
  x,y,z
_cell_length_a                    57.0923
_cell_length_b                    77.2653
_cell_length_c                    37.4758
_cell_angle_alpha                 90.0
_cell_angle_beta                 90.0
_cell_angle_gamma                 90.0
loop_
_atom_site_label
_atom_site_type_symbol
_atom_site_fract_x
_atom_site_fract_y
_atom_site_fract_z
Ce1     Ce     0.0876   0.0648   0.0
Ce2     Ce     0.9124   0.0648   0.0
Ce3     Ce     0.0876   0.9352   0.0
Ce4     Ce     0.9124   0.9352   0.0
Ti5     Ti     0.5875   0.7762   0.3666
Ti6     Ti     0.4125   0.7762   0.3666
Ti7     Ti     0.5875   0.7762   0.6334
Ti8     Ti     0.4125   0.7762   0.6334
Er9     Er     0.8275   0.7201   0.8667
Er10     Er     0.6725   0.7799   0.8667
Er11     Er     0.8275   0.7201   0.1333
Er12     Er     0.6725   0.7799   0.1333
V13     V     0.6925   0.6688   0.0
V14     V     0.8075   0.8312   0.0
Ti15     Ti     0.0875   0.7238   0.3666
Ti16     Ti     0.9125   0.7238   0.3666
Ti17     Ti     0.0875   0.7238   0.6334
Ti18     Ti     0.9125   0.7238   0.6334
Er19     Er     0.3275   0.7799   0.8667
Er20     Er     0.1725   0.7201   0.8667
Er21     Er     0.3275   0.7799   0.1333
Er22     Er     0.1725   0.7201   0.1333
V23     V     0.3075   0.6688   0.0
V24     V     0.1925   0.8312   0.0
Ce25     Ce     0.4124   0.5648   0.0
Ce26     Ce     0.5876   0.5648   0.0
Ce27     Ce     0.4124   0.4352   0.0
Ce28     Ce     0.5876   0.4352   0.0
Ti29     Ti     0.4125   0.2238   0.3666
Ti30     Ti     0.5875   0.2238   0.3666
Ti31     Ti     0.5875   0.2238   0.6334
Ti32     Ti     0.4125   0.2238   0.6334
Er33     Er     0.8275   0.2799   0.8667
Er34     Er     0.6725   0.2201   0.8667
Er35     Er     0.8275   0.2799   0.1333
Er36     Er     0.6725   0.2201   0.1333
V37     V     0.8075   0.1688   0.0
V38     V     0.6925   0.3312   0.0
Ti39     Ti     0.0875   0.2762   0.3666
Ti40     Ti     0.9125   0.2762   0.3666
Ti41     Ti     0.0875   0.2762   0.6334
Ti42     Ti     0.9125   0.2762   0.6334
Er43     Er     0.3275   0.2201   0.8667
Er44     Er     0.1725   0.2799   0.8667
Er45     Er     0.3275   0.2201   0.1333
Er46     Er     0.1725   0.2799   0.1333
V47     V     0.1925   0.1688   0.0
V48     V     0.3075   0.3312   0.0
loop_
_geom_bond_atom_site_label_1
_geom_bond_atom_site_label_2
_geom_bond_distance
_geom_bond_site_symmetry_2
_ccdc_geom_bond_type
Ce1     Ce2    10.006   1_455     S
Ce1     Ce3    10.015   1_545     S
Ce1     V47    10.021   .     S
Ce2     Ce1    10.006   1_655     S
Ce2     Ce4    10.015   1_545     S
Ce2     V37    10.021   .     S
Ce3     Ce4    10.006   1_455     S
Ce3     Ce1    10.015   1_565     S
Ce3     V24    10.021   .     S
Ce4     Ce3    10.006   1_655     S
Ce4     Ce2    10.015   1_565     S
Ce4     V14    10.021   .     S
Ti5     Er12    10.004   .     S
Ti5     Ti6    9.995   .     S
Ti5     Ti7    10.001   .     S
Ti6     Er21    10.004   .     S
Ti6     Ti8    10.001   .     S
Ti7     Er10    10.004   .     S
Ti7     Ti8    9.995   .     S
Ti8     Er19    10.004   .     S
Er9     Ti18    10.004   .     S
Er9     V13    10.001   1_556     S
Er9     V14    9.996   1_556     S
Er9     Er10    9.981   .     S
Er9     Er11    9.989   1_556     S
Er10     V13    9.996   1_556     S
Er10     V14    10.001   1_556     S
Er10     Er12    9.989   1_556     S
Er11     Ti16    10.004   .     S
Er11     V13    10.001   .     S
Er11     V14    9.996   .     S
Er11     Er12    9.981   .     S
Er11     Er9    9.989   1_554     S
Er12     V13    9.996   .     S
Er12     V14    10.001   .     S
Er12     Er10    9.989   1_554     S
V13     Er9    10.001   1_554     S
V13     Ce26    10.021   .     S
V13     Er10    9.996   1_554     S
V14     Er10    10.001   1_554     S
V14     Er9    9.996   1_554     S
Ti15     Er22    10.004   .     S
Ti15     Ti16    9.995   1_455     S
Ti15     Ti17    10.001   .     S
Ti16     Ti15    9.995   1_655     S
Ti16     Ti18    10.001   .     S
Ti17     Er20    10.004   .     S
Ti17     Ti18    9.995   1_455     S
Ti18     Ti17    9.995   1_655     S
Er19     V23    9.996   1_556     S
Er19     V24    10.001   1_556     S
Er19     Er20    9.981   .     S
Er19     Er21    9.989   1_556     S
Er20     V23    10.001   1_556     S
Er20     V24    9.996   1_556     S
Er20     Er22    9.989   1_556     S
Er21     V23    9.996   .     S
Er21     V24    10.001   .     S
Er21     Er22    9.981   .     S
Er21     Er19    9.989   1_554     S
Er22     V23    10.001   .     S
Er22     V24    9.996   .     S
Er22     Er20    9.989   1_554     S
V23     Er20    10.001   1_554     S
V23     Ce25    10.021   .     S
V23     Er19    9.996   1_554     S
V24     Er19    10.001   1_554     S
V24     Er20    9.996   1_554     S
Ce25     Ce26    10.006   .     S
Ce25     Ce27    10.015   .     S
Ce26     Ce28    10.015   .     S
Ce27     Ce28    10.006   .     S
Ce27     V48    10.021   .     S
Ce28     V38    10.021   .     S
Ti29     Er45    10.004   .     S
Ti29     Ti30    9.995   .     S
Ti29     Ti32    10.001   .     S
Ti30     Er36    10.004   .     S
Ti30     Ti31    10.001   .     S
Ti31     Er34    10.004   .     S
Ti31     Ti32    9.995   .     S
Ti32     Er43    10.004   .     S
Er33     Ti42    10.004   .     S
Er33     V38    10.001   1_556     S
Er33     V37    9.996   1_556     S
Er33     Er34    9.981   .     S
Er33     Er35    9.989   1_556     S
Er34     V38    9.996   1_556     S
Er34     V37    10.001   1_556     S
Er34     Er36    9.989   1_556     S
Er35     Ti40    10.004   .     S
Er35     V38    10.001   .     S
Er35     V37    9.996   .     S
Er35     Er36    9.981   .     S
Er35     Er33    9.989   1_554     S
Er36     V38    9.996   .     S
Er36     V37    10.001   .     S
Er36     Er34    9.989   1_554     S
V37     Er34    10.001   1_554     S
V37     Er33    9.996   1_554     S
V38     Er33    10.001   1_554     S
V38     Er34    9.996   1_554     S
Ti39     Er46    10.004   .     S
Ti39     Ti40    9.995   1_455     S
Ti39     Ti41    10.001   .     S
Ti40     Ti39    9.995   1_655     S
Ti40     Ti42    10.001   .     S
Ti41     Er44    10.004   .     S
Ti41     Ti42    9.995   1_455     S
Ti42     Ti41    9.995   1_655     S
Er43     V48    9.996   1_556     S
Er43     V47    10.001   1_556     S
Er43     Er44    9.981   .     S
Er43     Er45    9.989   1_556     S
Er44     V48    10.001   1_556     S
Er44     V47    9.996   1_556     S
Er44     Er46    9.989   1_556     S
Er45     V48    9.996   .     S
Er45     V47    10.001   .     S
Er45     Er46    9.981   .     S
Er45     Er43    9.989   1_554     S
Er46     V48    10.001   .     S
Er46     V47    9.996   .     S
Er46     Er44    9.989   1_554     S
V47     Er43    10.001   1_554     S
V47     Er44    9.996   1_554     S
V48     Er44    10.001   1_554     S
V48     Er43    9.996   1_554     S
