data_ftg
_audit_creation_date              2020-02-04
_audit_creation_method            'Pymatgen'
_symmetry_space_group_name_H-M    'P1'
_symmetry_Int_Tables_number       1
loop_
_symmetry_equiv_pos_as_xyz
  x,y,z
_cell_length_a                    73.6173
_cell_length_b                    73.6173
_cell_length_c                    22.8952
_cell_angle_alpha                 90.0
_cell_angle_beta                 90.0
_cell_angle_gamma                 120.0
loop_
_atom_site_label
_atom_site_type_symbol
_atom_site_fract_x
_atom_site_fract_y
_atom_site_fract_z
V1     V     0.6067   0.5291   0.9684
V2     V     0.5291   0.6067   0.0316
V3     V     0.6067   0.5291   0.5316
V4     V     0.5291   0.6067   0.4684
V5     V     0.4709   0.3933   0.9684
V6     V     0.3933   0.4709   0.0316
V7     V     0.4709   0.3933   0.5316
V8     V     0.3933   0.4709   0.4684
Er9     Er     0.4692   0.8025   0.75
Er10     Er     0.4692   0.6667   0.75
Er11     Er     0.1975   0.6667   0.75
Er12     Er     0.3333   0.8025   0.75
Er13     Er     0.1975   0.5308   0.75
Er14     Er     0.3333   0.5308   0.75
V15     V     0.5291   0.9224   0.0316
V16     V     0.6067   0.0776   0.9684
V17     V     0.5291   0.9224   0.4684
V18     V     0.6067   0.0776   0.5316
V19     V     0.3933   0.9224   0.0316
V20     V     0.4709   0.0776   0.9684
V21     V     0.3933   0.9224   0.4684
V22     V     0.4709   0.0776   0.5316
V23     V     0.9224   0.3933   0.5316
V24     V     0.0776   0.4709   0.4684
V25     V     0.9224   0.3933   0.9684
V26     V     0.0776   0.4709   0.0316
V27     V     0.9224   0.5291   0.5316
V28     V     0.0776   0.6067   0.4684
V29     V     0.9224   0.5291   0.9684
V30     V     0.0776   0.6067   0.0316
Er31     Er     0.5308   0.1975   0.25
Er32     Er     0.5308   0.3333   0.25
Er33     Er     0.8025   0.4692   0.25
Er34     Er     0.6667   0.4692   0.25
Er35     Er     0.8025   0.3333   0.25
Er36     Er     0.6667   0.1975   0.25
loop_
_geom_bond_atom_site_label_1
_geom_bond_atom_site_label_2
_geom_bond_distance
_geom_bond_site_symmetry_2
_ccdc_geom_bond_type
V1     V2    10.0   1_556     S
V1     Er34    10.0   1_556     S
V1     V3    10.0   .     S
V1     V5    10.0   .     S
V2     V1    10.0   1_554     S
V2     Er10    10.0   1_554     S
V2     V4    10.0   .     S
V2     V6    10.0   .     S
V3     V4    10.0   .     S
V3     Er34    10.0   .     S
V3     V7    10.0   .     S
V4     Er10    10.0   .     S
V4     V8    10.0   .     S
V5     V6    10.0   1_556     S
V5     Er32    10.0   1_556     S
V5     V7    10.0   .     S
V6     V5    10.0   1_554     S
V6     Er14    10.0   1_554     S
V6     V8    10.0   .     S
V7     V8    10.0   .     S
V7     Er32    10.0   .     S
V8     Er14    10.0   .     S
Er9     Er10    9.999   .     S
Er9     Er12    10.0   .     S
Er9     V15    10.0   1_556     S
Er9     V17    10.0   .     S
Er10     V2    10.0   1_556     S
Er10     Er14    10.0   .     S
Er11     Er12    9.999   .     S
Er11     Er13    10.0   .     S
Er11     V28    10.0   .     S
Er11     V30    10.0   1_556     S
Er12     V19    10.0   1_556     S
Er12     V21    10.0   .     S
Er13     Er14    9.999   .     S
Er13     V24    10.0   .     S
Er13     V26    10.0   1_556     S
Er14     V6    10.0   1_556     S
V15     V16    10.0   1_564     S
V15     Er9    10.0   1_554     S
V15     V17    10.0   .     S
V15     V19    10.0   .     S
V16     V15    10.0   1_546     S
V16     Er36    10.0   1_556     S
V16     V18    10.0   .     S
V16     V20    10.0   .     S
V17     V18    10.0   1_565     S
V17     V21    10.0   .     S
V18     V17    10.0   1_545     S
V18     Er36    10.0   .     S
V18     V22    10.0   .     S
V19     V20    10.0   1_564     S
V19     Er12    10.0   1_554     S
V19     V21    10.0   .     S
V20     V19    10.0   1_546     S
V20     Er31    10.0   1_556     S
V20     V22    10.0   .     S
V21     V22    10.0   1_565     S
V22     V21    10.0   1_545     S
V22     Er31    10.0   .     S
V23     V24    10.0   1_655     S
V23     Er35    10.0   .     S
V23     V25    10.0   .     S
V23     V27    10.0   .     S
V24     V23    10.0   1_455     S
V24     V26    10.0   .     S
V24     V28    10.0   .     S
V25     V26    10.0   1_656     S
V25     Er35    10.0   1_556     S
V25     V29    10.0   .     S
V26     V25    10.0   1_454     S
V26     Er13    10.0   1_554     S
V26     V30    10.0   .     S
V27     V28    10.0   1_655     S
V27     Er33    10.0   .     S
V27     V29    10.0   .     S
V28     V27    10.0   1_455     S
V28     V30    10.0   .     S
V29     V30    10.0   1_656     S
V29     Er33    10.0   1_556     S
V30     V29    10.0   1_454     S
V30     Er11    10.0   1_554     S
Er31     V20    10.0   1_554     S
Er31     Er32    9.999   .     S
Er31     Er36    10.0   .     S
Er32     V5    10.0   1_554     S
Er32     Er34    10.0   .     S
Er33     V29    10.0   1_554     S
Er33     Er34    9.999   .     S
Er33     Er35    10.0   .     S
Er34     V1    10.0   1_554     S
Er35     V25    10.0   1_554     S
Er35     Er36    9.999   .     S
Er36     V16    10.0   1_554     S
