data_fti
_audit_creation_date              2020-02-04
_audit_creation_method            'Pymatgen'
_symmetry_space_group_name_H-M    'P1'
_symmetry_Int_Tables_number       1
loop_
_symmetry_equiv_pos_as_xyz
  x,y,z
_cell_length_a                    70.9592
_cell_length_b                    70.9592
_cell_length_c                    29.9388
_cell_angle_alpha                 90.0
_cell_angle_beta                 90.0
_cell_angle_gamma                 90.0
loop_
_atom_site_label
_atom_site_type_symbol
_atom_site_fract_x
_atom_site_fract_y
_atom_site_fract_z
V1     V     0.7434   0.8431   0.333
V2     V     0.6569   0.7566   0.167
V3     V     0.8431   0.7434   0.333
V4     V     0.7566   0.6569   0.167
V5     V     0.8431   0.7434   0.667
V6     V     0.7566   0.6569   0.833
V7     V     0.6569   0.7566   0.833
V8     V     0.7434   0.8431   0.667
Er9     Er     0.9295   0.8299   0.167
Er10     Er     0.0705   0.8299   0.167
Er11     Er     0.1701   0.9295   0.167
Er12     Er     0.1701   0.0705   0.167
Er13     Er     0.9295   0.1701   0.167
Er14     Er     0.0705   0.1701   0.167
Er15     Er     0.8299   0.9295   0.167
Er16     Er     0.8299   0.0705   0.167
Er17     Er     0.8299   0.9295   0.833
Er18     Er     0.8299   0.0705   0.833
Er19     Er     0.1701   0.9295   0.833
Er20     Er     0.1701   0.0705   0.833
Er21     Er     0.9295   0.1701   0.833
Er22     Er     0.0705   0.1701   0.833
Er23     Er     0.9295   0.8299   0.833
Er24     Er     0.0705   0.8299   0.833
V25     V     0.2566   0.1569   0.333
V26     V     0.3431   0.2434   0.167
V27     V     0.1569   0.2566   0.333
V28     V     0.2434   0.3431   0.167
V29     V     0.2566   0.1569   0.667
V30     V     0.3431   0.2434   0.833
V31     V     0.1569   0.2566   0.667
V32     V     0.2434   0.3431   0.833
V33     V     0.1569   0.7434   0.333
V34     V     0.2434   0.6569   0.167
V35     V     0.3431   0.7566   0.167
V36     V     0.2566   0.8431   0.333
V37     V     0.1569   0.7434   0.667
V38     V     0.2434   0.6569   0.833
V39     V     0.3431   0.7566   0.833
V40     V     0.2566   0.8431   0.667
Er41     Er     0.6701   0.4295   0.333
Er42     Er     0.6701   0.5705   0.333
Er43     Er     0.4295   0.6701   0.333
Er44     Er     0.5705   0.6701   0.333
Er45     Er     0.3299   0.4295   0.333
Er46     Er     0.3299   0.5705   0.333
Er47     Er     0.5705   0.3299   0.333
Er48     Er     0.4295   0.3299   0.333
Er49     Er     0.4295   0.3299   0.667
Er50     Er     0.5705   0.3299   0.667
Er51     Er     0.3299   0.5705   0.667
Er52     Er     0.3299   0.4295   0.667
Er53     Er     0.6701   0.5705   0.667
Er54     Er     0.6701   0.4295   0.667
Er55     Er     0.5705   0.6701   0.667
Er56     Er     0.4295   0.6701   0.667
V57     V     0.7434   0.1569   0.333
V58     V     0.6569   0.2434   0.167
V59     V     0.7566   0.3431   0.167
V60     V     0.8431   0.2566   0.333
V61     V     0.7434   0.1569   0.667
V62     V     0.6569   0.2434   0.833
V63     V     0.7566   0.3431   0.833
V64     V     0.8431   0.2566   0.667
loop_
_geom_bond_atom_site_label_1
_geom_bond_atom_site_label_2
_geom_bond_distance
_geom_bond_site_symmetry_2
_ccdc_geom_bond_type
V1     V2    10.0   .     S
V1     V3    10.0   .     S
V1     V8    10.0   .     S
V1     Er15    10.0   .     S
V2     V4    10.0   .     S
V2     V7    10.0   1_554     S
V2     Er44    10.0   .     S
V3     V4    10.0   .     S
V3     V5    10.0   .     S
V3     Er9    10.0   .     S
V4     V6    10.0   1_554     S
V4     Er42    10.0   .     S
V5     V6    10.0   .     S
V5     V8    10.0   .     S
V5     Er23    10.0   .     S
V6     V7    10.0   .     S
V6     V4    10.0   1_556     S
V6     Er53    10.0   .     S
V7     V8    10.0   .     S
V7     V2    10.0   1_556     S
V7     Er55    10.0   .     S
V8     Er17    10.0   .     S
Er9     Er10    10.0   1_655     S
Er9     Er15    10.0   .     S
Er9     Er23    10.0   1_554     S
Er10     Er9    10.0   1_455     S
Er10     Er11    10.0   .     S
Er10     Er24    10.0   1_554     S
Er10     V33    10.0   .     S
Er11     Er12    10.0   1_565     S
Er11     Er19    10.0   1_554     S
Er11     V36    10.0   .     S
Er12     Er11    10.0   1_545     S
Er12     Er14    10.0   .     S
Er12     Er20    10.0   1_554     S
Er12     V25    10.0   .     S
Er13     Er14    10.0   1_655     S
Er13     Er16    10.0   .     S
Er13     Er21    10.0   1_554     S
Er13     V60    10.0   .     S
Er14     Er13    10.0   1_455     S
Er14     Er22    10.0   1_554     S
Er14     V27    10.0   .     S
Er15     Er16    10.0   1_565     S
Er15     Er17    10.0   1_554     S
Er16     Er15    10.0   1_545     S
Er16     Er18    10.0   1_554     S
Er16     V57    10.0   .     S
Er17     Er18    10.0   1_565     S
Er17     Er23    10.0   .     S
Er17     Er15    10.0   1_556     S
Er18     Er17    10.0   1_545     S
Er18     Er21    10.0   .     S
Er18     Er16    10.0   1_556     S
Er18     V61    10.0   .     S
Er19     Er20    10.0   1_565     S
Er19     Er24    10.0   .     S
Er19     Er11    10.0   1_556     S
Er19     V40    10.0   .     S
Er20     Er19    10.0   1_545     S
Er20     Er22    10.0   .     S
Er20     Er12    10.0   1_556     S
Er20     V29    10.0   .     S
Er21     Er22    10.0   1_655     S
Er21     Er13    10.0   1_556     S
Er21     V64    10.0   .     S
Er22     Er21    10.0   1_455     S
Er22     Er14    10.0   1_556     S
Er22     V31    10.0   .     S
Er23     Er24    10.0   1_655     S
Er23     Er9    10.0   1_556     S
Er24     Er23    10.0   1_455     S
Er24     Er10    10.0   1_556     S
Er24     V37    10.0   .     S
V25     V26    10.0   .     S
V25     V27    10.0   .     S
V25     V29    10.0   .     S
V26     V28    10.0   .     S
V26     V30    10.0   1_554     S
V26     Er48    10.0   .     S
V27     V28    10.0   .     S
V27     V31    10.0   .     S
V28     V32    10.0   1_554     S
V28     Er45    10.0   .     S
V29     V30    10.0   .     S
V29     V31    10.0   .     S
V30     V32    10.0   .     S
V30     V26    10.0   1_556     S
V30     Er49    10.0   .     S
V31     V32    10.0   .     S
V32     V28    10.0   1_556     S
V32     Er52    10.0   .     S
V33     V34    10.0   .     S
V33     V36    10.0   .     S
V33     V37    10.0   .     S
V34     V35    10.0   .     S
V34     V38    10.0   1_554     S
V34     Er46    10.0   .     S
V35     V36    10.0   .     S
V35     V39    10.0   1_554     S
V35     Er43    10.0   .     S
V36     V40    10.0   .     S
V37     V38    10.0   .     S
V37     V40    10.0   .     S
V38     V39    10.0   .     S
V38     V34    10.0   1_556     S
V38     Er51    10.0   .     S
V39     V40    10.0   .     S
V39     V35    10.0   1_556     S
V39     Er56    10.0   .     S
Er41     Er42    10.0   .     S
Er41     Er47    10.0   .     S
Er41     Er54    10.0   .     S
Er41     V59    10.0   .     S
Er42     Er44    10.0   .     S
Er42     Er53    10.0   .     S
Er43     Er44    10.0   .     S
Er43     Er46    10.0   .     S
Er43     Er56    10.0   .     S
Er44     Er55    10.0   .     S
Er45     Er46    10.0   .     S
Er45     Er48    10.0   .     S
Er45     Er52    10.0   .     S
Er46     Er51    10.0   .     S
Er47     Er48    10.0   .     S
Er47     Er50    10.0   .     S
Er47     V58    10.0   .     S
Er48     Er49    10.0   .     S
Er49     Er50    10.0   .     S
Er49     Er52    10.0   .     S
Er50     Er54    10.0   .     S
Er50     V62    10.0   .     S
Er51     Er52    10.0   .     S
Er51     Er56    10.0   .     S
Er53     Er54    10.0   .     S
Er53     Er55    10.0   .     S
Er54     V63    10.0   .     S
Er55     Er56    10.0   .     S
V57     V58    10.0   .     S
V57     V60    10.0   .     S
V57     V61    10.0   .     S
V58     V59    10.0   .     S
V58     V62    10.0   1_554     S
V59     V60    10.0   .     S
V59     V63    10.0   1_554     S
V60     V64    10.0   .     S
V61     V62    10.0   .     S
V61     V64    10.0   .     S
V62     V63    10.0   .     S
V62     V58    10.0   1_556     S
V63     V64    10.0   .     S
V63     V59    10.0   1_556     S
