data_ftj
_audit_creation_date              2020-02-04
_audit_creation_method            'Pymatgen'
_symmetry_space_group_name_H-M    'P1'
_symmetry_Int_Tables_number       1
loop_
_symmetry_equiv_pos_as_xyz
  x,y,z
_cell_length_a                    39.843
_cell_length_b                    39.843
_cell_length_c                    63.0806
_cell_angle_alpha                 90.0
_cell_angle_beta                 90.0
_cell_angle_gamma                 90.0
loop_
_atom_site_label
_atom_site_type_symbol
_atom_site_fract_x
_atom_site_fract_y
_atom_site_fract_z
V1     V     0.3745   0.803   0.8225
V2     V     0.6255   0.803   0.8225
V3     V     0.697   0.1255   0.6775
V4     V     0.697   0.8745   0.6775
V5     V     0.303   0.8745   0.6775
V6     V     0.303   0.1255   0.6775
V7     V     0.3745   0.197   0.8225
V8     V     0.6255   0.197   0.8225
Er9     Er     0.3745   0.0   0.9207
Er10     Er     0.3745   0.0   0.0793
Er11     Er     0.6255   0.0   0.9207
Er12     Er     0.6255   0.0   0.0793
Er13     Er     0.5   0.8745   0.5793
Er14     Er     0.5   0.8745   0.4207
Er15     Er     0.5   0.1255   0.5793
Er16     Er     0.5   0.1255   0.4207
V17     V     0.6255   0.197   0.1775
V18     V     0.3745   0.197   0.1775
V19     V     0.697   0.1255   0.3225
V20     V     0.697   0.8745   0.3225
V21     V     0.3745   0.803   0.1775
V22     V     0.6255   0.803   0.1775
V23     V     0.303   0.1255   0.3225
V24     V     0.303   0.8745   0.3225
V25     V     0.803   0.6255   0.8225
V26     V     0.803   0.3745   0.8225
V27     V     0.197   0.6255   0.8225
V28     V     0.197   0.3745   0.8225
V29     V     0.1255   0.303   0.6775
V30     V     0.8745   0.303   0.6775
V31     V     0.8745   0.697   0.6775
V32     V     0.1255   0.697   0.6775
Er33     Er     0.0   0.6255   0.9207
Er34     Er     0.0   0.6255   0.0793
Er35     Er     0.0   0.3745   0.9207
Er36     Er     0.0   0.3745   0.0793
Er37     Er     0.1255   0.5   0.5793
Er38     Er     0.1255   0.5   0.4207
Er39     Er     0.8745   0.5   0.5793
Er40     Er     0.8745   0.5   0.4207
V41     V     0.1255   0.697   0.3225
V42     V     0.8745   0.697   0.3225
V43     V     0.803   0.6255   0.1775
V44     V     0.803   0.3745   0.1775
V45     V     0.197   0.6255   0.1775
V46     V     0.197   0.3745   0.1775
V47     V     0.8745   0.303   0.3225
V48     V     0.1255   0.303   0.3225
loop_
_geom_bond_atom_site_label_1
_geom_bond_atom_site_label_2
_geom_bond_distance
_geom_bond_site_symmetry_2
_ccdc_geom_bond_type
V1     Er9    10.0   1_565     S
V1     V2    10.0   .     S
V1     V5    10.0   .     S
V1     V27    10.0   .     S
V2     Er11    10.0   1_565     S
V2     V4    10.0   .     S
V2     V25    10.0   .     S
V3     Er15    10.0   .     S
V3     V4    10.0   1_545     S
V3     V8    10.0   .     S
V3     V30    10.0   .     S
V4     Er13    10.0   .     S
V4     V3    10.0   1_565     S
V4     V31    10.0   .     S
V5     Er13    10.0   .     S
V5     V6    10.0   1_565     S
V5     V32    10.0   .     S
V6     Er15    10.0   .     S
V6     V5    10.0   1_545     S
V6     V7    10.0   .     S
V6     V29    10.0   .     S
V7     Er9    10.0   .     S
V7     V8    10.0   .     S
V7     V28    10.0   .     S
V8     Er11    10.0   .     S
V8     V26    10.0   .     S
Er9     V1    10.0   1_545     S
Er9     Er10    10.0   1_556     S
Er9     Er11    10.0   .     S
Er10     Er9    10.0   1_554     S
Er10     Er12    10.0   .     S
Er10     V18    10.0   .     S
Er10     V21    10.0   1_545     S
Er11     V2    10.0   1_545     S
Er11     Er12    10.0   1_556     S
Er12     Er11    10.0   1_554     S
Er12     V17    10.0   .     S
Er12     V22    10.0   1_545     S
Er13     Er14    10.0   .     S
Er13     Er15    10.0   1_565     S
Er14     Er16    10.0   1_565     S
Er14     V20    10.0   .     S
Er14     V24    10.0   .     S
Er15     Er16    10.0   .     S
Er15     Er13    10.0   1_545     S
Er16     Er14    10.0   1_545     S
Er16     V19    10.0   .     S
Er16     V23    10.0   .     S
V17     V18    10.0   .     S
V17     V19    10.0   .     S
V17     V44    10.0   .     S
V18     V23    10.0   .     S
V18     V46    10.0   .     S
V19     V20    10.0   1_545     S
V19     V47    10.0   .     S
V20     V19    10.0   1_565     S
V20     V22    10.0   .     S
V20     V42    10.0   .     S
V21     Er10    10.0   1_565     S
V21     V22    10.0   .     S
V21     V24    10.0   .     S
V21     V45    10.0   .     S
V22     Er12    10.0   1_565     S
V22     V43    10.0   .     S
V23     V24    10.0   1_545     S
V23     V48    10.0   .     S
V24     V23    10.0   1_565     S
V24     V41    10.0   .     S
V25     Er33    10.0   1_655     S
V25     V26    10.0   .     S
V25     V31    10.0   .     S
V26     Er35    10.0   1_655     S
V26     V30    10.0   .     S
V27     Er33    10.0   .     S
V27     V28    10.0   .     S
V27     V32    10.0   .     S
V28     Er35    10.0   .     S
V28     V29    10.0   .     S
V29     Er37    10.0   .     S
V29     V30    10.0   1_455     S
V30     Er39    10.0   .     S
V30     V29    10.0   1_655     S
V31     Er39    10.0   .     S
V31     V32    10.0   1_655     S
V32     Er37    10.0   .     S
V32     V31    10.0   1_455     S
Er33     V25    10.0   1_455     S
Er33     Er34    10.0   1_556     S
Er33     Er35    10.0   .     S
Er34     Er33    10.0   1_554     S
Er34     Er36    10.0   .     S
Er34     V43    10.0   1_455     S
Er34     V45    10.0   .     S
Er35     V26    10.0   1_455     S
Er35     Er36    10.0   1_556     S
Er36     Er35    10.0   1_554     S
Er36     V44    10.0   1_455     S
Er36     V46    10.0   .     S
Er37     Er38    10.0   .     S
Er37     Er39    10.0   1_455     S
Er38     Er40    10.0   1_455     S
Er38     V41    10.0   .     S
Er38     V48    10.0   .     S
Er39     Er40    10.0   .     S
Er39     Er37    10.0   1_655     S
Er40     Er38    10.0   1_655     S
Er40     V42    10.0   .     S
Er40     V47    10.0   .     S
V41     V42    10.0   1_455     S
V41     V45    10.0   .     S
V42     V41    10.0   1_655     S
V42     V43    10.0   .     S
V43     Er34    10.0   1_655     S
V43     V44    10.0   .     S
V44     Er36    10.0   1_655     S
V44     V47    10.0   .     S
V45     V46    10.0   .     S
V46     V48    10.0   .     S
V47     V48    10.0   1_655     S
V48     V47    10.0   1_455     S
