data_ftk
_audit_creation_date              2020-02-04
_audit_creation_method            'Pymatgen'
_symmetry_space_group_name_H-M    'P1'
_symmetry_Int_Tables_number       1
loop_
_symmetry_equiv_pos_as_xyz
  x,y,z
_cell_length_a                    50.3624
_cell_length_b                    50.3624
_cell_length_c                    29.1467
_cell_angle_alpha                 90.0
_cell_angle_beta                 90.0
_cell_angle_gamma                 90.0
loop_
_atom_site_label
_atom_site_type_symbol
_atom_site_fract_x
_atom_site_fract_y
_atom_site_fract_z
Er1     Er     0.0993   0.5993   0.1716
V2     V     0.0993   0.7759   0.3284
V3     V     0.2241   0.9007   0.1716
Er4     Er     0.4007   0.9007   0.3284
Er5     Er     0.9007   0.5993   0.1716
V6     V     0.7759   0.9007   0.1716
V7     V     0.9007   0.7759   0.3284
Er8     Er     0.5993   0.9007   0.3284
V9     V     0.2241   0.0993   0.1716
V10     V     0.0993   0.2241   0.3284
Er11     Er     0.0993   0.4007   0.1716
Er12     Er     0.4007   0.0993   0.3284
Er13     Er     0.5993   0.0993   0.3284
V14     V     0.7759   0.0993   0.1716
V15     V     0.9007   0.2241   0.3284
Er16     Er     0.9007   0.4007   0.1716
V17     V     0.0993   0.2241   0.6716
V18     V     0.2241   0.0993   0.8284
Er19     Er     0.4007   0.0993   0.6716
Er20     Er     0.0993   0.4007   0.8284
V21     V     0.0993   0.7759   0.6716
V22     V     0.2241   0.9007   0.8284
Er23     Er     0.0993   0.5993   0.8284
Er24     Er     0.4007   0.9007   0.6716
Er25     Er     0.5993   0.9007   0.6716
V26     V     0.9007   0.7759   0.6716
V27     V     0.7759   0.9007   0.8284
Er28     Er     0.9007   0.5993   0.8284
Er29     Er     0.5993   0.0993   0.6716
V30     V     0.9007   0.2241   0.6716
V31     V     0.7759   0.0993   0.8284
Er32     Er     0.9007   0.4007   0.8284
loop_
_geom_bond_atom_site_label_1
_geom_bond_atom_site_label_2
_geom_bond_distance
_geom_bond_site_symmetry_2
_ccdc_geom_bond_type
Er1     V2    10.0   .     S
Er1     Er5    10.0   1_455     S
Er1     Er11    10.0   .     S
Er1     Er23    10.0   1_554     S
V2     V3    10.0   .     S
V2     V7    10.0   1_455     S
V2     V21    10.0   .     S
V3     Er4    10.0   .     S
V3     V9    10.0   1_565     S
V3     V22    10.0   1_554     S
Er4     Er8    10.0   .     S
Er4     Er12    10.0   1_565     S
Er4     Er24    10.0   .     S
Er5     Er1    10.0   1_655     S
Er5     V7    10.0   .     S
Er5     Er16    10.0   .     S
Er5     Er28    10.0   1_554     S
V6     V7    10.0   .     S
V6     Er8    10.0   .     S
V6     V14    10.0   1_565     S
V6     V27    10.0   1_554     S
V7     V2    10.0   1_655     S
V7     V26    10.0   .     S
Er8     Er13    10.0   1_565     S
Er8     Er25    10.0   .     S
V9     V10    10.0   .     S
V9     Er12    10.0   .     S
V9     V3    10.0   1_545     S
V9     V18    10.0   1_554     S
V10     Er11    10.0   .     S
V10     V15    10.0   1_455     S
V10     V17    10.0   .     S
Er11     Er16    10.0   1_455     S
Er11     Er20    10.0   1_554     S
Er12     Er13    10.0   .     S
Er12     Er4    10.0   1_545     S
Er12     Er19    10.0   .     S
Er13     V14    10.0   .     S
Er13     Er8    10.0   1_545     S
Er13     Er29    10.0   .     S
V14     V15    10.0   .     S
V14     V6    10.0   1_545     S
V14     V31    10.0   1_554     S
V15     V10    10.0   1_655     S
V15     Er16    10.0   .     S
V15     V30    10.0   .     S
Er16     Er11    10.0   1_655     S
Er16     Er32    10.0   1_554     S
V17     V18    10.0   .     S
V17     Er20    10.0   .     S
V17     V30    10.0   1_455     S
V18     Er19    10.0   .     S
V18     V22    10.0   1_545     S
V18     V9    10.0   1_556     S
Er19     Er29    10.0   .     S
Er19     Er24    10.0   1_545     S
Er20     Er23    10.0   .     S
Er20     Er32    10.0   1_455     S
Er20     Er11    10.0   1_556     S
V21     V22    10.0   .     S
V21     Er23    10.0   .     S
V21     V26    10.0   1_455     S
V22     V18    10.0   1_565     S
V22     Er24    10.0   .     S
V22     V3    10.0   1_556     S
Er23     Er28    10.0   1_455     S
Er23     Er1    10.0   1_556     S
Er24     Er19    10.0   1_565     S
Er24     Er25    10.0   .     S
Er25     V27    10.0   .     S
Er25     Er29    10.0   1_565     S
V26     V21    10.0   1_655     S
V26     V27    10.0   .     S
V26     Er28    10.0   .     S
V27     V31    10.0   1_565     S
V27     V6    10.0   1_556     S
Er28     Er23    10.0   1_655     S
Er28     Er32    10.0   .     S
Er28     Er5    10.0   1_556     S
Er29     V31    10.0   .     S
Er29     Er25    10.0   1_545     S
V30     V17    10.0   1_655     S
V30     V31    10.0   .     S
V30     Er32    10.0   .     S
V31     V27    10.0   1_545     S
V31     V14    10.0   1_556     S
Er32     Er20    10.0   1_655     S
Er32     Er16    10.0   1_556     S
