data_ftm
_audit_creation_date              2020-02-04
_audit_creation_method            'Pymatgen'
_symmetry_space_group_name_H-M    'P1'
_symmetry_Int_Tables_number       1
loop_
_symmetry_equiv_pos_as_xyz
  x,y,z
_cell_length_a                    105.2392
_cell_length_b                    105.2392
_cell_length_c                    105.2392
_cell_angle_alpha                 90.0
_cell_angle_beta                 90.0
_cell_angle_gamma                 90.0
loop_
_atom_site_label
_atom_site_type_symbol
_atom_site_fract_x
_atom_site_fract_y
_atom_site_fract_z
Er1     Er     0.294   0.3612   0.1134
Er2     Er     0.206   0.3866   0.1388
Er3     Er     0.3866   0.206   0.1388
Er4     Er     0.3612   0.294   0.1134
Er5     Er     0.1134   0.3612   0.294
Er6     Er     0.1388   0.3866   0.206
Er7     Er     0.1388   0.206   0.3866
Er8     Er     0.1134   0.294   0.3612
Er9     Er     0.294   0.1134   0.3612
Er10     Er     0.206   0.1388   0.3866
Er11     Er     0.3866   0.1388   0.206
Er12     Er     0.3612   0.1134   0.294
V13     V     0.5475   0.268   0.1097
V14     V     0.6097   0.232   0.0475
V15     V     0.6097   0.232   0.9525
V16     V     0.5475   0.268   0.8903
V17     V     0.3903   0.232   0.0475
V18     V     0.4525   0.268   0.1097
V19     V     0.3903   0.232   0.9525
V20     V     0.4525   0.268   0.8903
V21     V     0.268   0.5475   0.1097
V22     V     0.232   0.6097   0.0475
V23     V     0.232   0.6097   0.9525
V24     V     0.268   0.5475   0.8903
V25     V     0.232   0.3903   0.0475
V26     V     0.268   0.4525   0.1097
V27     V     0.232   0.3903   0.9525
V28     V     0.268   0.4525   0.8903
V29     V     0.1097   0.5475   0.268
V30     V     0.0475   0.6097   0.232
V31     V     0.9525   0.6097   0.232
V32     V     0.8903   0.5475   0.268
V33     V     0.0475   0.3903   0.232
V34     V     0.1097   0.4525   0.268
V35     V     0.9525   0.3903   0.232
V36     V     0.8903   0.4525   0.268
V37     V     0.5475   0.1097   0.268
V38     V     0.6097   0.0475   0.232
V39     V     0.6097   0.9525   0.232
V40     V     0.5475   0.8903   0.268
V41     V     0.3903   0.0475   0.232
V42     V     0.4525   0.1097   0.268
V43     V     0.3903   0.9525   0.232
V44     V     0.4525   0.8903   0.268
V45     V     0.268   0.1097   0.5475
V46     V     0.232   0.0475   0.6097
V47     V     0.232   0.9525   0.6097
V48     V     0.268   0.8903   0.5475
V49     V     0.232   0.0475   0.3903
V50     V     0.268   0.1097   0.4525
V51     V     0.232   0.9525   0.3903
V52     V     0.268   0.8903   0.4525
V53     V     0.1097   0.268   0.5475
V54     V     0.0475   0.232   0.6097
V55     V     0.8903   0.268   0.5475
V56     V     0.9525   0.232   0.6097
V57     V     0.0475   0.232   0.3903
V58     V     0.1097   0.268   0.4525
V59     V     0.9525   0.232   0.3903
V60     V     0.8903   0.268   0.4525
Er61     Er     0.794   0.3866   0.1388
Er62     Er     0.706   0.3612   0.1134
Er63     Er     0.8866   0.3612   0.294
Er64     Er     0.8612   0.3866   0.206
Er65     Er     0.8866   0.294   0.3612
Er66     Er     0.8612   0.206   0.3866
Er67     Er     0.794   0.1388   0.3866
Er68     Er     0.706   0.1134   0.3612
Er69     Er     0.6388   0.1134   0.294
Er70     Er     0.6134   0.1388   0.206
Er71     Er     0.6388   0.294   0.1134
Er72     Er     0.6134   0.206   0.1388
Er73     Er     0.3866   0.1388   0.794
Er74     Er     0.3612   0.1134   0.706
Er75     Er     0.3612   0.294   0.8866
Er76     Er     0.3866   0.206   0.8612
Er77     Er     0.294   0.3612   0.8866
Er78     Er     0.206   0.3866   0.8612
Er79     Er     0.1388   0.3866   0.794
Er80     Er     0.1134   0.3612   0.706
Er81     Er     0.294   0.1134   0.6388
Er82     Er     0.206   0.1388   0.6134
Er83     Er     0.1134   0.294   0.6388
Er84     Er     0.1388   0.206   0.6134
Er85     Er     0.1388   0.794   0.3866
Er86     Er     0.1134   0.706   0.3612
Er87     Er     0.294   0.8866   0.3612
Er88     Er     0.206   0.8612   0.3866
Er89     Er     0.3612   0.8866   0.294
Er90     Er     0.3866   0.8612   0.206
Er91     Er     0.3866   0.794   0.1388
Er92     Er     0.3612   0.706   0.1134
Er93     Er     0.1134   0.6388   0.294
Er94     Er     0.1388   0.6134   0.206
Er95     Er     0.294   0.6388   0.1134
Er96     Er     0.206   0.6134   0.1388
Er97     Er     0.6388   0.8866   0.294
Er98     Er     0.6134   0.8612   0.206
Er99     Er     0.6388   0.706   0.1134
Er100     Er     0.6134   0.794   0.1388
Er101     Er     0.8866   0.6388   0.294
Er102     Er     0.8612   0.6134   0.206
Er103     Er     0.706   0.6388   0.1134
Er104     Er     0.794   0.6134   0.1388
Er105     Er     0.706   0.8866   0.3612
Er106     Er     0.794   0.8612   0.3866
Er107     Er     0.8866   0.706   0.3612
Er108     Er     0.8612   0.794   0.3866
Er109     Er     0.294   0.6388   0.8866
Er110     Er     0.206   0.6134   0.8612
Er111     Er     0.1134   0.6388   0.706
Er112     Er     0.1388   0.6134   0.794
Er113     Er     0.294   0.8866   0.6388
Er114     Er     0.206   0.8612   0.6134
Er115     Er     0.1134   0.706   0.6388
Er116     Er     0.1388   0.794   0.6134
Er117     Er     0.3612   0.706   0.8866
Er118     Er     0.3866   0.794   0.8612
Er119     Er     0.3612   0.8866   0.706
Er120     Er     0.3866   0.8612   0.794
V121     V     0.768   0.6097   0.0475
V122     V     0.732   0.5475   0.1097
V123     V     0.768   0.6097   0.9525
V124     V     0.732   0.5475   0.8903
V125     V     0.768   0.3903   0.0475
V126     V     0.732   0.4525   0.1097
V127     V     0.768   0.3903   0.9525
V128     V     0.732   0.4525   0.8903
V129     V     0.0475   0.768   0.6097
V130     V     0.1097   0.732   0.5475
V131     V     0.9525   0.768   0.6097
V132     V     0.8903   0.732   0.5475
V133     V     0.0475   0.768   0.3903
V134     V     0.1097   0.732   0.4525
V135     V     0.9525   0.768   0.3903
V136     V     0.8903   0.732   0.4525
V137     V     0.6097   0.768   0.0475
V138     V     0.5475   0.732   0.1097
V139     V     0.6097   0.768   0.9525
V140     V     0.5475   0.732   0.8903
V141     V     0.3903   0.768   0.0475
V142     V     0.4525   0.732   0.1097
V143     V     0.3903   0.768   0.9525
V144     V     0.4525   0.732   0.8903
V145     V     0.0475   0.6097   0.768
V146     V     0.1097   0.5475   0.732
V147     V     0.9525   0.6097   0.768
V148     V     0.8903   0.5475   0.732
V149     V     0.0475   0.3903   0.768
V150     V     0.1097   0.4525   0.732
V151     V     0.9525   0.3903   0.768
V152     V     0.8903   0.4525   0.732
Er153     Er     0.6388   0.8866   0.706
Er154     Er     0.6134   0.8612   0.794
Er155     Er     0.6388   0.706   0.8866
Er156     Er     0.6134   0.794   0.8612
Er157     Er     0.706   0.6388   0.8866
Er158     Er     0.794   0.6134   0.8612
Er159     Er     0.8866   0.6388   0.706
Er160     Er     0.8612   0.6134   0.794
Er161     Er     0.8866   0.706   0.6388
Er162     Er     0.8612   0.794   0.6134
Er163     Er     0.706   0.8866   0.6388
Er164     Er     0.794   0.8612   0.6134
V165     V     0.768   0.0475   0.6097
V166     V     0.732   0.1097   0.5475
V167     V     0.768   0.9525   0.6097
V168     V     0.732   0.8903   0.5475
V169     V     0.768   0.0475   0.3903
V170     V     0.732   0.1097   0.4525
V171     V     0.768   0.9525   0.3903
V172     V     0.732   0.8903   0.4525
V173     V     0.6097   0.0475   0.768
V174     V     0.5475   0.1097   0.732
V175     V     0.6097   0.9525   0.768
V176     V     0.5475   0.8903   0.732
V177     V     0.3903   0.0475   0.768
V178     V     0.4525   0.1097   0.732
V179     V     0.3903   0.9525   0.768
V180     V     0.4525   0.8903   0.732
Er181     Er     0.6388   0.294   0.8866
Er182     Er     0.6134   0.206   0.8612
Er183     Er     0.6388   0.1134   0.706
Er184     Er     0.6134   0.1388   0.794
Er185     Er     0.706   0.1134   0.6388
Er186     Er     0.794   0.1388   0.6134
Er187     Er     0.8866   0.294   0.6388
Er188     Er     0.8612   0.206   0.6134
Er189     Er     0.8866   0.3612   0.706
Er190     Er     0.8612   0.3866   0.794
Er191     Er     0.706   0.3612   0.8866
Er192     Er     0.794   0.3866   0.8612
loop_
_geom_bond_atom_site_label_1
_geom_bond_atom_site_label_2
_geom_bond_distance
_geom_bond_site_symmetry_2
_ccdc_geom_bond_type
Er1     Er2    10.0   .     S
Er1     V26    10.001   .     S
Er1     V25    10.0   .     S
Er1     Er4    10.0   .     S
Er2     V25    10.001   .     S
Er2     V26    10.0   .     S
Er2     Er6    10.0   .     S
Er3     Er4    10.0   .     S
Er3     V17    10.001   .     S
Er3     V18    10.0   .     S
Er3     Er11    10.0   .     S
Er4     V18    10.001   .     S
Er4     V17    10.0   .     S
Er5     Er6    10.0   .     S
Er5     V34    10.001   .     S
Er5     V33    10.0   .     S
Er5     Er8    10.0   .     S
Er6     V33    10.001   .     S
Er6     V34    10.0   .     S
Er7     Er8    10.0   .     S
Er7     V57    10.001   .     S
Er7     V58    10.0   .     S
Er7     Er10    10.0   .     S
Er8     V58    10.001   .     S
Er8     V57    10.0   .     S
Er9     Er10    10.0   .     S
Er9     V50    10.001   .     S
Er9     V49    10.0   .     S
Er9     Er12    10.0   .     S
Er10     V49    10.001   .     S
Er10     V50    10.0   .     S
Er11     Er12    10.0   .     S
Er11     V41    10.001   .     S
Er11     V42    10.0   .     S
Er12     V42    10.001   .     S
Er12     V41    10.0   .     S
V13     V14    9.999   .     S
V13     V18    10.0   .     S
V13     Er71    10.001   .     S
V13     Er72    10.0   .     S
V14     V15    10.0   1_554     S
V14     Er72    10.001   .     S
V14     Er71    10.0   .     S
V15     V16    9.999   .     S
V15     V14    10.0   1_556     S
V15     Er182    10.001   .     S
V15     Er181    10.0   .     S
V16     V20    10.0   .     S
V16     Er181    10.001   .     S
V16     Er182    10.0   .     S
V17     V18    9.999   .     S
V17     V19    10.0   1_554     S
V19     V20    9.999   .     S
V19     V17    10.0   1_556     S
V19     Er76    10.001   .     S
V19     Er75    10.0   .     S
V20     Er75    10.001   .     S
V20     Er76    10.0   .     S
V21     V22    9.999   .     S
V21     V26    10.0   .     S
V21     Er95    10.001   .     S
V21     Er96    10.0   .     S
V22     V23    10.0   1_554     S
V22     Er96    10.001   .     S
V22     Er95    10.0   .     S
V23     V24    9.999   .     S
V23     V22    10.0   1_556     S
V23     Er110    10.001   .     S
V23     Er109    10.0   .     S
V24     V28    10.0   .     S
V24     Er109    10.001   .     S
V24     Er110    10.0   .     S
V25     V26    9.999   .     S
V25     V27    10.0   1_554     S
V27     V28    9.999   .     S
V27     V25    10.0   1_556     S
V27     Er78    10.001   .     S
V27     Er77    10.0   .     S
V28     Er77    10.001   .     S
V28     Er78    10.0   .     S
V29     V30    9.999   .     S
V29     V34    10.0   .     S
V29     Er93    10.001   .     S
V29     Er94    10.0   .     S
V30     V31    10.0   1_455     S
V30     Er94    10.001   .     S
V30     Er93    10.0   .     S
V31     V32    9.999   .     S
V31     V30    10.0   1_655     S
V31     Er102    10.001   .     S
V31     Er101    10.0   .     S
V32     V36    10.0   .     S
V32     Er101    10.001   .     S
V32     Er102    10.0   .     S
V33     V34    9.999   .     S
V33     V35    10.0   1_455     S
V35     V36    9.999   .     S
V35     V33    10.0   1_655     S
V35     Er64    10.001   .     S
V35     Er63    10.0   .     S
V36     Er63    10.001   .     S
V36     Er64    10.0   .     S
V37     V38    9.999   .     S
V37     V42    10.0   .     S
V37     Er69    10.001   .     S
V37     Er70    10.0   .     S
V38     V39    10.0   1_545     S
V38     Er70    10.001   .     S
V38     Er69    10.0   .     S
V39     V40    9.999   .     S
V39     V38    10.0   1_565     S
V39     Er98    10.001   .     S
V39     Er97    10.0   .     S
V40     V44    10.0   .     S
V40     Er97    10.001   .     S
V40     Er98    10.0   .     S
V41     V42    9.999   .     S
V41     V43    10.0   1_545     S
V43     V44    9.999   .     S
V43     V41    10.0   1_565     S
V43     Er90    10.001   .     S
V43     Er89    10.0   .     S
V44     Er89    10.001   .     S
V44     Er90    10.0   .     S
V45     V46    9.999   .     S
V45     V50    10.0   .     S
V45     Er81    10.001   .     S
V45     Er82    10.0   .     S
V46     V47    10.0   1_545     S
V46     Er82    10.001   .     S
V46     Er81    10.0   .     S
V47     V48    9.999   .     S
V47     V46    10.0   1_565     S
V47     Er114    10.001   .     S
V47     Er113    10.0   .     S
V48     V52    10.0   .     S
V48     Er113    10.001   .     S
V48     Er114    10.0   .     S
V49     V50    9.999   .     S
V49     V51    10.0   1_545     S
V51     V52    9.999   .     S
V51     V49    10.0   1_565     S
V51     Er88    10.001   .     S
V51     Er87    10.0   .     S
V52     Er87    10.001   .     S
V52     Er88    10.0   .     S
V53     V54    9.999   .     S
V53     V58    10.0   .     S
V53     Er83    10.001   .     S
V53     Er84    10.0   .     S
V54     V56    10.0   1_455     S
V54     Er84    10.001   .     S
V54     Er83    10.0   .     S
V55     V56    9.999   .     S
V55     V60    10.0   .     S
V55     Er187    10.001   .     S
V55     Er188    10.0   .     S
V56     V54    10.0   1_655     S
V56     Er188    10.001   .     S
V56     Er187    10.0   .     S
V57     V58    9.999   .     S
V57     V59    10.0   1_455     S
V59     V60    9.999   .     S
V59     V57    10.0   1_655     S
V59     Er66    10.001   .     S
V59     Er65    10.0   .     S
V60     Er65    10.001   .     S
V60     Er66    10.0   .     S
Er61     Er62    10.0   .     S
Er61     V125    10.001   .     S
Er61     V126    10.0   .     S
Er61     Er64    10.0   .     S
Er62     V126    10.001   .     S
Er62     V125    10.0   .     S
Er62     Er71    10.0   .     S
Er63     Er64    10.0   .     S
Er63     Er65    10.0   .     S
Er65     Er66    10.0   .     S
Er66     Er67    10.0   .     S
Er67     Er68    10.0   .     S
Er67     V169    10.001   .     S
Er67     V170    10.0   .     S
Er68     V170    10.001   .     S
Er68     V169    10.0   .     S
Er68     Er69    10.0   .     S
Er69     Er70    10.0   .     S
Er70     Er72    10.0   .     S
Er71     Er72    10.0   .     S
Er73     Er74    10.0   .     S
Er73     V177    10.001   .     S
Er73     V178    10.0   .     S
Er73     Er76    10.0   .     S
Er74     V178    10.001   .     S
Er74     V177    10.0   .     S
Er74     Er81    10.0   .     S
Er75     Er76    10.0   .     S
Er75     Er77    10.0   .     S
Er77     Er78    10.0   .     S
Er78     Er79    10.0   .     S
Er79     Er80    10.0   .     S
Er79     V149    10.001   .     S
Er79     V150    10.0   .     S
Er80     V150    10.001   .     S
Er80     V149    10.0   .     S
Er80     Er83    10.0   .     S
Er81     Er82    10.0   .     S
Er82     Er84    10.0   .     S
Er83     Er84    10.0   .     S
Er85     Er86    10.0   .     S
Er85     V133    10.001   .     S
Er85     V134    10.0   .     S
Er85     Er88    10.0   .     S
Er86     V134    10.001   .     S
Er86     V133    10.0   .     S
Er86     Er93    10.0   .     S
Er87     Er88    10.0   .     S
Er87     Er89    10.0   .     S
Er89     Er90    10.0   .     S
Er90     Er91    10.0   .     S
Er91     Er92    10.0   .     S
Er91     V141    10.001   .     S
Er91     V142    10.0   .     S
Er92     V142    10.001   .     S
Er92     V141    10.0   .     S
Er92     Er95    10.0   .     S
Er93     Er94    10.0   .     S
Er94     Er96    10.0   .     S
Er95     Er96    10.0   .     S
Er97     Er98    10.0   .     S
Er97     Er105    10.0   .     S
Er98     Er100    10.0   .     S
Er99     Er100    10.0   .     S
Er99     V138    10.001   .     S
Er99     V137    10.0   .     S
Er99     Er103    10.0   .     S
Er100     V137    10.001   .     S
Er100     V138    10.0   .     S
Er101     Er102    10.0   .     S
Er101     Er107    10.0   .     S
Er102     Er104    10.0   .     S
Er103     Er104    10.0   .     S
Er103     V122    10.001   .     S
Er103     V121    10.0   .     S
Er104     V121    10.001   .     S
Er104     V122    10.0   .     S
Er105     Er106    10.0   .     S
Er105     V172    10.001   .     S
Er105     V171    10.0   .     S
Er106     V171    10.001   .     S
Er106     V172    10.0   .     S
Er106     Er108    10.0   .     S
Er107     Er108    10.0   .     S
Er107     V136    10.001   .     S
Er107     V135    10.0   .     S
Er108     V135    10.001   .     S
Er108     V136    10.0   .     S
Er109     Er110    10.0   .     S
Er109     Er117    10.0   .     S
Er110     Er112    10.0   .     S
Er111     Er112    10.0   .     S
Er111     V146    10.001   .     S
Er111     V145    10.0   .     S
Er111     Er115    10.0   .     S
Er112     V145    10.001   .     S
Er112     V146    10.0   .     S
Er113     Er114    10.0   .     S
Er113     Er119    10.0   .     S
Er114     Er116    10.0   .     S
Er115     Er116    10.0   .     S
Er115     V130    10.001   .     S
Er115     V129    10.0   .     S
Er116     V129    10.001   .     S
Er116     V130    10.0   .     S
Er117     Er118    10.0   .     S
Er117     V144    10.001   .     S
Er117     V143    10.0   .     S
Er118     V143    10.001   .     S
Er118     V144    10.0   .     S
Er118     Er120    10.0   .     S
Er119     Er120    10.0   .     S
Er119     V180    10.001   .     S
Er119     V179    10.0   .     S
Er120     V179    10.001   .     S
Er120     V180    10.0   .     S
V121     V122    9.999   .     S
V121     V123    10.0   1_554     S
V122     V126    10.0   .     S
V123     V124    9.999   .     S
V123     V121    10.0   1_556     S
V123     Er158    10.001   .     S
V123     Er157    10.0   .     S
V124     V128    10.0   .     S
V124     Er157    10.001   .     S
V124     Er158    10.0   .     S
V125     V126    9.999   .     S
V125     V127    10.0   1_554     S
V127     V128    9.999   .     S
V127     V125    10.0   1_556     S
V127     Er192    10.001   .     S
V127     Er191    10.0   .     S
V128     Er191    10.001   .     S
V128     Er192    10.0   .     S
V129     V130    9.999   .     S
V129     V131    10.0   1_455     S
V130     V134    10.0   .     S
V131     V132    9.999   .     S
V131     V129    10.0   1_655     S
V131     Er162    10.001   .     S
V131     Er161    10.0   .     S
V132     V136    10.0   .     S
V132     Er161    10.001   .     S
V132     Er162    10.0   .     S
V133     V134    9.999   .     S
V133     V135    10.0   1_455     S
V135     V136    9.999   .     S
V135     V133    10.0   1_655     S
V137     V138    9.999   .     S
V137     V139    10.0   1_554     S
V138     V142    10.0   .     S
V139     V140    9.999   .     S
V139     V137    10.0   1_556     S
V139     Er156    10.001   .     S
V139     Er155    10.0   .     S
V140     V144    10.0   .     S
V140     Er155    10.001   .     S
V140     Er156    10.0   .     S
V141     V142    9.999   .     S
V141     V143    10.0   1_554     S
V143     V144    9.999   .     S
V143     V141    10.0   1_556     S
V145     V146    9.999   .     S
V145     V147    10.0   1_455     S
V146     V150    10.0   .     S
V147     V148    9.999   .     S
V147     V145    10.0   1_655     S
V147     Er160    10.001   .     S
V147     Er159    10.0   .     S
V148     V152    10.0   .     S
V148     Er159    10.001   .     S
V148     Er160    10.0   .     S
V149     V150    9.999   .     S
V149     V151    10.0   1_455     S
V151     V152    9.999   .     S
V151     V149    10.0   1_655     S
V151     Er190    10.001   .     S
V151     Er189    10.0   .     S
V152     Er189    10.001   .     S
V152     Er190    10.0   .     S
Er153     Er154    10.0   .     S
Er153     V176    10.001   .     S
Er153     V175    10.0   .     S
Er153     Er163    10.0   .     S
Er154     V175    10.001   .     S
Er154     V176    10.0   .     S
Er154     Er156    10.0   .     S
Er155     Er156    10.0   .     S
Er155     Er157    10.0   .     S
Er157     Er158    10.0   .     S
Er158     Er160    10.0   .     S
Er159     Er160    10.0   .     S
Er159     Er161    10.0   .     S
Er161     Er162    10.0   .     S
Er162     Er164    10.0   .     S
Er163     Er164    10.0   .     S
Er163     V168    10.001   .     S
Er163     V167    10.0   .     S
Er164     V167    10.001   .     S
Er164     V168    10.0   .     S
V165     V166    9.999   .     S
V165     V167    10.0   1_545     S
V165     Er186    10.001   .     S
V165     Er185    10.0   .     S
V166     V170    10.0   .     S
V166     Er185    10.001   .     S
V166     Er186    10.0   .     S
V167     V168    9.999   .     S
V167     V165    10.0   1_565     S
V168     V172    10.0   .     S
V169     V170    9.999   .     S
V169     V171    10.0   1_545     S
V171     V172    9.999   .     S
V171     V169    10.0   1_565     S
V173     V174    9.999   .     S
V173     V175    10.0   1_545     S
V173     Er184    10.001   .     S
V173     Er183    10.0   .     S
V174     V178    10.0   .     S
V174     Er183    10.001   .     S
V174     Er184    10.0   .     S
V175     V176    9.999   .     S
V175     V173    10.0   1_565     S
V176     V180    10.0   .     S
V177     V178    9.999   .     S
V177     V179    10.0   1_545     S
V179     V180    9.999   .     S
V179     V177    10.0   1_565     S
Er181     Er182    10.0   .     S
Er181     Er191    10.0   .     S
Er182     Er184    10.0   .     S
Er183     Er184    10.0   .     S
Er183     Er185    10.0   .     S
Er185     Er186    10.0   .     S
Er186     Er188    10.0   .     S
Er187     Er188    10.0   .     S
Er187     Er189    10.0   .     S
Er189     Er190    10.0   .     S
Er190     Er192    10.0   .     S
Er191     Er192    10.0   .     S
