data_fto
_audit_creation_date              2020-02-04
_audit_creation_method            'Pymatgen'
_symmetry_space_group_name_H-M    'P1'
_symmetry_Int_Tables_number       1
loop_
_symmetry_equiv_pos_as_xyz
  x,y,z
_cell_length_a                    45.2033
_cell_length_b                    45.2033
_cell_length_c                    45.2033
_cell_angle_alpha                 90.0
_cell_angle_beta                 90.0
_cell_angle_gamma                 90.0
loop_
_atom_site_label
_atom_site_type_symbol
_atom_site_fract_x
_atom_site_fract_y
_atom_site_fract_z
Er1     Er     0.25   0.0   0.5
Er2     Er     0.5   0.25   0.0
Er3     Er     0.0   0.5   0.25
V4     V     0.3282   0.3894   0.0
V5     V     0.3282   0.6106   0.0
V6     V     0.1718   0.5   0.8894
V7     V     0.1718   0.5   0.1106
Er8     Er     0.5   0.75   0.0
V9     V     0.3894   0.0   0.6718
V10     V     0.6106   0.0   0.6718
V11     V     0.5   0.1106   0.8282
V12     V     0.5   0.8894   0.8282
V13     V     0.3894   0.0   0.3282
V14     V     0.6106   0.0   0.3282
V15     V     0.5   0.8894   0.1718
V16     V     0.5   0.1106   0.1718
Er17     Er     0.75   0.0   0.5
V18     V     0.0   0.6718   0.3894
V19     V     0.0   0.6718   0.6106
V20     V     0.1106   0.8282   0.5
V21     V     0.8894   0.8282   0.5
V22     V     0.6718   0.3894   0.0
V23     V     0.6718   0.6106   0.0
V24     V     0.8282   0.5   0.1106
V25     V     0.8282   0.5   0.8894
Er26     Er     0.0   0.5   0.75
V27     V     0.1106   0.1718   0.5
V28     V     0.0   0.3282   0.3894
V29     V     0.0   0.3282   0.6106
V30     V     0.8894   0.1718   0.5
loop_
_geom_bond_atom_site_label_1
_geom_bond_atom_site_label_2
_geom_bond_distance
_geom_bond_site_symmetry_2
_ccdc_geom_bond_type
Er1     V20    10.0   1_545     S
Er1     V13    10.0   .     S
Er1     V9    10.0   .     S
Er1     V27    10.0   .     S
Er2     V11    10.0   1_554     S
Er2     V16    10.0   .     S
Er2     V4    10.0   .     S
Er2     V22    10.0   .     S
Er3     V24    10.0   1_455     S
Er3     V28    10.0   .     S
Er3     V18    10.0   .     S
Er3     V7    10.0   .     S
V4     V6    10.0   1_554     S
V4     V7    10.0   .     S
V4     V5    10.0   .     S
V5     V6    10.0   1_554     S
V5     V7    10.0   .     S
V5     Er8    10.0   .     S
V6     V4    10.0   1_556     S
V6     V5    10.0   1_556     S
V6     V7    10.0   1_556     S
V6     Er26    10.0   .     S
V7     V6    10.0   1_554     S
Er8     V12    10.0   1_554     S
Er8     V23    10.0   .     S
Er8     V15    10.0   .     S
V9     V12    10.0   1_545     S
V9     V11    10.0   .     S
V9     V10    10.0   .     S
V10     V12    10.0   1_545     S
V10     V11    10.0   .     S
V10     Er17    10.0   .     S
V11     Er2    10.0   1_556     S
V11     V12    10.0   1_545     S
V12     Er8    10.0   1_556     S
V12     V9    10.0   1_565     S
V12     V10    10.0   1_565     S
V12     V11    10.0   1_565     S
V13     V16    10.0   .     S
V13     V15    10.0   1_545     S
V13     V14    10.0   .     S
V14     V15    10.0   1_545     S
V14     V16    10.0   .     S
V14     Er17    10.0   .     S
V15     V14    10.0   1_565     S
V15     V13    10.0   1_565     S
V15     V16    10.0   1_565     S
V16     V15    10.0   1_545     S
Er17     V21    10.0   1_545     S
Er17     V30    10.0   .     S
V18     V21    10.0   1_455     S
V18     V20    10.0   .     S
V18     V19    10.0   .     S
V19     V21    10.0   1_455     S
V19     V20    10.0   .     S
V19     Er26    10.0   .     S
V20     Er1    10.0   1_565     S
V20     V21    10.0   1_455     S
V21     Er17    10.0   1_565     S
V21     V18    10.0   1_655     S
V21     V19    10.0   1_655     S
V21     V20    10.0   1_655     S
V22     V25    10.0   1_554     S
V22     V24    10.0   .     S
V22     V23    10.0   .     S
V23     V25    10.0   1_554     S
V23     V24    10.0   .     S
V24     Er3    10.0   1_655     S
V24     V25    10.0   1_554     S
V25     V22    10.0   1_556     S
V25     V23    10.0   1_556     S
V25     V24    10.0   1_556     S
V25     Er26    10.0   1_655     S
Er26     V25    10.0   1_455     S
Er26     V29    10.0   .     S
V27     V29    10.0   .     S
V27     V28    10.0   .     S
V27     V30    10.0   1_455     S
V28     V30    10.0   1_455     S
V28     V29    10.0   .     S
V29     V30    10.0   1_455     S
V30     V28    10.0   1_655     S
V30     V29    10.0   1_655     S
V30     V27    10.0   1_655     S
