data_fud
_audit_creation_date              2020-02-04
_audit_creation_method            'Pymatgen'
_symmetry_space_group_name_H-M    'P1'
_symmetry_Int_Tables_number       1
loop_
_symmetry_equiv_pos_as_xyz
  x,y,z
_cell_length_a                    38.5337
_cell_length_b                    38.5337
_cell_length_c                    38.5337
_cell_angle_alpha                 90.0
_cell_angle_beta                 90.0
_cell_angle_gamma                 90.0
loop_
_atom_site_label
_atom_site_type_symbol
_atom_site_fract_x
_atom_site_fract_y
_atom_site_fract_z
V1     V     0.5918   0.4082   0.2247
V2     V     0.4082   0.5918   0.2247
V3     V     0.4082   0.4082   0.7753
V4     V     0.5918   0.5918   0.7753
Er5     Er     0.5   0.5   0.0
V6     V     0.2247   0.5918   0.4082
V7     V     0.2247   0.4082   0.5918
V8     V     0.7753   0.4082   0.4082
V9     V     0.7753   0.5918   0.5918
Er10     Er     0.0   0.5   0.5
V11     V     0.4082   0.2247   0.5918
V12     V     0.5918   0.2247   0.4082
V13     V     0.4082   0.7753   0.4082
V14     V     0.5918   0.7753   0.5918
Er15     Er     0.5   0.0   0.5
loop_
_geom_bond_atom_site_label_1
_geom_bond_atom_site_label_2
_geom_bond_distance
_geom_bond_site_symmetry_2
_ccdc_geom_bond_type
V1     Er5    10.0   .     S
V1     V2    10.0   .     S
V1     V8    10.0   .     S
V1     V12    10.0   .     S
V2     Er5    10.0   .     S
V2     V13    10.0   .     S
V2     V6    10.0   .     S
V3     V7    10.0   .     S
V3     V11    10.0   .     S
V3     Er5    10.0   1_556     S
V3     V4    10.0   .     S
V4     V9    10.0   .     S
V4     V14    10.0   .     S
V4     Er5    10.0   1_556     S
Er5     V3    10.0   1_554     S
Er5     V4    10.0   1_554     S
V6     Er10    10.0   .     S
V6     V7    10.0   .     S
V6     V13    10.0   .     S
V7     V11    10.0   .     S
V7     Er10    10.0   .     S
V8     V12    10.0   .     S
V8     Er10    10.0   1_655     S
V8     V9    10.0   .     S
V9     V14    10.0   .     S
V9     Er10    10.0   1_655     S
Er10     V8    10.0   1_455     S
Er10     V9    10.0   1_455     S
V11     Er15    10.0   .     S
V11     V12    10.0   .     S
V12     Er15    10.0   .     S
V13     Er15    10.0   1_565     S
V13     V14    10.0   .     S
V14     Er15    10.0   1_565     S
Er15     V13    10.0   1_545     S
Er15     V14    10.0   1_545     S
