data_fui
_audit_creation_date              2020-02-04
_audit_creation_method            'Pymatgen'
_symmetry_space_group_name_H-M    'P1'
_symmetry_Int_Tables_number       1
loop_
_symmetry_equiv_pos_as_xyz
  x,y,z
_cell_length_a                    81.6175
_cell_length_b                    81.6175
_cell_length_c                    81.6175
_cell_angle_alpha                 90.0
_cell_angle_beta                 90.0
_cell_angle_gamma                 90.0
loop_
_atom_site_label
_atom_site_type_symbol
_atom_site_fract_x
_atom_site_fract_y
_atom_site_fract_z
Er1     Er     0.4387   0.6479   0.1427
Er2     Er     0.5613   0.6479   0.1427
Er3     Er     0.5613   0.6479   0.8573
Er4     Er     0.4387   0.6479   0.8573
Er5     Er     0.3573   0.8521   0.9387
Er6     Er     0.3573   0.8521   0.0613
Er7     Er     0.6427   0.8521   0.9387
Er8     Er     0.6427   0.8521   0.0613
V9     V     0.5613   0.7704   0.8571
V10     V     0.4387   0.7704   0.8571
V11     V     0.3571   0.7296   0.0613
V12     V     0.3571   0.7296   0.9387
V13     V     0.5613   0.7704   0.1429
V14     V     0.4387   0.7704   0.1429
V15     V     0.6429   0.7296   0.9387
V16     V     0.6429   0.7296   0.0613
Er17     Er     0.6479   0.5613   0.1427
Er18     Er     0.6479   0.4387   0.1427
Er19     Er     0.6479   0.4387   0.8573
Er20     Er     0.6479   0.5613   0.8573
Er21     Er     0.8521   0.6427   0.9387
Er22     Er     0.8521   0.6427   0.0613
Er23     Er     0.8521   0.3573   0.9387
Er24     Er     0.8521   0.3573   0.0613
V25     V     0.7704   0.4387   0.8571
V26     V     0.7704   0.5613   0.8571
V27     V     0.7296   0.6429   0.9387
V28     V     0.7296   0.6429   0.0613
V29     V     0.7704   0.4387   0.1429
V30     V     0.7704   0.5613   0.1429
V31     V     0.7296   0.3571   0.0613
V32     V     0.7296   0.3571   0.9387
Er33     Er     0.1427   0.4387   0.6479
Er34     Er     0.1427   0.5613   0.6479
Er35     Er     0.8573   0.5613   0.6479
Er36     Er     0.8573   0.4387   0.6479
Er37     Er     0.9387   0.6427   0.8521
Er38     Er     0.0613   0.6427   0.8521
Er39     Er     0.9387   0.3573   0.8521
Er40     Er     0.0613   0.3573   0.8521
V41     V     0.8571   0.5613   0.7704
V42     V     0.8571   0.4387   0.7704
V43     V     0.0613   0.3571   0.7296
V44     V     0.9387   0.3571   0.7296
V45     V     0.1429   0.5613   0.7704
V46     V     0.1429   0.4387   0.7704
V47     V     0.9387   0.6429   0.7296
V48     V     0.0613   0.6429   0.7296
Er49     Er     0.1427   0.6479   0.5613
Er50     Er     0.1427   0.6479   0.4387
Er51     Er     0.8573   0.6479   0.4387
Er52     Er     0.8573   0.6479   0.5613
Er53     Er     0.9387   0.8521   0.6427
Er54     Er     0.0613   0.8521   0.6427
Er55     Er     0.9387   0.8521   0.3573
Er56     Er     0.0613   0.8521   0.3573
V57     V     0.8571   0.7704   0.4387
V58     V     0.8571   0.7704   0.5613
V59     V     0.9387   0.7296   0.6429
V60     V     0.0613   0.7296   0.6429
V61     V     0.1429   0.7704   0.4387
V62     V     0.1429   0.7704   0.5613
V63     V     0.0613   0.7296   0.3571
V64     V     0.9387   0.7296   0.3571
Er65     Er     0.5613   0.1427   0.6479
Er66     Er     0.4387   0.1427   0.6479
Er67     Er     0.4387   0.8573   0.6479
Er68     Er     0.5613   0.8573   0.6479
Er69     Er     0.6427   0.9387   0.8521
Er70     Er     0.6427   0.0613   0.8521
Er71     Er     0.3573   0.9387   0.8521
Er72     Er     0.3573   0.0613   0.8521
V73     V     0.4387   0.8571   0.7704
V74     V     0.5613   0.8571   0.7704
V75     V     0.3571   0.0613   0.7296
V76     V     0.3571   0.9387   0.7296
V77     V     0.5613   0.1429   0.7704
V78     V     0.4387   0.1429   0.7704
V79     V     0.6429   0.9387   0.7296
V80     V     0.6429   0.0613   0.7296
Er81     Er     0.6479   0.1427   0.4387
Er82     Er     0.6479   0.1427   0.5613
Er83     Er     0.6479   0.8573   0.5613
Er84     Er     0.6479   0.8573   0.4387
Er85     Er     0.8521   0.9387   0.6427
Er86     Er     0.8521   0.0613   0.6427
Er87     Er     0.8521   0.9387   0.3573
Er88     Er     0.8521   0.0613   0.3573
V89     V     0.7704   0.8571   0.5613
V90     V     0.7704   0.8571   0.4387
V91     V     0.7296   0.9387   0.6429
V92     V     0.7296   0.0613   0.6429
V93     V     0.7704   0.1429   0.4387
V94     V     0.7704   0.1429   0.5613
V95     V     0.7296   0.0613   0.3571
V96     V     0.7296   0.9387   0.3571
Er97     Er     0.3521   0.1427   0.5613
Er98     Er     0.3521   0.1427   0.4387
Er99     Er     0.3521   0.8573   0.4387
Er100     Er     0.3521   0.8573   0.5613
Er101     Er     0.1479   0.9387   0.6427
Er102     Er     0.1479   0.0613   0.6427
Er103     Er     0.1479   0.9387   0.3573
Er104     Er     0.1479   0.0613   0.3573
V105     V     0.2296   0.8571   0.4387
V106     V     0.2296   0.8571   0.5613
V107     V     0.2704   0.9387   0.6429
V108     V     0.2704   0.0613   0.6429
V109     V     0.2296   0.1429   0.4387
V110     V     0.2296   0.1429   0.5613
V111     V     0.2704   0.0613   0.3571
V112     V     0.2704   0.9387   0.3571
Er113     Er     0.4387   0.1427   0.3521
Er114     Er     0.5613   0.1427   0.3521
Er115     Er     0.5613   0.8573   0.3521
Er116     Er     0.4387   0.8573   0.3521
Er117     Er     0.6427   0.9387   0.1479
Er118     Er     0.6427   0.0613   0.1479
Er119     Er     0.3573   0.9387   0.1479
Er120     Er     0.3573   0.0613   0.1479
V121     V     0.5613   0.8571   0.2296
V122     V     0.4387   0.8571   0.2296
V123     V     0.6429   0.9387   0.2704
V124     V     0.6429   0.0613   0.2704
V125     V     0.5613   0.1429   0.2296
V126     V     0.4387   0.1429   0.2296
V127     V     0.3571   0.0613   0.2704
V128     V     0.3571   0.9387   0.2704
Er129     Er     0.5613   0.3521   0.1427
Er130     Er     0.4387   0.3521   0.1427
Er131     Er     0.4387   0.3521   0.8573
Er132     Er     0.5613   0.3521   0.8573
Er133     Er     0.6427   0.1479   0.9387
Er134     Er     0.6427   0.1479   0.0613
Er135     Er     0.3573   0.1479   0.9387
Er136     Er     0.3573   0.1479   0.0613
V137     V     0.4387   0.2296   0.8571
V138     V     0.5613   0.2296   0.8571
V139     V     0.6429   0.2704   0.9387
V140     V     0.6429   0.2704   0.0613
V141     V     0.4387   0.2296   0.1429
V142     V     0.5613   0.2296   0.1429
V143     V     0.3571   0.2704   0.0613
V144     V     0.3571   0.2704   0.9387
Er145     Er     0.3521   0.4387   0.1427
Er146     Er     0.3521   0.5613   0.1427
Er147     Er     0.3521   0.5613   0.8573
Er148     Er     0.3521   0.4387   0.8573
Er149     Er     0.1479   0.6427   0.9387
Er150     Er     0.1479   0.6427   0.0613
Er151     Er     0.1479   0.3573   0.9387
Er152     Er     0.1479   0.3573   0.0613
V153     V     0.2296   0.5613   0.8571
V154     V     0.2296   0.4387   0.8571
V155     V     0.2704   0.6429   0.9387
V156     V     0.2704   0.6429   0.0613
V157     V     0.2296   0.4387   0.1429
V158     V     0.2296   0.5613   0.1429
V159     V     0.2704   0.3571   0.0613
V160     V     0.2704   0.3571   0.9387
Er161     Er     0.1427   0.5613   0.3521
Er162     Er     0.1427   0.4387   0.3521
Er163     Er     0.8573   0.4387   0.3521
Er164     Er     0.8573   0.5613   0.3521
Er165     Er     0.9387   0.6427   0.1479
Er166     Er     0.0613   0.6427   0.1479
Er167     Er     0.9387   0.3573   0.1479
Er168     Er     0.0613   0.3573   0.1479
V169     V     0.8571   0.4387   0.2296
V170     V     0.8571   0.5613   0.2296
V171     V     0.9387   0.6429   0.2704
V172     V     0.0613   0.6429   0.2704
V173     V     0.1429   0.4387   0.2296
V174     V     0.1429   0.5613   0.2296
V175     V     0.0613   0.3571   0.2704
V176     V     0.9387   0.3571   0.2704
Er177     Er     0.8573   0.3521   0.5613
Er178     Er     0.8573   0.3521   0.4387
Er179     Er     0.1427   0.3521   0.4387
Er180     Er     0.1427   0.3521   0.5613
Er181     Er     0.9387   0.1479   0.6427
Er182     Er     0.0613   0.1479   0.6427
Er183     Er     0.9387   0.1479   0.3573
Er184     Er     0.0613   0.1479   0.3573
V185     V     0.8571   0.2296   0.5613
V186     V     0.8571   0.2296   0.4387
V187     V     0.9387   0.2704   0.6429
V188     V     0.0613   0.2704   0.6429
V189     V     0.1429   0.2296   0.4387
V190     V     0.1429   0.2296   0.5613
V191     V     0.0613   0.2704   0.3571
V192     V     0.9387   0.2704   0.3571
loop_
_geom_bond_atom_site_label_1
_geom_bond_atom_site_label_2
_geom_bond_distance
_geom_bond_site_symmetry_2
_ccdc_geom_bond_type
Er1     Er2    10.0   .     S
Er1     V14    10.0   .     S
Er1     Er146    10.0   .     S
Er2     V13    10.0   .     S
Er2     Er17    10.0   .     S
Er3     Er4    10.0   .     S
Er3     V9    10.0   .     S
Er3     Er20    10.0   .     S
Er4     V10    10.0   .     S
Er4     Er147    10.0   .     S
Er5     Er6    10.0   1_556     S
Er5     V12    10.0   .     S
Er5     Er71    10.0   .     S
Er6     Er5    10.0   1_554     S
Er6     V11    10.0   .     S
Er6     Er119    10.0   .     S
Er7     Er8    10.0   1_556     S
Er7     V15    10.0   .     S
Er7     Er69    10.0   .     S
Er8     Er7    10.0   1_554     S
Er8     V16    10.0   .     S
Er8     Er117    10.0   .     S
V9     V10    10.0   .     S
V9     V15    10.0   .     S
V9     V74    10.0   .     S
V10     V12    10.0   .     S
V10     V73    10.0   .     S
V11     V14    10.0   .     S
V11     V12    10.0   1_554     S
V11     V156    10.0   .     S
V12     V11    10.0   1_556     S
V12     V155    10.0   .     S
V13     V14    10.0   .     S
V13     V16    10.0   .     S
V13     V121    10.0   .     S
V14     V122    10.0   .     S
V15     V16    10.0   1_556     S
V15     V27    10.0   .     S
V16     V15    10.0   1_554     S
V16     V28    10.0   .     S
Er17     Er18    10.0   .     S
Er17     V30    10.0   .     S
Er18     V29    10.0   .     S
Er18     Er129    10.0   .     S
Er19     Er20    10.0   .     S
Er19     V25    10.0   .     S
Er19     Er132    10.0   .     S
Er20     V26    10.0   .     S
Er21     Er22    10.0   1_556     S
Er21     V27    10.0   .     S
Er21     Er37    10.0   .     S
Er22     Er21    10.0   1_554     S
Er22     V28    10.0   .     S
Er22     Er165    10.0   .     S
Er23     Er24    10.0   1_556     S
Er23     V32    10.0   .     S
Er23     Er39    10.0   .     S
Er24     Er23    10.0   1_554     S
Er24     V31    10.0   .     S
Er24     Er167    10.0   .     S
V25     V26    10.0   .     S
V25     V32    10.0   .     S
V25     V42    10.0   .     S
V26     V27    10.0   .     S
V26     V41    10.0   .     S
V27     V28    10.0   1_556     S
V28     V27    10.0   1_554     S
V28     V30    10.0   .     S
V29     V30    10.0   .     S
V29     V31    10.0   .     S
V29     V169    10.0   .     S
V30     V170    10.0   .     S
V31     V32    10.0   1_554     S
V31     V140    10.0   .     S
V32     V31    10.0   1_556     S
V32     V139    10.0   .     S
Er33     Er34    10.0   .     S
Er33     V46    10.0   .     S
Er33     Er180    10.0   .     S
Er34     V45    10.0   .     S
Er34     Er49    10.0   .     S
Er35     Er36    10.0   .     S
Er35     V41    10.0   .     S
Er35     Er52    10.0   .     S
Er36     V42    10.0   .     S
Er36     Er177    10.0   .     S
Er37     Er38    10.0   1_655     S
Er37     V47    10.0   .     S
Er38     Er37    10.0   1_455     S
Er38     V48    10.0   .     S
Er38     Er149    10.0   .     S
Er39     Er40    10.0   1_655     S
Er39     V44    10.0   .     S
Er40     Er39    10.0   1_455     S
Er40     V43    10.0   .     S
Er40     Er151    10.0   .     S
V41     V42    10.0   .     S
V41     V47    10.0   .     S
V42     V44    10.0   .     S
V43     V46    10.0   .     S
V43     V44    10.0   1_455     S
V43     V188    10.0   .     S
V44     V43    10.0   1_655     S
V44     V187    10.0   .     S
V45     V46    10.0   .     S
V45     V48    10.0   .     S
V45     V153    10.0   .     S
V46     V154    10.0   .     S
V47     V48    10.0   1_655     S
V47     V59    10.0   .     S
V48     V47    10.0   1_455     S
V48     V60    10.0   .     S
Er49     Er50    10.0   .     S
Er49     V62    10.0   .     S
Er50     V61    10.0   .     S
Er50     Er161    10.0   .     S
Er51     Er52    10.0   .     S
Er51     V57    10.0   .     S
Er51     Er164    10.0   .     S
Er52     V58    10.0   .     S
Er53     Er54    10.0   1_655     S
Er53     V59    10.0   .     S
Er53     Er85    10.0   .     S
Er54     Er53    10.0   1_455     S
Er54     V60    10.0   .     S
Er54     Er101    10.0   .     S
Er55     Er56    10.0   1_655     S
Er55     V64    10.0   .     S
Er55     Er87    10.0   .     S
Er56     Er55    10.0   1_455     S
Er56     V63    10.0   .     S
Er56     Er103    10.0   .     S
V57     V58    10.0   .     S
V57     V64    10.0   .     S
V57     V90    10.0   .     S
V58     V59    10.0   .     S
V58     V89    10.0   .     S
V59     V60    10.0   1_655     S
V60     V59    10.0   1_455     S
V60     V62    10.0   .     S
V61     V62    10.0   .     S
V61     V63    10.0   .     S
V61     V105    10.0   .     S
V62     V106    10.0   .     S
V63     V64    10.0   1_455     S
V63     V172    10.0   .     S
V64     V63    10.0   1_655     S
V64     V171    10.0   .     S
Er65     Er66    10.0   .     S
Er65     V77    10.0   .     S
Er65     Er82    10.0   .     S
Er66     V78    10.0   .     S
Er66     Er97    10.0   .     S
Er67     Er68    10.0   .     S
Er67     V73    10.0   .     S
Er67     Er100    10.0   .     S
Er68     V74    10.0   .     S
Er68     Er83    10.0   .     S
Er69     Er70    10.0   1_565     S
Er69     V79    10.0   .     S
Er70     Er69    10.0   1_545     S
Er70     V80    10.0   .     S
Er70     Er133    10.0   .     S
Er71     Er72    10.0   1_565     S
Er71     V76    10.0   .     S
Er72     Er71    10.0   1_545     S
Er72     V75    10.0   .     S
Er72     Er135    10.0   .     S
V73     V74    10.0   .     S
V73     V76    10.0   .     S
V74     V79    10.0   .     S
V75     V78    10.0   .     S
V75     V76    10.0   1_545     S
V75     V108    10.0   .     S
V76     V75    10.0   1_565     S
V76     V107    10.0   .     S
V77     V78    10.0   .     S
V77     V80    10.0   .     S
V77     V138    10.0   .     S
V78     V137    10.0   .     S
V79     V80    10.0   1_565     S
V79     V91    10.0   .     S
V80     V79    10.0   1_545     S
V80     V92    10.0   .     S
Er81     Er82    10.0   .     S
Er81     V93    10.0   .     S
Er81     Er114    10.0   .     S
Er82     V94    10.0   .     S
Er83     Er84    10.0   .     S
Er83     V89    10.0   .     S
Er84     V90    10.0   .     S
Er84     Er115    10.0   .     S
Er85     Er86    10.0   1_565     S
Er85     V91    10.0   .     S
Er86     Er85    10.0   1_545     S
Er86     V92    10.0   .     S
Er86     Er181    10.0   .     S
Er87     Er88    10.0   1_565     S
Er87     V96    10.0   .     S
Er88     Er87    10.0   1_545     S
Er88     V95    10.0   .     S
Er88     Er183    10.0   .     S
V89     V90    10.0   .     S
V89     V91    10.0   .     S
V90     V96    10.0   .     S
V91     V92    10.0   1_565     S
V92     V91    10.0   1_545     S
V92     V94    10.0   .     S
V93     V94    10.0   .     S
V93     V95    10.0   .     S
V93     V186    10.0   .     S
V94     V185    10.0   .     S
V95     V96    10.0   1_545     S
V95     V124    10.0   .     S
V96     V95    10.0   1_565     S
V96     V123    10.0   .     S
Er97     Er98    10.0   .     S
Er97     V110    10.0   .     S
Er98     V109    10.0   .     S
Er98     Er113    10.0   .     S
Er99     Er100    10.0   .     S
Er99     V105    10.0   .     S
Er99     Er116    10.0   .     S
Er100     V106    10.0   .     S
Er101     Er102    10.0   1_565     S
Er101     V107    10.0   .     S
Er102     Er101    10.0   1_545     S
Er102     V108    10.0   .     S
Er102     Er182    10.0   .     S
Er103     Er104    10.0   1_565     S
Er103     V112    10.0   .     S
Er104     Er103    10.0   1_545     S
Er104     V111    10.0   .     S
Er104     Er184    10.0   .     S
V105     V106    10.0   .     S
V105     V112    10.0   .     S
V106     V107    10.0   .     S
V107     V108    10.0   1_565     S
V108     V107    10.0   1_545     S
V108     V110    10.0   .     S
V109     V110    10.0   .     S
V109     V111    10.0   .     S
V109     V189    10.0   .     S
V110     V190    10.0   .     S
V111     V112    10.0   1_545     S
V111     V127    10.0   .     S
V112     V111    10.0   1_565     S
V112     V128    10.0   .     S
Er113     Er114    10.0   .     S
Er113     V126    10.0   .     S
Er114     V125    10.0   .     S
Er115     Er116    10.0   .     S
Er115     V121    10.0   .     S
Er116     V122    10.0   .     S
Er117     Er118    10.0   1_565     S
Er117     V123    10.0   .     S
Er118     Er117    10.0   1_545     S
Er118     V124    10.0   .     S
Er118     Er134    10.0   .     S
Er119     Er120    10.0   1_565     S
Er119     V128    10.0   .     S
Er120     Er119    10.0   1_545     S
Er120     V127    10.0   .     S
Er120     Er136    10.0   .     S
V121     V122    10.0   .     S
V121     V123    10.0   .     S
V122     V128    10.0   .     S
V123     V124    10.0   1_565     S
V124     V123    10.0   1_545     S
V124     V125    10.0   .     S
V125     V126    10.0   .     S
V125     V142    10.0   .     S
V126     V127    10.0   .     S
V126     V141    10.0   .     S
V127     V128    10.0   1_545     S
V128     V127    10.0   1_565     S
Er129     Er130    10.0   .     S
Er129     V142    10.0   .     S
Er130     V141    10.0   .     S
Er130     Er145    10.0   .     S
Er131     Er132    10.0   .     S
Er131     V137    10.0   .     S
Er131     Er148    10.0   .     S
Er132     V138    10.0   .     S
Er133     Er134    10.0   1_556     S
Er133     V139    10.0   .     S
Er134     Er133    10.0   1_554     S
Er134     V140    10.0   .     S
Er135     Er136    10.0   1_556     S
Er135     V144    10.0   .     S
Er136     Er135    10.0   1_554     S
Er136     V143    10.0   .     S
V137     V138    10.0   .     S
V137     V144    10.0   .     S
V138     V139    10.0   .     S
V139     V140    10.0   1_556     S
V140     V139    10.0   1_554     S
V140     V142    10.0   .     S
V141     V142    10.0   .     S
V141     V143    10.0   .     S
V143     V144    10.0   1_554     S
V143     V159    10.0   .     S
V144     V143    10.0   1_556     S
V144     V160    10.0   .     S
Er145     Er146    10.0   .     S
Er145     V157    10.0   .     S
Er146     V158    10.0   .     S
Er147     Er148    10.0   .     S
Er147     V153    10.0   .     S
Er148     V154    10.0   .     S
Er149     Er150    10.0   1_556     S
Er149     V155    10.0   .     S
Er150     Er149    10.0   1_554     S
Er150     V156    10.0   .     S
Er150     Er166    10.0   .     S
Er151     Er152    10.0   1_556     S
Er151     V160    10.0   .     S
Er152     Er151    10.0   1_554     S
Er152     V159    10.0   .     S
Er152     Er168    10.0   .     S
V153     V154    10.0   .     S
V153     V155    10.0   .     S
V154     V160    10.0   .     S
V155     V156    10.0   1_556     S
V156     V155    10.0   1_554     S
V156     V158    10.0   .     S
V157     V158    10.0   .     S
V157     V159    10.0   .     S
V157     V173    10.0   .     S
V158     V174    10.0   .     S
V159     V160    10.0   1_554     S
V160     V159    10.0   1_556     S
Er161     Er162    10.0   .     S
Er161     V174    10.0   .     S
Er162     V173    10.0   .     S
Er162     Er179    10.0   .     S
Er163     Er164    10.0   .     S
Er163     V169    10.0   .     S
Er163     Er178    10.0   .     S
Er164     V170    10.0   .     S
Er165     Er166    10.0   1_655     S
Er165     V171    10.0   .     S
Er166     Er165    10.0   1_455     S
Er166     V172    10.0   .     S
Er167     Er168    10.0   1_655     S
Er167     V176    10.0   .     S
Er168     Er167    10.0   1_455     S
Er168     V175    10.0   .     S
V169     V170    10.0   .     S
V169     V176    10.0   .     S
V170     V171    10.0   .     S
V171     V172    10.0   1_655     S
V172     V171    10.0   1_455     S
V172     V174    10.0   .     S
V173     V174    10.0   .     S
V173     V175    10.0   .     S
V175     V176    10.0   1_455     S
V175     V191    10.0   .     S
V176     V175    10.0   1_655     S
V176     V192    10.0   .     S
Er177     Er178    10.0   .     S
Er177     V185    10.0   .     S
Er178     V186    10.0   .     S
Er179     Er180    10.0   .     S
Er179     V189    10.0   .     S
Er180     V190    10.0   .     S
Er181     Er182    10.0   1_655     S
Er181     V187    10.0   .     S
Er182     Er181    10.0   1_455     S
Er182     V188    10.0   .     S
Er183     Er184    10.0   1_655     S
Er183     V192    10.0   .     S
Er184     Er183    10.0   1_455     S
Er184     V191    10.0   .     S
V185     V186    10.0   .     S
V185     V187    10.0   .     S
V186     V192    10.0   .     S
V187     V188    10.0   1_655     S
V188     V187    10.0   1_455     S
V188     V190    10.0   .     S
V189     V190    10.0   .     S
V189     V191    10.0   .     S
V191     V192    10.0   1_455     S
V192     V191    10.0   1_655     S
