data_fuj
_audit_creation_date              2020-02-04
_audit_creation_method            'Pymatgen'
_symmetry_space_group_name_H-M    'P1'
_symmetry_Int_Tables_number       1
loop_
_symmetry_equiv_pos_as_xyz
  x,y,z
_cell_length_a                    56.0327
_cell_length_b                    56.0327
_cell_length_c                    56.0327
_cell_angle_alpha                 90.0
_cell_angle_beta                 90.0
_cell_angle_gamma                 90.0
loop_
_atom_site_label
_atom_site_type_symbol
_atom_site_fract_x
_atom_site_fract_y
_atom_site_fract_z
Er1     Er     0.75   0.8762   0.1608
Er2     Er     0.75   0.8762   0.3392
V3     V     0.6262   0.0   0.3738
V4     V     0.8738   0.0   0.1262
Er5     Er     0.6608   0.1238   0.25
Er6     Er     0.8392   0.1238   0.25
Er7     Er     0.8762   0.75   0.3392
Er8     Er     0.8762   0.75   0.1608
V9     V     0.0   0.6262   0.3738
V10     V     0.0   0.8738   0.1262
Er11     Er     0.1238   0.8392   0.25
Er12     Er     0.1238   0.6608   0.25
V13     V     0.5   0.6262   0.1262
Er14     Er     0.3762   0.8392   0.25
Er15     Er     0.3762   0.6608   0.25
V16     V     0.5   0.8738   0.3738
Er17     Er     0.6238   0.75   0.3392
Er18     Er     0.6238   0.75   0.1608
Er19     Er     0.75   0.6238   0.1608
Er20     Er     0.75   0.6238   0.3392
V21     V     0.8738   0.5   0.3738
V22     V     0.6262   0.5   0.1262
Er23     Er     0.6608   0.3762   0.25
Er24     Er     0.8392   0.3762   0.25
Er25     Er     0.8762   0.1608   0.75
Er26     Er     0.8762   0.3392   0.75
V27     V     0.0   0.3738   0.6262
V28     V     0.0   0.1262   0.8738
Er29     Er     0.1238   0.25   0.6608
Er30     Er     0.1238   0.25   0.8392
Er31     Er     0.75   0.3392   0.8762
Er32     Er     0.75   0.1608   0.8762
V33     V     0.6262   0.3738   0.0
V34     V     0.8738   0.1262   0.0
Er35     Er     0.8392   0.25   0.1238
Er36     Er     0.6608   0.25   0.1238
V37     V     0.6262   0.1262   0.5
Er38     Er     0.8392   0.25   0.3762
Er39     Er     0.6608   0.25   0.3762
V40     V     0.8738   0.3738   0.5
Er41     Er     0.75   0.3392   0.6238
Er42     Er     0.75   0.1608   0.6238
Er43     Er     0.6238   0.1608   0.75
Er44     Er     0.6238   0.3392   0.75
V45     V     0.5   0.3738   0.8738
V46     V     0.5   0.1262   0.6262
Er47     Er     0.3762   0.25   0.6608
Er48     Er     0.3762   0.25   0.8392
V49     V     0.1262   0.6262   0.5
Er50     Er     0.25   0.8392   0.3762
Er51     Er     0.25   0.6608   0.3762
V52     V     0.3738   0.8738   0.5
Er53     Er     0.1608   0.75   0.6238
Er54     Er     0.3392   0.75   0.6238
V55     V     0.1262   0.5   0.6262
Er56     Er     0.25   0.3762   0.8392
Er57     Er     0.25   0.3762   0.6608
V58     V     0.3738   0.5   0.8738
Er59     Er     0.3392   0.6238   0.75
Er60     Er     0.1608   0.6238   0.75
Er61     Er     0.1608   0.75   0.8762
Er62     Er     0.3392   0.75   0.8762
V63     V     0.3738   0.6262   0.0
V64     V     0.1262   0.8738   0.0
Er65     Er     0.25   0.6608   0.1238
Er66     Er     0.25   0.8392   0.1238
Er67     Er     0.1608   0.8762   0.75
Er68     Er     0.3392   0.8762   0.75
V69     V     0.1262   0.0   0.8738
V70     V     0.3738   0.0   0.6262
Er71     Er     0.25   0.1238   0.8392
Er72     Er     0.25   0.1238   0.6608
loop_
_geom_bond_atom_site_label_1
_geom_bond_atom_site_label_2
_geom_bond_distance
_geom_bond_site_symmetry_2
_ccdc_geom_bond_type
Er1     Er2    10.0   .     S
Er1     V4    10.0   1_565     S
Er1     Er8    10.0   .     S
Er1     Er18    10.0   .     S
Er2     V3    10.0   1_565     S
Er2     Er7    10.0   .     S
Er2     Er17    10.0   .     S
V3     Er2    10.0   1_545     S
V3     Er5    10.0   .     S
V3     V16    10.0   1_545     S
V3     V37    10.0   .     S
V4     Er1    10.0   1_545     S
V4     Er6    10.0   .     S
V4     V34    10.0   .     S
V4     V10    10.0   1_645     S
Er5     Er6    10.0   .     S
Er5     Er39    10.0   .     S
Er5     Er36    10.0   .     S
Er6     Er38    10.0   .     S
Er6     Er35    10.0   .     S
Er7     Er8    10.0   .     S
Er7     V9    10.0   1_655     S
Er7     Er20    10.0   .     S
Er8     V10    10.0   1_655     S
Er8     Er19    10.0   .     S
V9     Er7    10.0   1_455     S
V9     Er12    10.0   .     S
V9     V21    10.0   1_455     S
V9     V49    10.0   .     S
V10     Er11    10.0   .     S
V10     Er8    10.0   1_455     S
V10     V4    10.0   1_465     S
V10     V64    10.0   .     S
Er11     Er12    10.0   .     S
Er11     Er50    10.0   .     S
Er11     Er66    10.0   .     S
Er12     Er51    10.0   .     S
Er12     Er65    10.0   .     S
V13     Er15    10.0   .     S
V13     Er18    10.0   .     S
V13     V22    10.0   .     S
V13     V63    10.0   .     S
Er14     Er15    10.0   .     S
Er14     V16    10.0   .     S
Er14     Er66    10.0   .     S
Er14     Er50    10.0   .     S
Er15     Er51    10.0   .     S
Er15     Er65    10.0   .     S
V16     Er17    10.0   .     S
V16     V52    10.0   .     S
V16     V3    10.0   1_565     S
Er17     Er18    10.0   .     S
Er17     Er20    10.0   .     S
Er18     Er19    10.0   .     S
Er19     Er20    10.0   .     S
Er19     V22    10.0   .     S
Er20     V21    10.0   .     S
V21     Er24    10.0   .     S
V21     V9    10.0   1_655     S
V21     V40    10.0   .     S
V22     Er23    10.0   .     S
V22     V33    10.0   .     S
Er23     Er24    10.0   .     S
Er23     Er39    10.0   .     S
Er23     Er36    10.0   .     S
Er24     Er35    10.0   .     S
Er24     Er38    10.0   .     S
Er25     Er26    10.0   .     S
Er25     V28    10.0   1_655     S
Er25     Er32    10.0   .     S
Er25     Er42    10.0   .     S
Er26     V27    10.0   1_655     S
Er26     Er31    10.0   .     S
Er26     Er41    10.0   .     S
V27     Er26    10.0   1_455     S
V27     Er29    10.0   .     S
V27     V40    10.0   1_455     S
V27     V55    10.0   .     S
V28     Er25    10.0   1_455     S
V28     Er30    10.0   .     S
V28     V69    10.0   .     S
V28     V34    10.0   1_456     S
Er29     Er30    10.0   .     S
Er29     Er57    10.0   .     S
Er29     Er72    10.0   .     S
Er30     Er56    10.0   .     S
Er30     Er71    10.0   .     S
Er31     Er32    10.0   .     S
Er31     V33    10.0   1_556     S
Er31     Er44    10.0   .     S
Er32     V34    10.0   1_556     S
Er32     Er43    10.0   .     S
V33     Er31    10.0   1_554     S
V33     Er36    10.0   .     S
V33     V45    10.0   1_554     S
V34     Er35    10.0   .     S
V34     Er32    10.0   1_554     S
V34     V28    10.0   1_654     S
Er35     Er36    10.0   .     S
V37     Er39    10.0   .     S
V37     Er42    10.0   .     S
V37     V46    10.0   .     S
Er38     Er39    10.0   .     S
Er38     V40    10.0   .     S
V40     Er41    10.0   .     S
V40     V27    10.0   1_655     S
Er41     Er42    10.0   .     S
Er41     Er44    10.0   .     S
Er42     Er43    10.0   .     S
Er43     Er44    10.0   .     S
Er43     V46    10.0   .     S
Er44     V45    10.0   .     S
V45     Er48    10.0   .     S
V45     V33    10.0   1_556     S
V45     V58    10.0   .     S
V46     Er47    10.0   .     S
V46     V70    10.0   .     S
Er47     Er48    10.0   .     S
Er47     Er57    10.0   .     S
Er47     Er72    10.0   .     S
Er48     Er71    10.0   .     S
Er48     Er56    10.0   .     S
V49     Er51    10.0   .     S
V49     Er53    10.0   .     S
V49     V55    10.0   .     S
Er50     Er51    10.0   .     S
Er50     V52    10.0   .     S
V52     Er54    10.0   .     S
V52     V70    10.0   1_565     S
Er53     Er54    10.0   .     S
Er53     Er67    10.0   .     S
Er53     Er60    10.0   .     S
Er54     Er59    10.0   .     S
Er54     Er68    10.0   .     S
V55     Er60    10.0   .     S
V55     Er57    10.0   .     S
Er56     Er57    10.0   .     S
Er56     V58    10.0   .     S
V58     Er59    10.0   .     S
V58     V63    10.0   1_556     S
Er59     Er60    10.0   .     S
Er59     Er62    10.0   .     S
Er60     Er61    10.0   .     S
Er61     Er62    10.0   .     S
Er61     V64    10.0   1_556     S
Er61     Er67    10.0   .     S
Er62     V63    10.0   1_556     S
Er62     Er68    10.0   .     S
V63     Er62    10.0   1_554     S
V63     Er65    10.0   .     S
V63     V58    10.0   1_554     S
V64     Er61    10.0   1_554     S
V64     Er66    10.0   .     S
V64     V69    10.0   1_564     S
Er65     Er66    10.0   .     S
Er67     Er68    10.0   .     S
Er67     V69    10.0   1_565     S
Er68     V70    10.0   1_565     S
V69     Er71    10.0   .     S
V69     Er67    10.0   1_545     S
V69     V64    10.0   1_546     S
V70     Er68    10.0   1_545     S
V70     Er72    10.0   .     S
V70     V52    10.0   1_545     S
Er71     Er72    10.0   .     S
