data_fuo
_audit_creation_date              2020-02-04
_audit_creation_method            'Pymatgen'
_symmetry_space_group_name_H-M    'P1'
_symmetry_Int_Tables_number       1
loop_
_symmetry_equiv_pos_as_xyz
  x,y,z
_cell_length_a                    44.945
_cell_length_b                    44.945
_cell_length_c                    66.5704
_cell_angle_alpha                 90.0
_cell_angle_beta                 90.0
_cell_angle_gamma                 90.0
loop_
_atom_site_label
_atom_site_type_symbol
_atom_site_fract_x
_atom_site_fract_y
_atom_site_fract_z
V1     V     0.8888   0.3888   0.5751
Er2     Er     0.7686   0.3888   0.7985
Er3     Er     0.6112   0.2314   0.7985
Er4     Er     0.7314   0.1112   0.7015
Er5     Er     0.8888   0.2686   0.7015
V6     V     0.6113   0.1112   0.9249
V7     V     0.6112   0.1112   0.5751
V8     V     0.8888   0.3888   0.9249
Er9     Er     0.7686   0.3888   0.2015
Er10     Er     0.6112   0.2314   0.2015
Er11     Er     0.7314   0.1112   0.2985
Er12     Er     0.8888   0.2686   0.2985
V13     V     0.6113   0.1112   0.0751
V14     V     0.8888   0.3888   0.4249
V15     V     0.8888   0.3888   0.0751
V16     V     0.6112   0.1112   0.4249
Er17     Er     0.8888   0.7314   0.7015
Er18     Er     0.7314   0.8888   0.7015
Er19     Er     0.6112   0.7686   0.7985
Er20     Er     0.7686   0.6112   0.7985
V21     V     0.8888   0.6112   0.5751
V22     V     0.6112   0.8888   0.5751
V23     V     0.6113   0.8888   0.9249
V24     V     0.8888   0.6113   0.9249
Er25     Er     0.8888   0.7314   0.2985
Er26     Er     0.7314   0.8888   0.2985
Er27     Er     0.7686   0.6112   0.2015
Er28     Er     0.6112   0.7686   0.2015
V29     V     0.8888   0.6113   0.0751
V30     V     0.6113   0.8888   0.0751
V31     V     0.8888   0.6112   0.4249
V32     V     0.6112   0.8888   0.4249
V33     V     0.1112   0.3888   0.5751
Er34     Er     0.2686   0.1112   0.7015
Er35     Er     0.1112   0.2686   0.7015
Er36     Er     0.3888   0.2314   0.7985
Er37     Er     0.2314   0.3888   0.7985
V38     V     0.3888   0.1112   0.9249
V39     V     0.1112   0.3888   0.9249
V40     V     0.3888   0.1112   0.5751
Er41     Er     0.1112   0.2686   0.2985
Er42     Er     0.2686   0.1112   0.2985
Er43     Er     0.2314   0.3888   0.2015
Er44     Er     0.3888   0.2314   0.2015
V45     V     0.1112   0.3888   0.0751
V46     V     0.3888   0.1112   0.0751
V47     V     0.1112   0.3888   0.4249
V48     V     0.3888   0.1112   0.4249
V49     V     0.3888   0.8888   0.5751
Er50     Er     0.3888   0.7686   0.7985
Er51     Er     0.2314   0.6112   0.7985
Er52     Er     0.1112   0.7314   0.7015
Er53     Er     0.2686   0.8888   0.7015
V54     V     0.1112   0.6113   0.9249
V55     V     0.1112   0.6112   0.5751
V56     V     0.3888   0.8888   0.9249
Er57     Er     0.3888   0.7686   0.2015
Er58     Er     0.2314   0.6112   0.2015
Er59     Er     0.1112   0.7314   0.2985
Er60     Er     0.2686   0.8888   0.2985
V61     V     0.1112   0.6113   0.0751
V62     V     0.3888   0.8888   0.4249
V63     V     0.3888   0.8888   0.0751
V64     V     0.1112   0.6112   0.4249
loop_
_geom_bond_atom_site_label_1
_geom_bond_atom_site_label_2
_geom_bond_distance
_geom_bond_site_symmetry_2
_ccdc_geom_bond_type
V1     Er5    10.0   .     S
V1     V14    10.0   .     S
V1     V33    10.0   1_655     S
V1     V21    10.0   .     S
Er2     Er3    10.0   .     S
Er2     Er5    10.0   .     S
Er2     V8    10.0   .     S
Er2     Er20    10.0   .     S
Er3     Er4    10.0   .     S
Er3     V6    10.0   .     S
Er3     Er36    10.0   .     S
Er4     Er5    10.0   .     S
Er4     V7    10.0   .     S
Er4     Er18    10.0   1_545     S
Er5     Er35    10.0   1_655     S
V6     V13    10.0   1_556     S
V6     V23    10.0   1_545     S
V6     V38    10.0   .     S
V7     V16    10.0   .     S
V7     V40    10.0   .     S
V7     V22    10.0   1_545     S
V8     V15    10.0   1_556     S
V8     V39    10.0   1_655     S
V8     V24    10.0   .     S
Er9     Er10    10.0   .     S
Er9     Er12    10.0   .     S
Er9     V15    10.0   .     S
Er9     Er27    10.0   .     S
Er10     Er11    10.0   .     S
Er10     V13    10.0   .     S
Er10     Er44    10.0   .     S
Er11     Er12    10.0   .     S
Er11     V16    10.0   .     S
Er11     Er26    10.0   1_545     S
Er12     V14    10.0   .     S
Er12     Er41    10.0   1_655     S
V13     V6    10.0   1_554     S
V13     V30    10.0   1_545     S
V13     V46    10.0   .     S
V14     V47    10.0   1_655     S
V14     V31    10.0   .     S
V15     V8    10.0   1_554     S
V15     V45    10.0   1_655     S
V15     V29    10.0   .     S
V16     V48    10.0   .     S
V16     V32    10.0   1_545     S
Er17     Er18    10.0   .     S
Er17     Er20    10.0   .     S
Er17     V21    10.0   .     S
Er17     Er52    10.0   1_655     S
Er18     Er19    10.0   .     S
Er18     V22    10.0   .     S
Er18     Er4    10.0   1_565     S
Er19     Er20    10.0   .     S
Er19     V23    10.0   .     S
Er19     Er50    10.0   .     S
Er20     V24    10.0   .     S
V21     V31    10.0   .     S
V21     V55    10.0   1_655     S
V22     V32    10.0   .     S
V22     V7    10.0   1_565     S
V22     V49    10.0   .     S
V23     V30    10.0   1_556     S
V23     V6    10.0   1_565     S
V23     V56    10.0   .     S
V24     V29    10.0   1_556     S
V24     V54    10.0   1_655     S
Er25     Er26    10.0   .     S
Er25     Er27    10.0   .     S
Er25     V31    10.0   .     S
Er25     Er59    10.0   1_655     S
Er26     Er28    10.0   .     S
Er26     V32    10.0   .     S
Er26     Er11    10.0   1_565     S
Er27     Er28    10.0   .     S
Er27     V29    10.0   .     S
Er28     V30    10.0   .     S
Er28     Er57    10.0   .     S
V29     V24    10.0   1_554     S
V29     V61    10.0   1_655     S
V30     V23    10.0   1_554     S
V30     V13    10.0   1_565     S
V30     V63    10.0   .     S
V31     V64    10.0   1_655     S
V32     V16    10.0   1_565     S
V32     V62    10.0   .     S
V33     V1    10.0   1_455     S
V33     Er35    10.0   .     S
V33     V47    10.0   .     S
V33     V55    10.0   .     S
Er34     Er35    10.0   .     S
Er34     Er36    10.0   .     S
Er34     V40    10.0   .     S
Er34     Er53    10.0   1_545     S
Er35     Er5    10.0   1_455     S
Er35     Er37    10.0   .     S
Er36     Er37    10.0   .     S
Er36     V38    10.0   .     S
Er37     V39    10.0   .     S
Er37     Er51    10.0   .     S
V38     V46    10.0   1_556     S
V38     V56    10.0   1_545     S
V39     V8    10.0   1_455     S
V39     V45    10.0   1_556     S
V39     V54    10.0   .     S
V40     V48    10.0   .     S
V40     V49    10.0   1_545     S
Er41     Er12    10.0   1_455     S
Er41     Er42    10.0   .     S
Er41     Er43    10.0   .     S
Er41     V47    10.0   .     S
Er42     Er44    10.0   .     S
Er42     V48    10.0   .     S
Er42     Er60    10.0   1_545     S
Er43     Er44    10.0   .     S
Er43     V45    10.0   .     S
Er43     Er58    10.0   .     S
Er44     V46    10.0   .     S
V45     V15    10.0   1_455     S
V45     V39    10.0   1_554     S
V45     V61    10.0   .     S
V46     V38    10.0   1_554     S
V46     V63    10.0   1_545     S
V47     V14    10.0   1_455     S
V47     V64    10.0   .     S
V48     V62    10.0   1_545     S
V49     Er53    10.0   .     S
V49     V62    10.0   .     S
V49     V40    10.0   1_565     S
Er50     Er51    10.0   .     S
Er50     Er53    10.0   .     S
Er50     V56    10.0   .     S
Er51     Er52    10.0   .     S
Er51     V54    10.0   .     S
Er52     Er17    10.0   1_455     S
Er52     Er53    10.0   .     S
Er52     V55    10.0   .     S
Er53     Er34    10.0   1_565     S
V54     V24    10.0   1_455     S
V54     V61    10.0   1_556     S
V55     V21    10.0   1_455     S
V55     V64    10.0   .     S
V56     V63    10.0   1_556     S
V56     V38    10.0   1_565     S
Er57     Er58    10.0   .     S
Er57     Er60    10.0   .     S
Er57     V63    10.0   .     S
Er58     Er59    10.0   .     S
Er58     V61    10.0   .     S
Er59     Er25    10.0   1_455     S
Er59     Er60    10.0   .     S
Er59     V64    10.0   .     S
Er60     V62    10.0   .     S
Er60     Er42    10.0   1_565     S
V61     V29    10.0   1_455     S
V61     V54    10.0   1_554     S
V62     V48    10.0   1_565     S
V63     V56    10.0   1_554     S
V63     V46    10.0   1_565     S
V64     V31    10.0   1_455     S
