data_fup
_audit_creation_date              2020-02-04
_audit_creation_method            'Pymatgen'
_symmetry_space_group_name_H-M    'P1'
_symmetry_Int_Tables_number       1
loop_
_symmetry_equiv_pos_as_xyz
  x,y,z
_cell_length_a                    44.8806
_cell_length_b                    44.8806
_cell_length_c                    33.3796
_cell_angle_alpha                 90.0
_cell_angle_beta                 90.0
_cell_angle_gamma                 90.0
loop_
_atom_site_label
_atom_site_type_symbol
_atom_site_fract_x
_atom_site_fract_y
_atom_site_fract_z
Er1     Er     0.3614   0.6386   0.3502
Er2     Er     0.3614   0.6386   0.6498
V3     V     0.481   0.6386   0.9025
V4     V     0.3614   0.519   0.0975
V5     V     0.519   0.3614   0.0975
V6     V     0.6386   0.481   0.9025
Er7     Er     0.6386   0.3614   0.3502
Er8     Er     0.6386   0.3614   0.6498
Er9     Er     0.3614   0.8614   0.3502
Er10     Er     0.3614   0.8614   0.6498
V11     V     0.3614   0.981   0.0975
V12     V     0.481   0.8614   0.9025
V13     V     0.6386   0.019   0.9025
V14     V     0.519   0.1386   0.0975
Er15     Er     0.6386   0.1386   0.3502
Er16     Er     0.6386   0.1386   0.6498
Er17     Er     0.1386   0.6386   0.3502
Er18     Er     0.1386   0.6386   0.6498
V19     V     0.019   0.6386   0.9025
V20     V     0.1386   0.519   0.0975
V21     V     0.981   0.3614   0.0975
V22     V     0.8614   0.481   0.9025
Er23     Er     0.8614   0.3614   0.3502
Er24     Er     0.8614   0.3614   0.6498
Er25     Er     0.8614   0.1386   0.3502
Er26     Er     0.8614   0.1386   0.6498
V27     V     0.1386   0.981   0.0975
V28     V     0.019   0.8614   0.9025
V29     V     0.8614   0.019   0.9025
V30     V     0.981   0.1386   0.0975
Er31     Er     0.1386   0.8614   0.3502
Er32     Er     0.1386   0.8614   0.6498
loop_
_geom_bond_atom_site_label_1
_geom_bond_atom_site_label_2
_geom_bond_distance
_geom_bond_site_symmetry_2
_ccdc_geom_bond_type
Er1     V4    10.0   .     S
Er1     Er2    10.0   .     S
Er1     Er9    10.0   .     S
Er1     Er17    10.0   .     S
Er2     V3    10.0   .     S
Er2     Er10    10.0   .     S
Er2     Er18    10.0   .     S
V3     V4    10.0   1_556     S
V3     V6    10.0   .     S
V3     V12    10.0   .     S
V4     V3    10.0   1_554     S
V4     V5    10.0   .     S
V4     V20    10.0   .     S
V5     V6    10.0   1_554     S
V5     Er7    10.0   .     S
V5     V14    10.0   .     S
V6     V5    10.0   1_556     S
V6     Er8    10.0   .     S
V6     V22    10.0   .     S
Er7     Er8    10.0   .     S
Er7     Er23    10.0   .     S
Er7     Er15    10.0   .     S
Er8     Er24    10.0   .     S
Er8     Er16    10.0   .     S
Er9     V11    10.0   .     S
Er9     Er10    10.0   .     S
Er9     Er31    10.0   .     S
Er10     V12    10.0   .     S
Er10     Er32    10.0   .     S
V11     V12    10.0   1_554     S
V11     V14    10.0   1_565     S
V11     V27    10.0   .     S
V12     V11    10.0   1_556     S
V12     V13    10.0   1_565     S
V13     V12    10.0   1_545     S
V13     V14    10.0   1_556     S
V13     Er16    10.0   .     S
V13     V29    10.0   .     S
V14     V13    10.0   1_554     S
V14     V11    10.0   1_545     S
V14     Er15    10.0   .     S
Er15     Er16    10.0   .     S
Er15     Er25    10.0   .     S
Er16     Er26    10.0   .     S
Er17     V20    10.0   .     S
Er17     Er18    10.0   .     S
Er17     Er31    10.0   .     S
Er18     V19    10.0   .     S
Er18     Er32    10.0   .     S
V19     V20    10.0   1_556     S
V19     V22    10.0   1_455     S
V19     V28    10.0   .     S
V20     V19    10.0   1_554     S
V20     V21    10.0   1_455     S
V21     V20    10.0   1_655     S
V21     V22    10.0   1_554     S
V21     Er23    10.0   .     S
V21     V30    10.0   .     S
V22     V21    10.0   1_556     S
V22     V19    10.0   1_655     S
V22     Er24    10.0   .     S
Er23     Er24    10.0   .     S
Er23     Er25    10.0   .     S
Er24     Er26    10.0   .     S
Er25     V30    10.0   .     S
Er25     Er26    10.0   .     S
Er26     V29    10.0   .     S
V27     V28    10.0   1_554     S
V27     V30    10.0   1_465     S
V27     Er31    10.0   .     S
V28     V27    10.0   1_556     S
V28     V29    10.0   1_465     S
V28     Er32    10.0   .     S
V29     V28    10.0   1_645     S
V29     V30    10.0   1_556     S
V30     V29    10.0   1_554     S
V30     V27    10.0   1_645     S
Er31     Er32    10.0   .     S
