data_fur
_audit_creation_date              2020-02-04
_audit_creation_method            'Pymatgen'
_symmetry_space_group_name_H-M    'P1'
_symmetry_Int_Tables_number       1
loop_
_symmetry_equiv_pos_as_xyz
  x,y,z
_cell_length_a                    52.9464
_cell_length_b                    52.9464
_cell_length_c                    37.2511
_cell_angle_alpha                 90.0
_cell_angle_beta                 90.0
_cell_angle_gamma                 90.0
loop_
_atom_site_label
_atom_site_type_symbol
_atom_site_fract_x
_atom_site_fract_y
_atom_site_fract_z
Er1     Er     0.2013   0.0   0.0
Er2     Er     0.25   0.9513   0.25
Er3     Er     0.25   0.0487   0.75
Er4     Er     0.2987   0.0   0.5
Er5     Er     0.7987   0.0   0.0
Er6     Er     0.75   0.0487   0.75
Er7     Er     0.7013   0.0   0.5
Er8     Er     0.75   0.9513   0.25
V9     V     0.5944   0.1556   0.4908
V10     V     0.4056   0.1556   0.4908
V11     V     0.5944   0.3444   0.4908
V12     V     0.4056   0.3444   0.4908
V13     V     0.4056   0.3444   0.7592
V14     V     0.5944   0.3444   0.7592
V15     V     0.4056   0.1556   0.7592
V16     V     0.5944   0.1556   0.7592
V17     V     0.4056   0.8444   0.5092
V18     V     0.4056   0.6556   0.5092
V19     V     0.5944   0.8444   0.5092
V20     V     0.5944   0.6556   0.5092
V21     V     0.4056   0.6556   0.2408
V22     V     0.5944   0.6556   0.2408
V23     V     0.4056   0.8444   0.2408
V24     V     0.5944   0.8444   0.2408
Er25     Er     0.25   0.4513   0.75
Er26     Er     0.2987   0.5   0.5
Er27     Er     0.2013   0.5   0.0
Er28     Er     0.25   0.5487   0.25
V29     V     0.9056   0.6556   0.9908
V30     V     0.9056   0.8444   0.9908
V31     V     0.0944   0.8444   0.9908
V32     V     0.0944   0.6556   0.9908
V33     V     0.0944   0.8444   0.2592
V34     V     0.9056   0.8444   0.2592
V35     V     0.0944   0.6556   0.2592
V36     V     0.9056   0.6556   0.2592
V37     V     0.9056   0.1556   0.0092
V38     V     0.0944   0.1556   0.0092
V39     V     0.9056   0.3444   0.0092
V40     V     0.0944   0.3444   0.0092
V41     V     0.0944   0.1556   0.7408
V42     V     0.9056   0.1556   0.7408
V43     V     0.9056   0.3444   0.7408
V44     V     0.0944   0.3444   0.7408
Er45     Er     0.75   0.4513   0.75
Er46     Er     0.7013   0.5   0.5
Er47     Er     0.7987   0.5   0.0
Er48     Er     0.75   0.5487   0.25
loop_
_geom_bond_atom_site_label_1
_geom_bond_atom_site_label_2
_geom_bond_distance
_geom_bond_site_symmetry_2
_ccdc_geom_bond_type
Er1     V31    10.0   1_544     S
Er1     V38    10.0   .     S
Er1     Er2    10.0   1_545     S
Er1     Er3    10.0   1_554     S
Er2     Er1    10.0   1_565     S
Er2     V33    10.0   .     S
Er2     V23    10.0   .     S
Er2     Er4    10.0   1_565     S
Er3     V41    10.0   .     S
Er3     V15    10.0   .     S
Er3     Er4    10.0   .     S
Er3     Er1    10.0   1_556     S
Er4     V17    10.0   1_545     S
Er4     V10    10.0   .     S
Er4     Er2    10.0   1_545     S
Er5     V30    10.0   1_544     S
Er5     V37    10.0   .     S
Er5     Er8    10.0   1_545     S
Er5     Er6    10.0   1_554     S
Er6     V16    10.0   .     S
Er6     V42    10.0   .     S
Er6     Er7    10.0   .     S
Er6     Er5    10.0   1_556     S
Er7     V19    10.0   1_545     S
Er7     V9    10.0   .     S
Er7     Er8    10.0   1_545     S
Er8     Er5    10.0   1_565     S
Er8     V24    10.0   .     S
Er8     V34    10.0   .     S
Er8     Er7    10.0   1_565     S
V9     V11    9.999   .     S
V9     V10    9.999   .     S
V9     V16    10.0   .     S
V10     V12    9.999   .     S
V10     V15    10.0   .     S
V11     V12    9.999   .     S
V11     V14    10.0   .     S
V11     Er46    10.0   .     S
V12     V13    10.0   .     S
V12     Er26    10.0   .     S
V13     V14    9.999   .     S
V13     V15    9.999   .     S
V13     Er25    10.0   .     S
V14     V16    9.999   .     S
V14     Er45    10.0   .     S
V15     V16    9.999   .     S
V17     Er4    10.0   1_565     S
V17     V18    9.999   .     S
V17     V19    9.999   .     S
V17     V23    10.0   .     S
V18     V20    9.999   .     S
V18     V21    10.0   .     S
V18     Er26    10.0   .     S
V19     Er7    10.0   1_565     S
V19     V20    9.999   .     S
V19     V24    10.0   .     S
V20     V22    10.0   .     S
V20     Er46    10.0   .     S
V21     V22    9.999   .     S
V21     V23    9.999   .     S
V21     Er28    10.0   .     S
V22     V24    9.999   .     S
V22     Er48    10.0   .     S
V23     V24    9.999   .     S
Er25     V44    10.0   .     S
Er25     Er26    10.0   .     S
Er25     Er27    10.0   1_556     S
Er26     Er28    10.0   .     S
Er27     V40    10.0   .     S
Er27     V32    10.0   1_554     S
Er27     Er28    10.0   .     S
Er27     Er25    10.0   1_554     S
Er28     V35    10.0   .     S
V29     V30    9.999   .     S
V29     V32    9.999   1_655     S
V29     V36    10.0   1_556     S
V29     Er47    10.0   1_556     S
V30     Er5    10.0   1_566     S
V30     V31    9.999   1_655     S
V30     V34    10.0   1_556     S
V31     Er1    10.0   1_566     S
V31     V30    9.999   1_455     S
V31     V32    9.999   .     S
V31     V33    10.0   1_556     S
V32     Er27    10.0   1_556     S
V32     V29    9.999   1_455     S
V32     V35    10.0   1_556     S
V33     V34    9.999   1_455     S
V33     V35    9.999   .     S
V33     V31    10.0   1_554     S
V34     V33    9.999   1_655     S
V34     V36    9.999   .     S
V34     V30    10.0   1_554     S
V35     V36    9.999   1_455     S
V35     V32    10.0   1_554     S
V36     V35    9.999   1_655     S
V36     V29    10.0   1_554     S
V36     Er48    10.0   .     S
V37     V39    9.999   .     S
V37     V38    9.999   1_655     S
V37     V42    10.0   1_554     S
V38     V40    9.999   .     S
V38     V37    9.999   1_455     S
V38     V41    10.0   1_554     S
V39     V40    9.999   1_655     S
V39     V43    10.0   1_554     S
V39     Er47    10.0   .     S
V40     V39    9.999   1_455     S
V40     V44    10.0   1_554     S
V41     V44    9.999   .     S
V41     V42    9.999   1_455     S
V41     V38    10.0   1_556     S
V42     V41    9.999   1_655     S
V42     V43    9.999   .     S
V42     V37    10.0   1_556     S
V43     V44    9.999   1_655     S
V43     V39    10.0   1_556     S
V43     Er45    10.0   .     S
V44     V43    9.999   1_455     S
V44     V40    10.0   1_556     S
Er45     Er46    10.0   .     S
Er45     Er47    10.0   1_556     S
Er46     Er48    10.0   .     S
Er47     V29    10.0   1_554     S
Er47     Er48    10.0   .     S
Er47     Er45    10.0   1_554     S
