data_fus
_audit_creation_date              2020-02-04
_audit_creation_method            'Pymatgen'
_symmetry_space_group_name_H-M    'P1'
_symmetry_Int_Tables_number       1
loop_
_symmetry_equiv_pos_as_xyz
  x,y,z
_cell_length_a                    48.2842
_cell_length_b                    48.2842
_cell_length_c                    48.2842
_cell_angle_alpha                 90.0
_cell_angle_beta                 90.0
_cell_angle_gamma                 90.0
loop_
_atom_site_label
_atom_site_type_symbol
_atom_site_fract_x
_atom_site_fract_y
_atom_site_fract_z
Er1     Er     0.3965   0.6036   0.8964
Er2     Er     0.3965   0.3965   0.8964
Er3     Er     0.6036   0.3965   0.8964
Er4     Er     0.6036   0.6036   0.8964
Er5     Er     0.6036   0.3965   0.1036
Er6     Er     0.6036   0.6036   0.1036
Er7     Er     0.3965   0.3965   0.1036
Er8     Er     0.3965   0.6036   0.1036
Er9     Er     0.3965   0.8964   0.6036
Er10     Er     0.3965   0.8964   0.3965
Er11     Er     0.6036   0.8964   0.3965
Er12     Er     0.6036   0.8964   0.6036
Er13     Er     0.3965   0.1036   0.6036
Er14     Er     0.3965   0.1036   0.3965
Er15     Er     0.6036   0.1036   0.3965
Er16     Er     0.6036   0.1036   0.6036
Er17     Er     0.1036   0.3965   0.6036
Er18     Er     0.1036   0.3965   0.3965
Er19     Er     0.1036   0.6036   0.6036
Er20     Er     0.1036   0.6036   0.3965
Er21     Er     0.8964   0.3965   0.6036
Er22     Er     0.8964   0.3965   0.3965
Er23     Er     0.8964   0.6036   0.3965
Er24     Er     0.8964   0.6036   0.6036
V25     V     0.25   0.25   0.8964
V26     V     0.25   0.25   0.1036
V27     V     0.25   0.8964   0.75
V28     V     0.25   0.1036   0.75
V29     V     0.25   0.75   0.8964
V30     V     0.25   0.75   0.1036
V31     V     0.25   0.8964   0.25
V32     V     0.25   0.1036   0.25
V33     V     0.8964   0.25   0.75
V34     V     0.1036   0.25   0.75
V35     V     0.75   0.25   0.8964
V36     V     0.75   0.25   0.1036
V37     V     0.8964   0.75   0.75
V38     V     0.1036   0.75   0.75
V39     V     0.75   0.8964   0.75
V40     V     0.75   0.1036   0.75
V41     V     0.75   0.75   0.8964
V42     V     0.75   0.75   0.1036
V43     V     0.8964   0.75   0.25
V44     V     0.1036   0.75   0.25
V45     V     0.75   0.8964   0.25
V46     V     0.75   0.1036   0.25
V47     V     0.8964   0.25   0.25
V48     V     0.1036   0.25   0.25
loop_
_geom_bond_atom_site_label_1
_geom_bond_atom_site_label_2
_geom_bond_distance
_geom_bond_site_symmetry_2
_ccdc_geom_bond_type
Er1     Er4    10.0   .     S
Er1     Er2    10.0   .     S
Er1     Er8    10.0   1_556     S
Er1     V29    10.0   .     S
Er2     Er3    10.0   .     S
Er2     Er7    10.0   1_556     S
Er2     V25    10.0   .     S
Er3     Er4    10.0   .     S
Er3     Er5    10.0   1_556     S
Er3     V35    10.0   .     S
Er4     Er6    10.0   1_556     S
Er4     V41    10.0   .     S
Er5     Er6    10.0   .     S
Er5     Er3    10.0   1_554     S
Er5     Er7    10.0   .     S
Er5     V36    10.0   .     S
Er6     Er4    10.0   1_554     S
Er6     Er8    10.0   .     S
Er6     V42    10.0   .     S
Er7     Er8    10.0   .     S
Er7     Er2    10.0   1_554     S
Er7     V26    10.0   .     S
Er8     Er1    10.0   1_554     S
Er8     V30    10.0   .     S
Er9     Er12    10.0   .     S
Er9     Er10    10.0   .     S
Er9     Er13    10.0   1_565     S
Er9     V27    10.0   .     S
Er10     Er11    10.0   .     S
Er10     Er14    10.0   1_565     S
Er10     V31    10.0   .     S
Er11     Er12    10.0   .     S
Er11     Er15    10.0   1_565     S
Er11     V45    10.0   .     S
Er12     Er16    10.0   1_565     S
Er12     V39    10.0   .     S
Er13     Er16    10.0   .     S
Er13     Er9    10.0   1_545     S
Er13     Er14    10.0   .     S
Er13     V28    10.0   .     S
Er14     Er15    10.0   .     S
Er14     Er10    10.0   1_545     S
Er14     V32    10.0   .     S
Er15     Er16    10.0   .     S
Er15     Er11    10.0   1_545     S
Er15     V46    10.0   .     S
Er16     Er12    10.0   1_545     S
Er16     V40    10.0   .     S
Er17     Er19    10.0   .     S
Er17     Er21    10.0   1_455     S
Er17     Er18    10.0   .     S
Er17     V34    10.0   .     S
Er18     Er20    10.0   .     S
Er18     Er22    10.0   1_455     S
Er18     V48    10.0   .     S
Er19     Er24    10.0   1_455     S
Er19     Er20    10.0   .     S
Er19     V38    10.0   .     S
Er20     Er23    10.0   1_455     S
Er20     V44    10.0   .     S
Er21     Er17    10.0   1_655     S
Er21     Er24    10.0   .     S
Er21     Er22    10.0   .     S
Er21     V33    10.0   .     S
Er22     Er18    10.0   1_655     S
Er22     Er23    10.0   .     S
Er22     V47    10.0   .     S
Er23     Er20    10.0   1_655     S
Er23     Er24    10.0   .     S
Er23     V43    10.0   .     S
Er24     Er19    10.0   1_655     S
Er24     V37    10.0   .     S
V25     V34    10.0   .     S
V25     V28    10.0   .     S
V25     V26    10.0   1_556     S
V26     V32    10.0   .     S
V26     V48    10.0   .     S
V26     V25    10.0   1_554     S
V27     V28    10.0   1_565     S
V27     V38    10.0   .     S
V27     V29    10.0   .     S
V28     V34    10.0   .     S
V28     V27    10.0   1_545     S
V29     V38    10.0   .     S
V29     V30    10.0   1_556     S
V30     V29    10.0   1_554     S
V30     V44    10.0   .     S
V30     V31    10.0   .     S
V31     V44    10.0   .     S
V31     V32    10.0   1_565     S
V32     V48    10.0   .     S
V32     V31    10.0   1_545     S
V33     V34    10.0   1_655     S
V33     V40    10.0   .     S
V33     V35    10.0   .     S
V34     V33    10.0   1_455     S
V35     V40    10.0   .     S
V35     V36    10.0   1_556     S
V36     V35    10.0   1_554     S
V36     V46    10.0   .     S
V36     V47    10.0   .     S
V37     V38    10.0   1_655     S
V37     V39    10.0   .     S
V37     V41    10.0   .     S
V38     V37    10.0   1_455     S
V39     V40    10.0   1_565     S
V39     V41    10.0   .     S
V40     V39    10.0   1_545     S
V41     V42    10.0   1_556     S
V42     V41    10.0   1_554     S
V42     V45    10.0   .     S
V42     V43    10.0   .     S
V43     V44    10.0   1_655     S
V43     V45    10.0   .     S
V44     V43    10.0   1_455     S
V45     V46    10.0   1_565     S
V46     V45    10.0   1_545     S
V46     V47    10.0   .     S
V47     V48    10.0   1_655     S
V48     V47    10.0   1_455     S
