data_fuu
_audit_creation_date              2020-02-04
_audit_creation_method            'Pymatgen'
_symmetry_space_group_name_H-M    'P1'
_symmetry_Int_Tables_number       1
loop_
_symmetry_equiv_pos_as_xyz
  x,y,z
_cell_length_a                    55.6549
_cell_length_b                    55.6549
_cell_length_c                    68.2581
_cell_angle_alpha                 90.0
_cell_angle_beta                 90.0
_cell_angle_gamma                 120.0
loop_
_atom_site_label
_atom_site_type_symbol
_atom_site_fract_x
_atom_site_fract_y
_atom_site_fract_z
V1     V     0.6984   0.939   0.9407
V2     V     0.6984   0.7594   0.9407
Er3     Er     0.5651   0.9506   0.8483
Er4     Er     0.7682   0.0521   0.8184
Er5     Er     0.5651   0.6146   0.8483
Er6     Er     0.7682   0.7161   0.8184
V7     V     0.6349   0.9073   0.7259
V8     V     0.6349   0.7276   0.7259
V9     V     0.2406   0.939   0.9407
V10     V     0.061   0.7594   0.9407
Er11     Er     0.0494   0.6146   0.8483
Er12     Er     0.9479   0.7161   0.8184
V13     V     0.0927   0.7276   0.7259
V14     V     0.2724   0.9073   0.7259
Er15     Er     0.2839   0.0521   0.8184
Er16     Er     0.3854   0.9506   0.8483
Er17     Er     0.3828   0.1015   0.515
Er18     Er     0.2812   0.8985   0.485
V19     V     0.426   0.0317   0.3926
V20     V     0.6057   0.0317   0.3926
V21     V     0.3943   0.9683   0.6074
V22     V     0.574   0.9683   0.6074
Er23     Er     0.7188   0.1015   0.515
Er24     Er     0.6172   0.8985   0.485
Er25     Er     0.6146   0.5651   0.1517
Er26     Er     0.7161   0.7682   0.1816
V27     V     0.9073   0.6349   0.2741
V28     V     0.7276   0.6349   0.2741
Er29     Er     0.0521   0.7682   0.1816
Er30     Er     0.9506   0.5651   0.1517
V31     V     0.7594   0.6984   0.0593
V32     V     0.939   0.6984   0.0593
Er33     Er     0.7161   0.9479   0.1816
Er34     Er     0.6146   0.0494   0.1517
Er35     Er     0.9506   0.3854   0.1517
Er36     Er     0.0521   0.2839   0.1816
V37     V     0.7276   0.0927   0.2741
V38     V     0.9073   0.2724   0.2741
V39     V     0.7594   0.061   0.0593
V40     V     0.939   0.2406   0.0593
V41     V     0.3016   0.2406   0.0593
V42     V     0.3651   0.0927   0.2741
V43     V     0.3651   0.2724   0.2741
Er44     Er     0.4349   0.3854   0.1517
Er45     Er     0.2318   0.2839   0.1816
Er46     Er     0.2318   0.9479   0.1816
Er47     Er     0.4349   0.0494   0.1517
V48     V     0.3016   0.061   0.0593
V49     V     0.0317   0.6057   0.6074
Er50     Er     0.1015   0.7188   0.485
Er51     Er     0.8985   0.6172   0.515
Er52     Er     0.8985   0.2812   0.515
Er53     Er     0.1015   0.3828   0.485
V54     V     0.9683   0.574   0.3926
V55     V     0.9683   0.3943   0.3926
V56     V     0.0317   0.426   0.6074
Er57     Er     0.9479   0.2318   0.8184
Er58     Er     0.0494   0.4349   0.8483
V59     V     0.061   0.3016   0.9407
V60     V     0.0927   0.3651   0.7259
V61     V     0.2724   0.3651   0.7259
Er62     Er     0.2839   0.2318   0.8184
Er63     Er     0.3854   0.4349   0.8483
V64     V     0.2406   0.3016   0.9407
V65     V     0.574   0.6057   0.6074
V66     V     0.3943   0.426   0.6074
Er67     Er     0.7188   0.6172   0.515
Er68     Er     0.6172   0.7188   0.485
Er69     Er     0.3828   0.2812   0.515
Er70     Er     0.2812   0.3828   0.485
V71     V     0.6057   0.574   0.3926
V72     V     0.426   0.3943   0.3926
loop_
_geom_bond_atom_site_label_1
_geom_bond_atom_site_label_2
_geom_bond_distance
_geom_bond_site_symmetry_2
_ccdc_geom_bond_type
V1     V2    10.0   .     S
V1     Er4    10.0   1_565     S
V1     Er3    10.0   .     S
V1     V39    10.0   1_566     S
V2     Er6    10.0   .     S
V2     Er5    10.0   .     S
V2     V31    10.0   1_556     S
Er3     Er16    10.001   .     S
Er3     Er4    9.999   1_565     S
Er3     V7    10.0   .     S
Er4     Er57    10.001   .     S
Er4     V1    10.0   1_545     S
Er4     Er3    9.999   1_545     S
Er4     V7    10.0   1_545     S
Er5     Er63    10.001   .     S
Er5     Er6    9.999   .     S
Er5     V8    10.0   .     S
Er6     Er12    10.001   .     S
Er6     V8    10.0   .     S
V7     Er4    10.0   1_565     S
V7     V8    10.0   .     S
V7     V22    10.0   .     S
V8     V65    10.0   .     S
V9     V10    10.0   .     S
V9     Er15    10.0   1_565     S
V9     Er16    10.0   .     S
V9     V48    10.0   1_566     S
V10     Er12    10.0   1_455     S
V10     Er11    10.0   .     S
V10     V32    10.0   1_456     S
Er11     Er58    10.001   .     S
Er11     Er12    9.999   1_455     S
Er11     V13    10.0   .     S
Er12     V10    10.0   1_655     S
Er12     Er11    9.999   1_655     S
Er12     V13    10.0   1_655     S
V13     Er12    10.0   1_455     S
V13     V14    10.0   .     S
V13     V49    10.0   .     S
V14     Er15    10.0   1_565     S
V14     Er16    10.0   .     S
V14     V21    10.0   .     S
Er15     V9    10.0   1_545     S
Er15     Er16    9.999   1_545     S
Er15     V14    10.0   1_545     S
Er15     Er62    10.001   .     S
Er16     Er15    9.999   1_565     S
Er17     Er18    9.999   1_545     S
Er17     V21    10.0   1_545     S
Er17     V19    10.0   .     S
Er17     Er69    10.001   .     S
Er18     Er50    10.001   .     S
Er18     Er17    9.999   1_565     S
Er18     V19    10.0   1_565     S
Er18     V21    10.0   .     S
V19     Er18    10.0   1_545     S
V19     V20    10.0   .     S
V19     V42    10.0   .     S
V20     Er24    10.0   1_545     S
V20     Er23    10.0   .     S
V20     V37    10.0   .     S
V21     Er17    10.0   1_565     S
V21     V22    10.0   .     S
V22     Er23    10.0   1_565     S
V22     Er24    10.0   .     S
Er23     Er52    10.001   .     S
Er23     Er24    9.999   1_545     S
Er23     V22    10.0   1_545     S
Er24     Er23    9.999   1_565     S
Er24     V20    10.0   1_565     S
Er24     Er68    10.001   .     S
Er25     Er44    10.001   .     S
Er25     Er26    9.999   .     S
Er25     V31    10.0   .     S
Er25     V28    10.0   .     S
Er26     Er33    10.001   .     S
Er26     V28    10.0   .     S
Er26     V31    10.0   .     S
V27     V28    10.0   .     S
V27     Er30    10.0   .     S
V27     Er29    10.0   1_655     S
V27     V54    10.0   .     S
V28     V71    10.0   .     S
Er29     Er46    10.001   .     S
Er29     Er30    9.999   1_455     S
Er29     V27    10.0   1_455     S
Er29     V32    10.0   1_455     S
Er30     Er35    10.001   .     S
Er30     Er29    9.999   1_655     S
Er30     V32    10.0   .     S
V31     V32    10.0   .     S
V31     V2    10.0   1_554     S
V32     Er29    10.0   1_655     S
V32     V10    10.0   1_654     S
Er33     Er34    9.999   1_565     S
Er33     V37    10.0   1_565     S
Er33     V39    10.0   1_565     S
Er34     Er47    10.001   .     S
Er34     Er33    9.999   1_545     S
Er34     V39    10.0   .     S
Er34     V37    10.0   .     S
Er35     Er36    9.999   1_655     S
Er35     V40    10.0   .     S
Er35     V38    10.0   .     S
Er36     Er35    9.999   1_455     S
Er36     V38    10.0   1_455     S
Er36     V40    10.0   1_455     S
Er36     Er45    10.001   .     S
V37     Er33    10.0   1_545     S
V37     V38    10.0   .     S
V38     Er36    10.0   1_655     S
V38     V55    10.0   .     S
V39     V40    10.0   .     S
V39     Er33    10.0   1_545     S
V39     V1    10.0   1_544     S
V40     Er36    10.0   1_655     S
V40     V59    10.0   1_654     S
V41     V48    10.0   .     S
V41     Er44    10.0   .     S
V41     Er45    10.0   .     S
V41     V64    10.0   1_554     S
V42     V43    10.0   .     S
V42     Er47    10.0   .     S
V42     Er46    10.0   1_545     S
V43     Er44    10.0   .     S
V43     Er45    10.0   .     S
V43     V72    10.0   .     S
Er44     Er45    9.999   .     S
Er46     Er47    9.999   1_565     S
Er46     V42    10.0   1_565     S
Er46     V48    10.0   1_565     S
Er47     Er46    9.999   1_545     S
Er47     V48    10.0   .     S
V48     Er46    10.0   1_545     S
V48     V9    10.0   1_544     S
V49     V56    10.0   .     S
V49     Er51    10.0   1_455     S
V49     Er50    10.0   .     S
Er50     Er51    9.999   1_455     S
Er50     V54    10.0   1_455     S
Er51     Er50    9.999   1_655     S
Er51     V49    10.0   1_655     S
Er51     V54    10.0   .     S
Er51     Er67    10.001   .     S
Er52     Er53    9.999   1_655     S
Er52     V56    10.0   1_655     S
Er52     V55    10.0   .     S
Er53     Er52    9.999   1_455     S
Er53     V55    10.0   1_455     S
Er53     V56    10.0   .     S
Er53     Er70    10.001   .     S
V54     Er50    10.0   1_655     S
V54     V55    10.0   .     S
V55     Er53    10.0   1_655     S
V56     Er52    10.0   1_455     S
V56     V60    10.0   .     S
Er57     Er58    9.999   1_655     S
Er57     V60    10.0   1_655     S
Er57     V59    10.0   1_655     S
Er58     Er57    9.999   1_455     S
Er58     V59    10.0   .     S
Er58     V60    10.0   .     S
V59     Er57    10.0   1_455     S
V59     V64    10.0   .     S
V59     V40    10.0   1_456     S
V60     Er57    10.0   1_455     S
V60     V61    10.0   .     S
V61     Er63    10.0   .     S
V61     Er62    10.0   .     S
V61     V66    10.0   .     S
Er62     Er63    9.999   .     S
Er62     V64    10.0   .     S
Er63     V64    10.0   .     S
V64     V41    10.0   1_556     S
V65     V66    10.0   .     S
V65     Er67    10.0   .     S
V65     Er68    10.0   .     S
V66     Er70    10.0   .     S
V66     Er69    10.0   .     S
Er67     Er68    9.999   .     S
Er67     V71    10.0   .     S
Er68     V71    10.0   .     S
Er69     Er70    9.999   .     S
Er69     V72    10.0   .     S
Er70     V72    10.0   .     S
V71     V72    10.0   .     S
