data_fuz
_audit_creation_date              2020-02-04
_audit_creation_method            'Pymatgen'
_symmetry_space_group_name_H-M    'P1'
_symmetry_Int_Tables_number       1
loop_
_symmetry_equiv_pos_as_xyz
  x,y,z
_cell_length_a                    52.3153
_cell_length_b                    52.3153
_cell_length_c                    52.3153
_cell_angle_alpha                 90.0
_cell_angle_beta                 90.0
_cell_angle_gamma                 90.0
loop_
_atom_site_label
_atom_site_type_symbol
_atom_site_fract_x
_atom_site_fract_y
_atom_site_fract_z
V1     V     0.8648   0.1352   0.0
V2     V     0.8648   0.0   0.1352
V3     V     0.0   0.1352   0.8648
V4     V     0.0   0.8648   0.1352
V5     V     0.1352   0.8648   0.0
V6     V     0.1352   0.0   0.8648
Er7     Er     0.5552   0.42   0.6903
Er8     Er     0.6903   0.42   0.5552
Er9     Er     0.6903   0.5552   0.42
Er10     Er     0.5552   0.6903   0.42
Er11     Er     0.42   0.6903   0.5552
Er12     Er     0.42   0.5552   0.6903
Er13     Er     0.4448   0.58   0.3097
Er14     Er     0.3097   0.58   0.4448
Er15     Er     0.58   0.3097   0.4448
Er16     Er     0.58   0.4448   0.3097
Er17     Er     0.4448   0.3097   0.58
Er18     Er     0.3097   0.4448   0.58
V19     V     0.6352   0.5   0.1352
V20     V     0.5   0.6352   0.1352
V21     V     0.6352   0.3648   0.0
V22     V     0.3648   0.6352   0.0
V23     V     0.3648   0.5   0.8648
V24     V     0.5   0.3648   0.8648
Er25     Er     0.0552   0.58   0.1903
Er26     Er     0.1903   0.58   0.0552
Er27     Er     0.1903   0.4448   0.92
Er28     Er     0.92   0.4448   0.1903
Er29     Er     0.92   0.3097   0.0552
Er30     Er     0.0552   0.3097   0.92
Er31     Er     0.8097   0.42   0.9448
Er32     Er     0.9448   0.42   0.8097
Er33     Er     0.8097   0.5552   0.08
Er34     Er     0.9448   0.6903   0.08
Er35     Er     0.08   0.5552   0.8097
Er36     Er     0.08   0.6903   0.9448
Er37     Er     0.58   0.0552   0.1903
Er38     Er     0.58   0.1903   0.0552
Er39     Er     0.4448   0.92   0.1903
Er40     Er     0.4448   0.1903   0.92
Er41     Er     0.3097   0.0552   0.92
Er42     Er     0.3097   0.92   0.0552
Er43     Er     0.42   0.9448   0.8097
Er44     Er     0.42   0.8097   0.9448
Er45     Er     0.5552   0.8097   0.08
Er46     Er     0.6903   0.9448   0.08
Er47     Er     0.5552   0.08   0.8097
Er48     Er     0.6903   0.08   0.9448
V49     V     0.5   0.1352   0.6352
V50     V     0.6352   0.1352   0.5
V51     V     0.6352   0.0   0.3648
V52     V     0.3648   0.0   0.6352
V53     V     0.3648   0.8648   0.5
V54     V     0.5   0.8648   0.3648
Er55     Er     0.0552   0.1903   0.58
Er56     Er     0.1903   0.0552   0.58
Er57     Er     0.1903   0.92   0.4448
Er58     Er     0.92   0.1903   0.4448
Er59     Er     0.92   0.0552   0.3097
Er60     Er     0.0552   0.92   0.3097
Er61     Er     0.9448   0.8097   0.42
Er62     Er     0.8097   0.9448   0.42
Er63     Er     0.08   0.8097   0.5552
Er64     Er     0.08   0.9448   0.6903
Er65     Er     0.8097   0.08   0.5552
Er66     Er     0.9448   0.08   0.6903
V67     V     0.1352   0.5   0.6352
V68     V     0.1352   0.6352   0.5
V69     V     0.0   0.6352   0.3648
V70     V     0.0   0.3648   0.6352
V71     V     0.8648   0.3648   0.5
V72     V     0.8648   0.5   0.3648
loop_
_geom_bond_atom_site_label_1
_geom_bond_atom_site_label_2
_geom_bond_distance
_geom_bond_site_symmetry_2
_ccdc_geom_bond_type
V1     V2    10.0   .     S
V1     V3    10.0   1_654     S
V1     Er29    10.0   .     S
V1     Er48    10.0   1_554     S
V2     V4    10.0   1_645     S
V2     Er59    10.0   .     S
V2     Er46    10.0   1_545     S
V3     V1    10.0   1_456     S
V3     V6    10.0   .     S
V3     Er30    10.0   .     S
V3     Er66    10.0   1_455     S
V4     V2    10.0   1_465     S
V4     V5    10.0   .     S
V4     Er60    10.0   .     S
V4     Er34    10.0   1_455     S
V5     V6    10.0   1_564     S
V5     Er42    10.0   .     S
V5     Er36    10.0   1_554     S
V6     V5    10.0   1_546     S
V6     Er41    10.0   .     S
V6     Er64    10.0   1_545     S
Er7     Er8    10.0   .     S
Er7     Er12    10.0   .     S
Er7     Er17    10.0   .     S
Er7     V24    10.0   .     S
Er8     Er9    10.0   .     S
Er8     Er15    10.0   .     S
Er8     V71    10.0   .     S
Er9     Er10    10.0   .     S
Er9     Er16    10.0   .     S
Er9     V72    10.0   .     S
Er10     Er11    10.0   .     S
Er10     Er13    10.0   .     S
Er10     V54    10.0   .     S
Er11     Er12    10.0   .     S
Er11     Er14    10.0   .     S
Er11     V53    10.0   .     S
Er12     Er18    10.0   .     S
Er12     V23    10.0   .     S
Er13     Er14    10.0   .     S
Er13     Er16    10.0   .     S
Er13     V20    10.0   .     S
Er14     Er18    10.0   .     S
Er14     V68    10.0   .     S
Er15     Er16    10.0   .     S
Er15     Er17    10.0   .     S
Er15     V50    10.0   .     S
Er16     V19    10.0   .     S
Er17     Er18    10.0   .     S
Er17     V49    10.0   .     S
Er18     V67    10.0   .     S
V19     V20    10.0   .     S
V19     V21    10.0   .     S
V19     Er33    10.0   .     S
V20     V22    10.0   .     S
V20     Er45    10.0   .     S
V21     V24    10.0   1_554     S
V21     Er38    10.0   .     S
V21     Er31    10.0   1_554     S
V22     V23    10.0   1_554     S
V22     Er26    10.0   .     S
V22     Er44    10.0   1_554     S
V23     V22    10.0   1_556     S
V23     V24    10.0   .     S
V23     Er27    10.0   .     S
V24     V21    10.0   1_556     S
V24     Er40    10.0   .     S
Er25     Er26    10.0   .     S
Er25     Er28    10.0   1_455     S
Er25     Er34    10.0   1_455     S
Er25     V69    10.0   .     S
Er26     Er27    10.0   1_554     S
Er26     Er36    10.0   1_554     S
Er27     Er26    10.0   1_556     S
Er27     Er30    10.0   .     S
Er27     Er35    10.0   .     S
Er28     Er25    10.0   1_655     S
Er28     Er29    10.0   .     S
Er28     Er33    10.0   .     S
Er28     V72    10.0   .     S
Er29     Er30    10.0   1_654     S
Er29     Er31    10.0   1_554     S
Er30     Er29    10.0   1_456     S
Er30     Er32    10.0   1_455     S
Er31     Er33    10.0   1_556     S
Er31     Er32    10.0   .     S
Er31     Er29    10.0   1_556     S
Er31     V21    10.0   1_556     S
Er32     Er35    10.0   1_655     S
Er32     Er30    10.0   1_655     S
Er32     V70    10.0   1_655     S
Er33     Er31    10.0   1_554     S
Er33     Er34    10.0   .     S
Er34     Er25    10.0   1_655     S
Er34     Er36    10.0   1_654     S
Er34     V4    10.0   1_655     S
Er35     Er36    10.0   .     S
Er35     Er32    10.0   1_455     S
Er35     V67    10.0   .     S
Er36     Er26    10.0   1_556     S
Er36     Er34    10.0   1_456     S
Er36     V5    10.0   1_556     S
Er37     Er38    10.0   .     S
Er37     Er39    10.0   1_545     S
Er37     Er46    10.0   1_545     S
Er37     V51    10.0   .     S
Er38     Er40    10.0   1_554     S
Er38     Er48    10.0   1_554     S
Er39     Er37    10.0   1_565     S
Er39     Er42    10.0   .     S
Er39     Er45    10.0   .     S
Er39     V54    10.0   .     S
Er40     Er38    10.0   1_556     S
Er40     Er41    10.0   .     S
Er40     Er47    10.0   .     S
Er41     Er42    10.0   1_546     S
Er41     Er43    10.0   1_545     S
Er42     Er41    10.0   1_564     S
Er42     Er44    10.0   1_554     S
Er43     Er47    10.0   1_565     S
Er43     Er44    10.0   .     S
Er43     Er41    10.0   1_565     S
Er43     V52    10.0   1_565     S
Er44     Er45    10.0   1_556     S
Er44     Er42    10.0   1_556     S
Er44     V22    10.0   1_556     S
Er45     Er46    10.0   .     S
Er45     Er44    10.0   1_554     S
Er46     Er37    10.0   1_565     S
Er46     Er48    10.0   1_564     S
Er46     V2    10.0   1_565     S
Er47     Er43    10.0   1_545     S
Er47     Er48    10.0   .     S
Er47     V49    10.0   .     S
Er48     Er38    10.0   1_556     S
Er48     Er46    10.0   1_546     S
Er48     V1    10.0   1_556     S
V49     V50    10.0   .     S
V49     V52    10.0   .     S
V50     V51    10.0   .     S
V50     Er65    10.0   .     S
V51     V54    10.0   1_545     S
V51     Er62    10.0   1_545     S
V52     V53    10.0   1_545     S
V52     Er56    10.0   .     S
V52     Er43    10.0   1_545     S
V53     V52    10.0   1_565     S
V53     V54    10.0   .     S
V53     Er57    10.0   .     S
V54     V51    10.0   1_565     S
Er55     Er56    10.0   .     S
Er55     Er58    10.0   1_455     S
Er55     Er66    10.0   1_455     S
Er55     V70    10.0   .     S
Er56     Er57    10.0   1_545     S
Er56     Er64    10.0   1_545     S
Er57     Er56    10.0   1_565     S
Er57     Er60    10.0   .     S
Er57     Er63    10.0   .     S
Er58     Er55    10.0   1_655     S
Er58     Er59    10.0   .     S
Er58     Er65    10.0   .     S
Er58     V71    10.0   .     S
Er59     Er60    10.0   1_645     S
Er59     Er62    10.0   1_545     S
Er60     Er59    10.0   1_465     S
Er60     Er61    10.0   1_455     S
Er61     Er63    10.0   1_655     S
Er61     Er62    10.0   .     S
Er61     Er60    10.0   1_655     S
Er61     V69    10.0   1_655     S
Er62     Er65    10.0   1_565     S
Er62     Er59    10.0   1_565     S
Er62     V51    10.0   1_565     S
Er63     Er61    10.0   1_455     S
Er63     Er64    10.0   .     S
Er63     V68    10.0   .     S
Er64     Er56    10.0   1_565     S
Er64     Er66    10.0   1_465     S
Er64     V6    10.0   1_565     S
Er65     Er66    10.0   .     S
Er65     Er62    10.0   1_545     S
Er66     Er55    10.0   1_655     S
Er66     Er64    10.0   1_645     S
Er66     V3    10.0   1_655     S
V67     V68    10.0   .     S
V67     V70    10.0   .     S
V68     V69    10.0   .     S
V69     V72    10.0   1_455     S
V69     Er61    10.0   1_455     S
V70     V71    10.0   1_455     S
V70     Er32    10.0   1_455     S
V71     V70    10.0   1_655     S
V71     V72    10.0   .     S
V72     V69    10.0   1_655     S
