data_fva
_audit_creation_date              2020-02-04
_audit_creation_method            'Pymatgen'
_symmetry_space_group_name_H-M    'P1'
_symmetry_Int_Tables_number       1
loop_
_symmetry_equiv_pos_as_xyz
  x,y,z
_cell_length_a                    43.3684
_cell_length_b                    43.3684
_cell_length_c                    50.647
_cell_angle_alpha                 90.0
_cell_angle_beta                 90.0
_cell_angle_gamma                 90.0
loop_
_atom_site_label
_atom_site_type_symbol
_atom_site_fract_x
_atom_site_fract_y
_atom_site_fract_z
V1     V     0.3847   0.8847   0.0
V2     V     0.6153   0.8847   0.0
V3     V     0.6153   0.1153   0.0
V4     V     0.3847   0.1153   0.0
Er5     Er     0.2783   0.8847   0.1752
Er6     Er     0.2783   0.1153   0.1752
Er7     Er     0.6153   0.7783   0.3248
Er8     Er     0.3847   0.7783   0.3248
Er9     Er     0.7217   0.8847   0.1752
Er10     Er     0.7217   0.1153   0.1752
Er11     Er     0.3847   0.2217   0.3248
Er12     Er     0.6153   0.2217   0.3248
V13     V     0.6153   0.8847   0.5
V14     V     0.3847   0.8847   0.5
V15     V     0.6153   0.1153   0.5
V16     V     0.3847   0.1153   0.5
Er17     Er     0.2783   0.8847   0.8248
Er18     Er     0.2783   0.1153   0.8248
Er19     Er     0.3847   0.2217   0.6752
Er20     Er     0.6153   0.2217   0.6752
Er21     Er     0.3847   0.7783   0.6752
Er22     Er     0.6153   0.7783   0.6752
Er23     Er     0.7217   0.8847   0.8248
Er24     Er     0.7217   0.1153   0.8248
V25     V     0.8847   0.6153   0.0
V26     V     0.8847   0.3847   0.0
V27     V     0.1153   0.3847   0.0
V28     V     0.1153   0.6153   0.0
Er29     Er     0.7783   0.3847   0.3248
Er30     Er     0.7783   0.6153   0.3248
Er31     Er     0.8847   0.7217   0.1752
Er32     Er     0.1153   0.7217   0.1752
Er33     Er     0.2217   0.3847   0.3248
Er34     Er     0.2217   0.6153   0.3248
Er35     Er     0.8847   0.2783   0.1752
Er36     Er     0.1153   0.2783   0.1752
V37     V     0.8847   0.3847   0.5
V38     V     0.8847   0.6153   0.5
V39     V     0.1153   0.6153   0.5
V40     V     0.1153   0.3847   0.5
Er41     Er     0.8847   0.2783   0.8248
Er42     Er     0.1153   0.2783   0.8248
Er43     Er     0.2217   0.3847   0.6752
Er44     Er     0.2217   0.6153   0.6752
Er45     Er     0.7783   0.6153   0.6752
Er46     Er     0.7783   0.3847   0.6752
Er47     Er     0.8847   0.7217   0.8248
Er48     Er     0.1153   0.7217   0.8248
loop_
_geom_bond_atom_site_label_1
_geom_bond_atom_site_label_2
_geom_bond_distance
_geom_bond_site_symmetry_2
_ccdc_geom_bond_type
V1     V2    10.0   .     S
V1     V4    10.0   1_565     S
V1     Er5    10.0   .     S
V1     Er17    10.0   1_554     S
V2     V3    10.0   1_565     S
V2     Er9    10.0   .     S
V2     Er23    10.0   1_554     S
V3     V4    10.0   .     S
V3     V2    10.0   1_545     S
V3     Er10    10.0   .     S
V3     Er24    10.0   1_554     S
V4     V1    10.0   1_545     S
V4     Er6    10.0   .     S
V4     Er18    10.0   1_554     S
Er5     Er6    10.0   1_565     S
Er5     Er8    10.0   .     S
Er5     Er32    10.0   .     S
Er6     Er5    10.0   1_545     S
Er6     Er11    10.0   .     S
Er6     Er36    10.0   .     S
Er7     V13    10.0   .     S
Er7     Er8    10.0   .     S
Er7     Er9    10.0   .     S
Er7     Er30    10.0   .     S
Er8     V14    10.0   .     S
Er8     Er34    10.0   .     S
Er9     Er10    10.0   1_565     S
Er9     Er31    10.0   .     S
Er10     Er9    10.0   1_545     S
Er10     Er12    10.0   .     S
Er10     Er35    10.0   .     S
Er11     V16    10.0   .     S
Er11     Er12    10.0   .     S
Er11     Er33    10.0   .     S
Er12     V15    10.0   .     S
Er12     Er29    10.0   .     S
V13     V14    10.0   .     S
V13     V15    10.0   1_565     S
V13     Er22    10.0   .     S
V14     V16    10.0   1_565     S
V14     Er21    10.0   .     S
V15     V16    10.0   .     S
V15     V13    10.0   1_545     S
V15     Er20    10.0   .     S
V16     V14    10.0   1_545     S
V16     Er19    10.0   .     S
Er17     V1    10.0   1_556     S
Er17     Er18    10.0   1_565     S
Er17     Er21    10.0   .     S
Er17     Er48    10.0   .     S
Er18     V4    10.0   1_556     S
Er18     Er17    10.0   1_545     S
Er18     Er19    10.0   .     S
Er18     Er42    10.0   .     S
Er19     Er20    10.0   .     S
Er19     Er43    10.0   .     S
Er20     Er24    10.0   .     S
Er20     Er46    10.0   .     S
Er21     Er22    10.0   .     S
Er21     Er44    10.0   .     S
Er22     Er23    10.0   .     S
Er22     Er45    10.0   .     S
Er23     V2    10.0   1_556     S
Er23     Er24    10.0   1_565     S
Er23     Er47    10.0   .     S
Er24     V3    10.0   1_556     S
Er24     Er23    10.0   1_545     S
Er24     Er41    10.0   .     S
V25     V26    10.0   .     S
V25     V28    10.0   1_655     S
V25     Er31    10.0   .     S
V25     Er47    10.0   1_554     S
V26     V27    10.0   1_655     S
V26     Er35    10.0   .     S
V26     Er41    10.0   1_554     S
V27     V28    10.0   .     S
V27     V26    10.0   1_455     S
V27     Er36    10.0   .     S
V27     Er42    10.0   1_554     S
V28     V25    10.0   1_455     S
V28     Er32    10.0   .     S
V28     Er48    10.0   1_554     S
Er29     V37    10.0   .     S
Er29     Er30    10.0   .     S
Er29     Er35    10.0   .     S
Er30     V38    10.0   .     S
Er30     Er31    10.0   .     S
Er31     Er32    10.0   1_655     S
Er32     Er31    10.0   1_455     S
Er32     Er34    10.0   .     S
Er33     V40    10.0   .     S
Er33     Er34    10.0   .     S
Er33     Er36    10.0   .     S
Er34     V39    10.0   .     S
Er35     Er36    10.0   1_655     S
Er36     Er35    10.0   1_455     S
V37     V38    10.0   .     S
V37     V40    10.0   1_655     S
V37     Er46    10.0   .     S
V38     V39    10.0   1_655     S
V38     Er45    10.0   .     S
V39     V40    10.0   .     S
V39     V38    10.0   1_455     S
V39     Er44    10.0   .     S
V40     V37    10.0   1_455     S
V40     Er43    10.0   .     S
Er41     V26    10.0   1_556     S
Er41     Er42    10.0   1_655     S
Er41     Er46    10.0   .     S
Er42     V27    10.0   1_556     S
Er42     Er41    10.0   1_455     S
Er42     Er43    10.0   .     S
Er43     Er44    10.0   .     S
Er44     Er48    10.0   .     S
Er45     Er46    10.0   .     S
Er45     Er47    10.0   .     S
Er47     V25    10.0   1_556     S
Er47     Er48    10.0   1_655     S
Er48     V28    10.0   1_556     S
Er48     Er47    10.0   1_455     S
