data_fvc
_audit_creation_date              2020-02-04
_audit_creation_method            'Pymatgen'
_symmetry_space_group_name_H-M    'P1'
_symmetry_Int_Tables_number       1
loop_
_symmetry_equiv_pos_as_xyz
  x,y,z
_cell_length_a                    41.5734
_cell_length_b                    41.5734
_cell_length_c                    64.6396
_cell_angle_alpha                 90.0
_cell_angle_beta                 90.0
_cell_angle_gamma                 120.0
loop_
_atom_site_label
_atom_site_type_symbol
_atom_site_fract_x
_atom_site_fract_y
_atom_site_fract_z
V1     V     0.0   0.7595   0.3273
V2     V     0.0   0.7595   0.1726
V3     V     0.2405   0.0   0.1726
V4     V     0.2405   0.0   0.3274
V5     V     0.2405   0.2405   0.3273
V6     V     0.2405   0.2405   0.1726
V7     V     0.0   0.2405   0.1726
V8     V     0.0   0.2405   0.3274
V9     V     0.7595   0.0   0.3273
V10     V     0.7595   0.0   0.1726
V11     V     0.7595   0.7595   0.1726
V12     V     0.7595   0.7595   0.3274
Er13     Er     0.4261   0.3333   0.9424
Er14     Er     0.6667   0.5739   0.9424
Er15     Er     0.3333   0.4261   0.0576
Er16     Er     0.5739   0.6667   0.0576
Er17     Er     0.0928   0.4261   0.0576
Er18     Er     0.0928   0.6667   0.0576
Er19     Er     0.9072   0.3333   0.9424
Er20     Er     0.9072   0.5739   0.9424
Er21     Er     0.4261   0.0928   0.9424
Er22     Er     0.6667   0.0928   0.9424
Er23     Er     0.5739   0.9072   0.0576
Er24     Er     0.3333   0.9072   0.0576
Er25     Er     0.4261   0.0928   0.5576
Er26     Er     0.6667   0.0928   0.5576
Er27     Er     0.5739   0.9072   0.4424
Er28     Er     0.3333   0.9072   0.4424
Er29     Er     0.4261   0.3333   0.5576
Er30     Er     0.6667   0.5739   0.5576
Er31     Er     0.3333   0.4261   0.4424
Er32     Er     0.5739   0.6667   0.4424
Er33     Er     0.0928   0.4261   0.4424
Er34     Er     0.0928   0.6667   0.4424
Er35     Er     0.9072   0.3333   0.5576
Er36     Er     0.9072   0.5739   0.5576
V37     V     0.0   0.7595   0.6726
V38     V     0.0   0.7595   0.8274
V39     V     0.2405   0.0   0.6726
V40     V     0.2405   0.0   0.8274
V41     V     0.2405   0.2405   0.6726
V42     V     0.2405   0.2405   0.8274
V43     V     0.0   0.2405   0.6726
V44     V     0.0   0.2405   0.8274
V45     V     0.7595   0.0   0.6726
V46     V     0.7595   0.0   0.8274
V47     V     0.7595   0.7595   0.6726
V48     V     0.7595   0.7595   0.8274
loop_
_geom_bond_atom_site_label_1
_geom_bond_atom_site_label_2
_geom_bond_distance
_geom_bond_site_symmetry_2
_ccdc_geom_bond_type
V1     V2    10.0   .     S
V1     Er34    10.0   .     S
V1     V4    10.0   1_565     S
V1     V12    10.0   1_455     S
V2     Er18    10.0   .     S
V2     V3    10.0   1_565     S
V2     V11    10.0   1_455     S
V3     V4    10.0   .     S
V3     Er24    10.0   1_545     S
V3     V6    10.0   .     S
V3     V2    10.0   1_545     S
V4     Er28    10.0   1_545     S
V4     V5    10.0   .     S
V4     V1    10.0   1_545     S
V5     V6    10.0   .     S
V5     Er31    10.0   .     S
V5     V8    10.0   .     S
V6     Er15    10.0   .     S
V6     V7    10.0   .     S
V7     V8    10.0   .     S
V7     Er17    10.0   .     S
V7     V10    10.0   1_455     S
V8     Er33    10.0   .     S
V8     V9    10.0   1_455     S
V9     V10    10.0   .     S
V9     Er27    10.0   1_545     S
V9     V12    10.0   1_545     S
V9     V8    10.0   1_655     S
V10     Er23    10.0   1_545     S
V10     V11    10.0   1_545     S
V10     V7    10.0   1_655     S
V11     V12    10.0   .     S
V11     Er16    10.0   .     S
V11     V10    10.0   1_565     S
V11     V2    10.0   1_655     S
V12     Er32    10.0   .     S
V12     V9    10.0   1_565     S
V12     V1    10.0   1_655     S
Er13     Er14    10.0   .     S
Er13     Er15    10.0   1_556     S
Er13     Er21    10.0   .     S
Er13     V42    10.0   .     S
Er14     Er16    10.0   1_556     S
Er14     Er20    10.0   .     S
Er14     V48    10.0   .     S
Er15     Er16    10.0   .     S
Er15     Er13    10.0   1_554     S
Er15     Er17    10.0   .     S
Er16     Er14    10.0   1_554     S
Er16     Er23    10.0   .     S
Er17     Er18    10.0   .     S
Er17     Er19    10.0   1_454     S
Er18     Er24    10.0   .     S
Er18     Er20    10.0   1_454     S
Er19     Er20    10.0   .     S
Er19     Er17    10.0   1_656     S
Er19     Er22    10.0   .     S
Er19     V44    10.0   1_655     S
Er20     Er18    10.0   1_656     S
Er20     V38    10.0   1_655     S
Er21     Er22    10.0   .     S
Er21     Er24    10.0   1_546     S
Er21     V40    10.0   .     S
Er22     Er23    10.0   1_546     S
Er22     V46    10.0   .     S
Er23     V10    10.0   1_565     S
Er23     Er24    10.0   .     S
Er23     Er22    10.0   1_564     S
Er24     V3    10.0   1_565     S
Er24     Er21    10.0   1_564     S
Er25     Er29    10.0   .     S
Er25     Er26    10.0   .     S
Er25     Er28    10.0   1_545     S
Er25     V39    10.0   .     S
Er26     Er35    10.0   .     S
Er26     Er27    10.0   1_545     S
Er26     V45    10.0   .     S
Er27     V9    10.0   1_565     S
Er27     Er28    10.0   .     S
Er27     Er26    10.0   1_565     S
Er27     Er32    10.0   .     S
Er28     V4    10.0   1_565     S
Er28     Er25    10.0   1_565     S
Er28     Er34    10.0   .     S
Er29     Er30    10.0   .     S
Er29     Er31    10.0   .     S
Er29     V41    10.0   .     S
Er30     Er32    10.0   .     S
Er30     Er36    10.0   .     S
Er30     V47    10.0   .     S
Er31     Er32    10.0   .     S
Er31     Er33    10.0   .     S
Er33     Er34    10.0   .     S
Er33     Er35    10.0   1_455     S
Er34     Er36    10.0   1_455     S
Er35     Er36    10.0   .     S
Er35     Er33    10.0   1_655     S
Er35     V43    10.0   1_655     S
Er36     Er34    10.0   1_655     S
Er36     V37    10.0   1_655     S
V37     V38    10.0   .     S
V37     Er36    10.0   1_455     S
V37     V39    10.0   1_565     S
V37     V47    10.0   1_455     S
V38     Er20    10.0   1_455     S
V38     V40    10.0   1_565     S
V38     V48    10.0   1_455     S
V39     V40    10.0   .     S
V39     V41    10.0   .     S
V39     V37    10.0   1_545     S
V40     V42    10.0   .     S
V40     V38    10.0   1_545     S
V41     V42    10.0   .     S
V41     V43    10.0   .     S
V42     V44    10.0   .     S
V43     V44    10.0   .     S
V43     Er35    10.0   1_455     S
V43     V45    10.0   1_455     S
V44     Er19    10.0   1_455     S
V44     V46    10.0   1_455     S
V45     V46    10.0   .     S
V45     V47    10.0   1_545     S
V45     V43    10.0   1_655     S
V46     V48    10.0   1_545     S
V46     V44    10.0   1_655     S
V47     V48    10.0   .     S
V47     V45    10.0   1_565     S
V47     V37    10.0   1_655     S
V48     V46    10.0   1_565     S
V48     V38    10.0   1_655     S
