data_fve
_audit_creation_date              2020-02-04
_audit_creation_method            'Pymatgen'
_symmetry_space_group_name_H-M    'P1'
_symmetry_Int_Tables_number       1
loop_
_symmetry_equiv_pos_as_xyz
  x,y,z
_cell_length_a                    46.1382
_cell_length_b                    46.1382
_cell_length_c                    29.8229
_cell_angle_alpha                 90.0
_cell_angle_beta                 90.0
_cell_angle_gamma                 90.0
loop_
_atom_site_label
_atom_site_type_symbol
_atom_site_fract_x
_atom_site_fract_y
_atom_site_fract_z
Er1     Er     0.377   0.3357   0.3386
Er2     Er     0.3357   0.377   0.6614
Er3     Er     0.3357   0.123   0.3386
Er4     Er     0.377   0.1643   0.6614
Er5     Er     0.123   0.1643   0.3386
Er6     Er     0.1643   0.123   0.6614
Er7     Er     0.1643   0.377   0.3386
Er8     Er     0.123   0.3357   0.6614
Er9     Er     0.877   0.6643   0.3386
Er10     Er     0.8357   0.623   0.6614
Er11     Er     0.6643   0.623   0.3386
Er12     Er     0.623   0.6643   0.6614
Er13     Er     0.623   0.8357   0.3386
Er14     Er     0.6643   0.877   0.6614
Er15     Er     0.8357   0.877   0.3386
Er16     Er     0.877   0.8357   0.6614
V17     V     0.8516   0.5048   0.9415
V18     V     0.9952   0.6484   0.0585
V19     V     0.8516   0.9952   0.0585
V20     V     0.9952   0.8516   0.9415
V21     V     0.5048   0.6484   0.9415
V22     V     0.6484   0.5048   0.0585
V23     V     0.5048   0.8516   0.0585
V24     V     0.6484   0.9952   0.9415
V25     V     0.4952   0.3516   0.0585
V26     V     0.3516   0.4952   0.9415
V27     V     0.4952   0.1484   0.9415
V28     V     0.3516   0.0048   0.0585
V29     V     0.0048   0.1484   0.0585
V30     V     0.1484   0.0048   0.9415
V31     V     0.1484   0.4952   0.0585
V32     V     0.0048   0.3516   0.9415
loop_
_geom_bond_atom_site_label_1
_geom_bond_atom_site_label_2
_geom_bond_distance
_geom_bond_site_symmetry_2
_ccdc_geom_bond_type
Er1     Er7    10.0   .     S
Er1     V25    10.0   .     S
Er1     Er2    10.0   .     S
Er1     Er3    10.0   .     S
Er2     Er4    10.0   .     S
Er2     V26    10.0   .     S
Er2     Er8    10.0   .     S
Er3     V28    10.0   .     S
Er3     Er4    10.0   .     S
Er3     Er5    10.0   .     S
Er4     Er6    10.0   .     S
Er4     V27    10.0   .     S
Er5     V29    10.0   .     S
Er5     Er6    10.0   .     S
Er5     Er7    10.0   .     S
Er6     Er8    10.0   .     S
Er6     V30    10.0   .     S
Er7     V31    10.0   .     S
Er7     Er8    10.0   .     S
Er8     V32    10.0   .     S
Er9     Er11    10.0   .     S
Er9     V18    10.0   .     S
Er9     Er10    10.0   .     S
Er9     Er15    10.0   .     S
Er10     Er16    10.0   .     S
Er10     V17    10.0   .     S
Er10     Er12    10.0   .     S
Er11     Er13    10.0   .     S
Er11     V22    10.0   .     S
Er11     Er12    10.0   .     S
Er12     V21    10.0   .     S
Er12     Er14    10.0   .     S
Er13     Er15    10.0   .     S
Er13     V23    10.0   .     S
Er13     Er14    10.0   .     S
Er14     V24    10.0   .     S
Er14     Er16    10.0   .     S
Er15     V19    10.0   .     S
Er15     Er16    10.0   .     S
Er16     V20    10.0   .     S
V17     V18    10.0   1_556     S
V17     V22    10.0   1_556     S
V17     V32    10.0   1_655     S
V18     V17    10.0   1_554     S
V18     V20    10.0   1_554     S
V18     V31    10.0   1_655     S
V19     V20    10.0   1_554     S
V19     V24    10.0   1_554     S
V19     V29    10.0   1_665     S
V20     V19    10.0   1_556     S
V20     V18    10.0   1_556     S
V20     V30    10.0   1_665     S
V21     V22    10.0   1_556     S
V21     V23    10.0   1_556     S
V21     V26    10.0   .     S
V22     V17    10.0   1_554     S
V22     V21    10.0   1_554     S
V22     V25    10.0   .     S
V23     V24    10.0   1_554     S
V23     V21    10.0   1_554     S
V23     V28    10.0   1_565     S
V24     V19    10.0   1_556     S
V24     V23    10.0   1_556     S
V24     V27    10.0   1_565     S
V25     V26    10.0   1_554     S
V25     V27    10.0   1_554     S
V26     V25    10.0   1_556     S
V26     V31    10.0   1_556     S
V27     V25    10.0   1_556     S
V27     V28    10.0   1_556     S
V27     V24    10.0   1_545     S
V28     V23    10.0   1_545     S
V28     V27    10.0   1_554     S
V28     V30    10.0   1_554     S
V29     V19    10.0   1_445     S
V29     V30    10.0   1_554     S
V29     V32    10.0   1_554     S
V30     V20    10.0   1_445     S
V30     V28    10.0   1_556     S
V30     V29    10.0   1_556     S
V31     V26    10.0   1_554     S
V31     V32    10.0   1_554     S
V31     V18    10.0   1_455     S
V32     V17    10.0   1_455     S
V32     V31    10.0   1_556     S
V32     V29    10.0   1_556     S
