data_fvg
_audit_creation_date              2020-02-04
_audit_creation_method            'Pymatgen'
_symmetry_space_group_name_H-M    'P1'
_symmetry_Int_Tables_number       1
loop_
_symmetry_equiv_pos_as_xyz
  x,y,z
_cell_length_a                    68.2845
_cell_length_b                    68.2845
_cell_length_c                    68.2845
_cell_angle_alpha                 90.0
_cell_angle_beta                 90.0
_cell_angle_gamma                 90.0
loop_
_atom_site_label
_atom_site_type_symbol
_atom_site_fract_x
_atom_site_fract_y
_atom_site_fract_z
V1     V     0.4697   0.5732   0.6768
Er2     Er     0.3232   0.5732   0.6768
Er3     Er     0.1768   0.5732   0.8232
V4     V     0.1768   0.5732   0.9697
Er5     Er     0.3232   0.5732   0.8232
V6     V     0.3232   0.7197   0.8232
Er7     Er     0.1768   0.4268   0.8232
V8     V     0.0303   0.4268   0.8232
Er9     Er     0.3232   0.4268   0.6768
V10     V     0.3232   0.4268   0.5303
Er11     Er     0.1768   0.4268   0.6768
V12     V     0.1768   0.2803   0.6768
Er13     Er     0.5732   0.9268   0.5732
V14     V     0.5732   0.7803   0.5732
V15     V     0.5732   0.0732   0.2803
Er16     Er     0.5732   0.0732   0.4268
Er17     Er     0.5732   0.9268   0.4268
V18     V     0.7197   0.9268   0.4268
Er19     Er     0.4268   0.0732   0.4268
V20     V     0.4268   0.2197   0.4268
V21     V     0.2803   0.0732   0.5732
Er22     Er     0.4268   0.0732   0.5732
Er23     Er     0.4268   0.9268   0.5732
V24     V     0.4268   0.9268   0.7197
Er25     Er     0.5732   0.4268   0.0732
V26     V     0.5732   0.2803   0.0732
Er27     Er     0.5732   0.4268   0.9268
V28     V     0.7197   0.4268   0.9268
Er29     Er     0.4268   0.4268   0.0732
V30     V     0.4268   0.4268   0.2197
V31     V     0.2803   0.5732   0.0732
Er32     Er     0.4268   0.5732   0.0732
Er33     Er     0.4268   0.5732   0.9268
V34     V     0.4268   0.7197   0.9268
Er35     Er     0.5732   0.5732   0.9268
V36     V     0.5732   0.5732   0.7803
V37     V     0.4697   0.0732   0.1768
Er38     Er     0.3232   0.0732   0.1768
Er39     Er     0.3232   0.9268   0.1768
V40     V     0.3232   0.9268   0.0303
Er41     Er     0.1768   0.9268   0.1768
V42     V     0.1768   0.7803   0.1768
Er43     Er     0.1768   0.9268   0.3232
V44     V     0.0303   0.9268   0.3232
V45     V     0.1768   0.0732   0.4697
Er46     Er     0.1768   0.0732   0.3232
Er47     Er     0.3232   0.0732   0.3232
V48     V     0.3232   0.2197   0.3232
Er49     Er     0.3232   0.6768   0.4268
V50     V     0.3232   0.5303   0.4268
Er51     Er     0.1768   0.6768   0.4268
V52     V     0.1768   0.6768   0.2803
V53     V     0.4697   0.6768   0.5732
Er54     Er     0.3232   0.6768   0.5732
Er55     Er     0.1768   0.8232   0.4268
V56     V     0.0303   0.8232   0.4268
Er57     Er     0.1768   0.8232   0.5732
V58     V     0.1768   0.9697   0.5732
Er59     Er     0.3232   0.8232   0.5732
V60     V     0.3232   0.8232   0.7197
Er61     Er     0.8232   0.1768   0.5732
V62     V     0.9697   0.1768   0.5732
Er63     Er     0.8232   0.3232   0.5732
V64     V     0.8232   0.3232   0.7197
V65     V     0.6768   0.4697   0.5732
Er66     Er     0.6768   0.3232   0.5732
Er67     Er     0.6768   0.3232   0.4268
V68     V     0.5303   0.3232   0.4268
Er69     Er     0.8232   0.1768   0.4268
V70     V     0.8232   0.0303   0.4268
V71     V     0.6768   0.1768   0.2803
Er72     Er     0.6768   0.1768   0.4268
Er73     Er     0.5732   0.8232   0.3232
V74     V     0.7197   0.8232   0.3232
V75     V     0.5732   0.6768   0.4697
Er76     Er     0.5732   0.6768   0.3232
Er77     Er     0.4268   0.6768   0.3232
V78     V     0.4268   0.5303   0.3232
Er79     Er     0.5732   0.8232   0.1768
V80     V     0.5732   0.9697   0.1768
Er81     Er     0.4268   0.8232   0.1768
V82     V     0.4268   0.8232   0.0303
V83     V     0.2803   0.6768   0.1768
Er84     Er     0.4268   0.6768   0.1768
Er85     Er     0.0732   0.4268   0.4268
V86     V     0.2197   0.4268   0.4268
Er87     Er     0.0732   0.4268   0.5732
V88     V     0.0732   0.2803   0.5732
Er89     Er     0.9268   0.4268   0.5732
V90     V     0.9268   0.4268   0.7197
Er91     Er     0.9268   0.5732   0.5732
V92     V     0.7803   0.5732   0.5732
Er93     Er     0.9268   0.5732   0.4268
V94     V     0.9268   0.7197   0.4268
V95     V     0.0732   0.5732   0.2803
Er96     Er     0.0732   0.5732   0.4268
V97     V     0.6768   0.2803   0.1768
Er98     Er     0.6768   0.4268   0.1768
Er99     Er     0.8232   0.4268   0.1768
V100     V     0.8232   0.4268   0.0303
Er101     Er     0.8232   0.5732   0.1768
V102     V     0.9697   0.5732   0.1768
Er103     Er     0.6768   0.4268   0.3232
V104     V     0.5303   0.4268   0.3232
Er105     Er     0.6768   0.5732   0.3232
V106     V     0.6768   0.5732   0.4697
Er107     Er     0.8232   0.5732   0.3232
V108     V     0.8232   0.7197   0.3232
Er109     Er     0.4268   0.3232   0.6768
V110     V     0.4268   0.3232   0.5303
V111     V     0.2803   0.1768   0.6768
Er112     Er     0.4268   0.1768   0.6768
Er113     Er     0.4268   0.1768   0.8232
V114     V     0.4268   0.0303   0.8232
V115     V     0.5732   0.4697   0.6768
Er116     Er     0.5732   0.3232   0.6768
Er117     Er     0.5732   0.3232   0.8232
V118     V     0.7197   0.3232   0.8232
Er119     Er     0.5732   0.1768   0.8232
V120     V     0.5732   0.1768   0.9697
Er121     Er     0.6768   0.9268   0.8232
V122     V     0.5303   0.9268   0.8232
Er123     Er     0.8232   0.0732   0.8232
V124     V     0.8232   0.2197   0.8232
Er125     Er     0.6768   0.0732   0.8232
V126     V     0.6768   0.0732   0.9697
Er127     Er     0.6768   0.9268   0.6768
V128     V     0.6768   0.7803   0.6768
Er129     Er     0.8232   0.0732   0.6768
V130     V     0.9697   0.0732   0.6768
Er131     Er     0.8232   0.9268   0.6768
V132     V     0.8232   0.9268   0.5303
Er133     Er     0.8232   0.8232   0.0732
V134     V     0.8232   0.8232   0.2197
Er135     Er     0.8232   0.6768   0.0732
V136     V     0.9697   0.6768   0.0732
Er137     Er     0.8232   0.6768   0.9268
V138     V     0.8232   0.5303   0.9268
Er139     Er     0.6768   0.6768   0.9268
V140     V     0.6768   0.6768   0.7803
Er141     Er     0.6768   0.8232   0.9268
V142     V     0.5303   0.8232   0.9268
Er143     Er     0.6768   0.8232   0.0732
V144     V     0.6768   0.9697   0.0732
Er145     Er     0.0732   0.6768   0.8232
V146     V     0.0732   0.6768   0.9697
Er147     Er     0.9268   0.6768   0.8232
V148     V     0.9268   0.5303   0.8232
Er149     Er     0.9268   0.6768   0.6768
V150     V     0.7803   0.6768   0.6768
Er151     Er     0.0732   0.8232   0.8232
V152     V     0.2197   0.8232   0.8232
Er153     Er     0.0732   0.8232   0.6768
V154     V     0.0732   0.9697   0.6768
Er155     Er     0.9268   0.8232   0.6768
V156     V     0.9268   0.8232   0.5303
Er157     Er     0.9268   0.0732   0.9268
V158     V     0.9268   0.2197   0.9268
Er159     Er     0.0732   0.0732   0.9268
V160     V     0.0732   0.0732   0.7803
Er161     Er     0.0732   0.9268   0.9268
V162     V     0.2197   0.9268   0.9268
Er163     Er     0.9268   0.0732   0.0732
V164     V     0.7803   0.0732   0.0732
Er165     Er     0.0732   0.9268   0.0732
V166     V     0.0732   0.7803   0.0732
Er167     Er     0.9268   0.9268   0.0732
V168     V     0.9268   0.9268   0.2197
Er169     Er     0.1768   0.1768   0.9268
V170     V     0.1768   0.1768   0.7803
Er171     Er     0.1768   0.3232   0.9268
V172     V     0.0303   0.3232   0.9268
V173     V     0.1768   0.4697   0.0732
Er174     Er     0.1768   0.3232   0.0732
V175     V     0.3232   0.3232   0.2197
Er176     Er     0.3232   0.3232   0.0732
Er177     Er     0.3232   0.1768   0.9268
V178     V     0.3232   0.0303   0.9268
V179     V     0.4697   0.1768   0.0732
Er180     Er     0.3232   0.1768   0.0732
Er181     Er     0.9268   0.1768   0.1768
V182     V     0.7803   0.1768   0.1768
Er183     Er     0.9268   0.3232   0.1768
V184     V     0.9268   0.3232   0.0303
V185     V     0.0732   0.4697   0.1768
Er186     Er     0.0732   0.3232   0.1768
Er187     Er     0.0732   0.3232   0.3232
V188     V     0.2197   0.3232   0.3232
Er189     Er     0.9268   0.1768   0.3232
V190     V     0.9268   0.0303   0.3232
V191     V     0.0732   0.1768   0.4697
Er192     Er     0.0732   0.1768   0.3232
loop_
_geom_bond_atom_site_label_1
_geom_bond_atom_site_label_2
_geom_bond_distance
_geom_bond_site_symmetry_2
_ccdc_geom_bond_type
V1     Er2    10.0   .     S
V1     V36    10.0   .     S
V1     V115    10.0   .     S
V1     V53    10.001   .     S
Er2     Er5    10.0   .     S
Er2     Er9    10.0   .     S
Er2     Er54    10.001   .     S
Er3     V4    10.0   .     S
Er3     Er7    10.0   .     S
Er3     Er5    10.0   .     S
Er3     Er145    10.001   .     S
V4     V173    10.0   1_556     S
V4     V31    10.0   1_556     S
V4     V146    10.001   .     S
Er5     V6    10.0   .     S
Er5     Er33    10.001   .     S
V6     V60    10.0   .     S
V6     V152    10.0   .     S
V6     V34    10.001   .     S
Er7     V8    10.0   .     S
Er7     Er11    10.0   .     S
Er7     Er171    10.001   .     S
V8     V148    10.0   1_455     S
V8     V90    10.0   1_455     S
V8     V172    10.001   .     S
Er9     V10    10.0   .     S
Er9     Er11    10.0   .     S
Er9     Er109    10.001   .     S
V10     V50    10.0   .     S
V10     V86    10.0   .     S
V10     V110    10.001   .     S
Er11     V12    10.0   .     S
Er11     Er87    10.001   .     S
V12     V170    10.0   .     S
V12     V111    10.0   .     S
V12     V88    10.001   .     S
Er13     V14    10.0   .     S
Er13     Er17    10.0   .     S
Er13     Er23    10.0   .     S
Er13     Er127    10.001   .     S
V14     V75    10.0   .     S
V14     V53    10.0   .     S
V14     V128    10.001   .     S
V15     Er16    10.0   .     S
V15     V37    10.0   .     S
V15     V80    10.0   1_545     S
V15     V71    10.001   .     S
Er16     Er19    10.0   .     S
Er16     Er17    10.0   1_545     S
Er16     Er72    10.001   .     S
Er17     V18    10.0   .     S
Er17     Er16    10.0   1_565     S
Er17     Er73    10.001   .     S
V18     V70    10.0   1_565     S
V18     V132    10.0   .     S
V18     V74    10.001   .     S
Er19     V20    10.0   .     S
Er19     Er22    10.0   .     S
Er19     Er47    10.001   .     S
V20     V68    10.0   .     S
V20     V110    10.0   .     S
V20     V48    10.001   .     S
V21     Er22    10.0   .     S
V21     V45    10.0   .     S
V21     V58    10.0   1_545     S
V21     V111    10.001   .     S
Er22     Er23    10.0   1_545     S
Er22     Er112    10.001   .     S
Er23     V24    10.0   .     S
Er23     Er22    10.0   1_565     S
Er23     Er59    10.001   .     S
V24     V122    10.0   .     S
V24     V114    10.0   1_565     S
V24     V60    10.001   .     S
Er25     V26    10.0   .     S
Er25     Er29    10.0   .     S
Er25     Er27    10.0   1_554     S
Er25     Er98    10.001   .     S
V26     V120    10.0   1_554     S
V26     V179    10.0   .     S
V26     V97    10.001   .     S
Er27     V28    10.0   .     S
Er27     Er25    10.0   1_556     S
Er27     Er35    10.0   .     S
Er27     Er117    10.001   .     S
V28     V138    10.0   .     S
V28     V100    10.0   1_556     S
V28     V118    10.001   .     S
Er29     V30    10.0   .     S
Er29     Er32    10.0   .     S
Er29     Er176    10.001   .     S
V30     V104    10.0   .     S
V30     V78    10.0   .     S
V30     V175    10.001   .     S
V31     V4    10.0   1_554     S
V31     V173    10.0   .     S
V31     Er32    10.0   .     S
V31     V83    10.001   .     S
Er32     Er33    10.0   1_554     S
Er32     Er84    10.001   .     S
Er33     V34    10.0   .     S
Er33     Er32    10.0   1_556     S
Er33     Er35    10.0   .     S
V34     V142    10.0   .     S
V34     V82    10.0   1_556     S
Er35     V36    10.0   .     S
Er35     Er139    10.001   .     S
V36     V115    10.0   .     S
V36     V140    10.001   .     S
V37     Er38    10.0   .     S
V37     V80    10.0   1_545     S
V37     V179    10.001   .     S
Er38     Er39    10.0   1_545     S
Er38     Er47    10.0   .     S
Er38     Er180    10.001   .     S
Er39     V40    10.0   .     S
Er39     Er38    10.0   1_565     S
Er39     Er41    10.0   .     S
Er39     Er81    10.001   .     S
V40     V178    10.0   1_564     S
V40     V162    10.0   1_554     S
V40     V82    10.001   .     S
Er41     V42    10.0   .     S
Er41     Er43    10.0   .     S
Er41     Er165    10.001   .     S
V42     V52    10.0   .     S
V42     V83    10.0   .     S
V42     V166    10.001   .     S
Er43     V44    10.0   .     S
Er43     Er46    10.0   1_565     S
Er43     Er55    10.001   .     S
V44     V190    10.0   1_465     S
V44     V168    10.0   1_455     S
V44     V56    10.001   .     S
V45     Er46    10.0   .     S
V45     V58    10.0   1_545     S
V45     V191    10.001   .     S
Er46     Er43    10.0   1_545     S
Er46     Er47    10.0   .     S
Er46     Er192    10.001   .     S
Er47     V48    10.0   .     S
V48     V175    10.0   .     S
V48     V188    10.0   .     S
Er49     V50    10.0   .     S
Er49     Er51    10.0   .     S
Er49     Er54    10.0   .     S
Er49     Er77    10.001   .     S
V50     V86    10.0   .     S
V50     V78    10.001   .     S
Er51     V52    10.0   .     S
Er51     Er55    10.0   .     S
Er51     Er96    10.001   .     S
V52     V83    10.0   .     S
V52     V95    10.001   .     S
V53     V75    10.0   .     S
V53     Er54    10.0   .     S
Er54     Er59    10.0   .     S
Er55     V56    10.0   .     S
Er55     Er57    10.0   .     S
V56     V156    10.0   1_455     S
V56     V94    10.0   1_455     S
Er57     V58    10.0   .     S
Er57     Er59    10.0   .     S
Er57     Er153    10.001   .     S
V58     V45    10.0   1_565     S
V58     V21    10.0   1_565     S
V58     V154    10.001   .     S
Er59     V60    10.0   .     S
V60     V152    10.0   .     S
Er61     V62    10.0   .     S
Er61     Er69    10.0   .     S
Er61     Er63    10.0   .     S
Er61     Er129    10.001   .     S
V62     V88    10.0   1_655     S
V62     V191    10.0   1_655     S
V62     V130    10.001   .     S
Er63     V64    10.0   .     S
Er63     Er66    10.0   .     S
Er63     Er89    10.001   .     S
V64     V124    10.0   .     S
V64     V118    10.0   .     S
V64     V90    10.001   .     S
V65     Er66    10.0   .     S
V65     V106    10.0   .     S
V65     V92    10.0   .     S
V65     V115    10.001   .     S
Er66     Er67    10.0   .     S
Er66     Er116    10.001   .     S
Er67     V68    10.0   .     S
Er67     Er72    10.0   .     S
Er67     Er103    10.001   .     S
V68     V110    10.0   .     S
V68     V104    10.001   .     S
Er69     V70    10.0   .     S
Er69     Er72    10.0   .     S
Er69     Er189    10.001   .     S
V70     V18    10.0   1_545     S
V70     V132    10.0   1_545     S
V70     V190    10.001   .     S
V71     Er72    10.0   .     S
V71     V97    10.0   .     S
V71     V182    10.0   .     S
Er73     V74    10.0   .     S
Er73     Er76    10.0   .     S
Er73     Er79    10.0   .     S
V74     V108    10.0   .     S
V74     V134    10.0   .     S
V75     Er76    10.0   .     S
V75     V106    10.001   .     S
Er76     Er77    10.0   .     S
Er76     Er105    10.001   .     S
Er77     V78    10.0   .     S
Er77     Er84    10.0   .     S
V78     V104    10.0   .     S
Er79     V80    10.0   .     S
Er79     Er81    10.0   .     S
Er79     Er143    10.001   .     S
V80     V15    10.0   1_565     S
V80     V37    10.0   1_565     S
V80     V144    10.001   .     S
Er81     V82    10.0   .     S
Er81     Er84    10.0   .     S
V82     V142    10.0   1_554     S
V82     V34    10.0   1_554     S
V83     Er84    10.0   .     S
Er85     V86    10.0   .     S
Er85     Er96    10.0   .     S
Er85     Er87    10.0   .     S
Er85     Er187    10.001   .     S
V86     V188    10.001   .     S
Er87     V88    10.0   .     S
Er87     Er89    10.0   1_455     S
V88     V191    10.0   .     S
V88     V62    10.0   1_455     S
Er89     V90    10.0   .     S
Er89     Er87    10.0   1_655     S
Er89     Er91    10.0   .     S
V90     V8    10.0   1_655     S
V90     V148    10.0   .     S
Er91     V92    10.0   .     S
Er91     Er93    10.0   .     S
Er91     Er149    10.001   .     S
V92     V106    10.0   .     S
V92     V150    10.001   .     S
Er93     V94    10.0   .     S
Er93     Er96    10.0   1_655     S
Er93     Er107    10.001   .     S
V94     V156    10.0   .     S
V94     V56    10.0   1_655     S
V94     V108    10.001   .     S
V95     V102    10.0   1_455     S
V95     V185    10.0   .     S
V95     Er96    10.0   .     S
Er96     Er93    10.0   1_455     S
V97     V182    10.0   .     S
V97     Er98    10.0   .     S
Er98     Er99    10.0   .     S
Er98     Er103    10.0   .     S
Er99     V100    10.0   .     S
Er99     Er101    10.0   .     S
Er99     Er183    10.001   .     S
V100     V138    10.0   1_554     S
V100     V28    10.0   1_554     S
V100     V184    10.001   .     S
Er101     V102    10.0   .     S
Er101     Er107    10.0   .     S
Er101     Er135    10.001   .     S
V102     V185    10.0   1_655     S
V102     V95    10.0   1_655     S
V102     V136    10.001   .     S
Er103     V104    10.0   .     S
Er103     Er105    10.0   .     S
Er105     V106    10.0   .     S
Er105     Er107    10.0   .     S
Er107     V108    10.0   .     S
V108     V134    10.0   .     S
Er109     V110    10.0   .     S
Er109     Er112    10.0   .     S
Er109     Er116    10.0   .     S
V111     V170    10.0   .     S
V111     Er112    10.0   .     S
Er112     Er113    10.0   .     S
Er113     V114    10.0   .     S
Er113     Er119    10.0   .     S
Er113     Er177    10.001   .     S
V114     V24    10.0   1_545     S
V114     V122    10.0   1_545     S
V114     V178    10.001   .     S
V115     Er116    10.0   .     S
Er116     Er117    10.0   .     S
Er117     V118    10.0   .     S
Er117     Er119    10.0   .     S
V118     V124    10.0   .     S
Er119     V120    10.0   .     S
Er119     Er125    10.001   .     S
V120     V179    10.0   1_556     S
V120     V26    10.0   1_556     S
V120     V126    10.001   .     S
Er121     V122    10.0   .     S
Er121     Er125    10.0   1_565     S
Er121     Er127    10.0   .     S
Er121     Er141    10.001   .     S
V122     V114    10.0   1_565     S
V122     V142    10.001   .     S
Er123     V124    10.0   .     S
Er123     Er125    10.0   .     S
Er123     Er129    10.0   .     S
Er123     Er157    10.001   .     S
V124     V158    10.001   .     S
Er125     Er121    10.0   1_545     S
Er125     V126    10.0   .     S
V126     V144    10.0   1_546     S
V126     V164    10.0   1_556     S
Er127     V128    10.0   .     S
Er127     Er131    10.0   .     S
V128     V140    10.0   .     S
V128     V150    10.0   .     S
Er129     V130    10.0   .     S
Er129     Er131    10.0   1_545     S
V130     V154    10.0   1_645     S
V130     V160    10.0   1_655     S
Er131     V132    10.0   .     S
Er131     Er129    10.0   1_565     S
Er131     Er155    10.001   .     S
V132     V70    10.0   1_565     S
V132     V156    10.001   .     S
Er133     V134    10.0   .     S
Er133     Er135    10.0   .     S
Er133     Er143    10.0   .     S
Er133     Er167    10.001   .     S
V134     V168    10.001   .     S
Er135     V136    10.0   .     S
Er135     Er137    10.0   1_554     S
V136     V166    10.0   1_655     S
V136     V146    10.0   1_654     S
Er137     V138    10.0   .     S
Er137     Er139    10.0   .     S
Er137     Er135    10.0   1_556     S
Er137     Er147    10.001   .     S
V138     V100    10.0   1_556     S
V138     V148    10.001   .     S
Er139     V140    10.0   .     S
Er139     Er141    10.0   .     S
V140     V150    10.0   .     S
Er141     V142    10.0   .     S
Er141     Er143    10.0   1_556     S
V142     V82    10.0   1_556     S
Er143     Er141    10.0   1_554     S
Er143     V144    10.0   .     S
V144     V126    10.0   1_564     S
V144     V164    10.0   1_565     S
Er145     V146    10.0   .     S
Er145     Er147    10.0   1_455     S
Er145     Er151    10.0   .     S
V146     V136    10.0   1_456     S
V146     V166    10.0   1_556     S
Er147     V148    10.0   .     S
Er147     Er145    10.0   1_655     S
Er147     Er149    10.0   .     S
V148     V8    10.0   1_655     S
Er149     V150    10.0   .     S
Er149     Er155    10.0   .     S
Er151     V152    10.0   .     S
Er151     Er153    10.0   .     S
Er151     Er161    10.001   .     S
V152     V162    10.001   .     S
Er153     V154    10.0   .     S
Er153     Er155    10.0   1_455     S
V154     V160    10.0   1_565     S
V154     V130    10.0   1_465     S
Er155     V156    10.0   .     S
Er155     Er153    10.0   1_655     S
V156     V56    10.0   1_655     S
Er157     V158    10.0   .     S
Er157     Er159    10.0   1_655     S
Er157     Er163    10.0   1_556     S
V158     V172    10.0   1_655     S
V158     V184    10.0   1_556     S
Er159     Er157    10.0   1_455     S
Er159     V160    10.0   .     S
Er159     Er161    10.0   1_545     S
Er159     Er169    10.001   .     S
V160     V154    10.0   1_545     S
V160     V130    10.0   1_455     S
V160     V170    10.001   .     S
Er161     V162    10.0   .     S
Er161     Er165    10.0   1_556     S
Er161     Er159    10.0   1_565     S
V162     V40    10.0   1_556     S
V162     V178    10.0   1_565     S
Er163     Er157    10.0   1_554     S
Er163     V164    10.0   .     S
Er163     Er167    10.0   1_545     S
Er163     Er181    10.001   .     S
V164     V126    10.0   1_554     S
V164     V144    10.0   1_545     S
V164     V182    10.001   .     S
Er165     Er161    10.0   1_554     S
Er165     V166    10.0   .     S
Er165     Er167    10.0   1_455     S
V166     V136    10.0   1_455     S
V166     V146    10.0   1_554     S
Er167     V168    10.0   .     S
Er167     Er165    10.0   1_655     S
Er167     Er163    10.0   1_565     S
V168     V190    10.0   1_565     S
V168     V44    10.0   1_655     S
Er169     V170    10.0   .     S
Er169     Er171    10.0   .     S
Er169     Er177    10.0   .     S
Er171     V172    10.0   .     S
Er171     Er174    10.0   1_556     S
V172     V184    10.0   1_456     S
V172     V158    10.0   1_455     S
V173     V4    10.0   1_554     S
V173     Er174    10.0   .     S
V173     V185    10.001   .     S
Er174     Er171    10.0   1_554     S
Er174     Er176    10.0   .     S
Er174     Er186    10.001   .     S
V175     Er176    10.0   .     S
V175     V188    10.0   .     S
Er176     Er180    10.0   .     S
Er177     V178    10.0   .     S
Er177     Er180    10.0   1_556     S
V178     V40    10.0   1_546     S
V178     V162    10.0   1_545     S
V179     V120    10.0   1_554     S
V179     Er180    10.0   .     S
Er180     Er177    10.0   1_554     S
Er181     V182    10.0   .     S
Er181     Er183    10.0   .     S
Er181     Er189    10.0   .     S
Er183     V184    10.0   .     S
Er183     Er186    10.0   1_655     S
V184     V172    10.0   1_654     S
V184     V158    10.0   1_554     S
V185     V102    10.0   1_455     S
V185     Er186    10.0   .     S
Er186     Er183    10.0   1_455     S
Er186     Er187    10.0   .     S
Er187     V188    10.0   .     S
Er187     Er192    10.0   .     S
Er189     V190    10.0   .     S
Er189     Er192    10.0   1_655     S
V190     V168    10.0   1_545     S
V190     V44    10.0   1_645     S
V191     V62    10.0   1_455     S
V191     Er192    10.0   .     S
Er192     Er189    10.0   1_455     S
