data_fvh
_audit_creation_date              2020-02-04
_audit_creation_method            'Pymatgen'
_symmetry_space_group_name_H-M    'P1'
_symmetry_Int_Tables_number       1
loop_
_symmetry_equiv_pos_as_xyz
  x,y,z
_cell_length_a                    53.0258
_cell_length_b                    53.0258
_cell_length_c                    53.0258
_cell_angle_alpha                 90.0
_cell_angle_beta                 90.0
_cell_angle_gamma                 90.0
loop_
_atom_site_label
_atom_site_type_symbol
_atom_site_fract_x
_atom_site_fract_y
_atom_site_fract_z
V1     V     0.9057   0.4057   0.5
V2     V     0.9057   0.5943   0.5
V3     V     0.0943   0.5943   0.5
V4     V     0.0943   0.4057   0.5
V5     V     0.4057   0.5   0.9057
V6     V     0.5943   0.5   0.9057
V7     V     0.5943   0.5   0.0943
V8     V     0.4057   0.5   0.0943
V9     V     0.5   0.9057   0.5943
V10     V     0.5   0.9057   0.4057
V11     V     0.5   0.0943   0.4057
V12     V     0.5   0.0943   0.5943
V13     V     0.4057   0.9057   0.0
V14     V     0.5943   0.9057   0.0
V15     V     0.4057   0.0943   0.0
V16     V     0.5943   0.0943   0.0
V17     V     0.9057   0.0   0.4057
V18     V     0.9057   0.0   0.5943
V19     V     0.0943   0.0   0.4057
V20     V     0.0943   0.0   0.5943
V21     V     0.0   0.5943   0.9057
V22     V     0.0   0.4057   0.9057
V23     V     0.0   0.4057   0.0943
V24     V     0.0   0.5943   0.0943
Er25     Er     0.1599   0.4057   0.1943
Er26     Er     0.1599   0.5943   0.1943
Er27     Er     0.3057   0.6599   0.9057
Er28     Er     0.3057   0.6599   0.0943
Er29     Er     0.1599   0.5943   0.8057
Er30     Er     0.1599   0.4057   0.8057
Er31     Er     0.3057   0.3401   0.9057
Er32     Er     0.3057   0.3401   0.0943
Er33     Er     0.4057   0.1943   0.1599
Er34     Er     0.5943   0.1943   0.1599
Er35     Er     0.6599   0.9057   0.3057
Er36     Er     0.6599   0.0943   0.3057
Er37     Er     0.5943   0.8057   0.1599
Er38     Er     0.4057   0.8057   0.1599
Er39     Er     0.3401   0.9057   0.3057
Er40     Er     0.3401   0.0943   0.3057
Er41     Er     0.1943   0.1599   0.4057
Er42     Er     0.1943   0.1599   0.5943
Er43     Er     0.9057   0.3057   0.6599
Er44     Er     0.0943   0.3057   0.6599
Er45     Er     0.8057   0.1599   0.5943
Er46     Er     0.8057   0.1599   0.4057
Er47     Er     0.9057   0.3057   0.3401
Er48     Er     0.0943   0.3057   0.3401
Er49     Er     0.5943   0.1943   0.8401
Er50     Er     0.4057   0.1943   0.8401
Er51     Er     0.6599   0.9057   0.6943
Er52     Er     0.6599   0.0943   0.6943
Er53     Er     0.5943   0.8057   0.8401
Er54     Er     0.4057   0.8057   0.8401
Er55     Er     0.3401   0.9057   0.6943
Er56     Er     0.3401   0.0943   0.6943
Er57     Er     0.8401   0.5943   0.1943
Er58     Er     0.8401   0.4057   0.1943
Er59     Er     0.6943   0.3401   0.9057
Er60     Er     0.6943   0.3401   0.0943
Er61     Er     0.6943   0.6599   0.9057
Er62     Er     0.6943   0.6599   0.0943
Er63     Er     0.8401   0.5943   0.8057
Er64     Er     0.8401   0.4057   0.8057
Er65     Er     0.1943   0.8401   0.5943
Er66     Er     0.1943   0.8401   0.4057
Er67     Er     0.9057   0.6943   0.6599
Er68     Er     0.0943   0.6943   0.6599
Er69     Er     0.8057   0.8401   0.5943
Er70     Er     0.8057   0.8401   0.4057
Er71     Er     0.9057   0.6943   0.3401
Er72     Er     0.0943   0.6943   0.3401
loop_
_geom_bond_atom_site_label_1
_geom_bond_atom_site_label_2
_geom_bond_distance
_geom_bond_site_symmetry_2
_ccdc_geom_bond_type
V1     V2    10.0   .     S
V1     V4    10.0   1_655     S
V1     Er43    10.0   .     S
V1     Er47    10.0   .     S
V2     V3    10.0   1_655     S
V2     Er67    10.0   .     S
V2     Er71    10.0   .     S
V3     V4    10.0   .     S
V3     V2    10.0   1_455     S
V3     Er68    10.0   .     S
V3     Er72    10.0   .     S
V4     V1    10.0   1_455     S
V4     Er44    10.0   .     S
V4     Er48    10.0   .     S
V5     V6    10.0   .     S
V5     V8    10.0   1_556     S
V5     Er27    10.0   .     S
V5     Er31    10.0   .     S
V6     V7    10.0   1_556     S
V6     Er59    10.0   .     S
V6     Er61    10.0   .     S
V7     V8    10.0   .     S
V7     V6    10.0   1_554     S
V7     Er60    10.0   .     S
V7     Er62    10.0   .     S
V8     V5    10.0   1_554     S
V8     Er28    10.0   .     S
V8     Er32    10.0   .     S
V9     V10    10.0   .     S
V9     V12    10.0   1_565     S
V9     Er51    10.0   .     S
V9     Er55    10.0   .     S
V10     V11    10.0   1_565     S
V10     Er35    10.0   .     S
V10     Er39    10.0   .     S
V11     V12    10.0   .     S
V11     V10    10.0   1_545     S
V11     Er36    10.0   .     S
V11     Er40    10.0   .     S
V12     V9    10.0   1_545     S
V12     Er52    10.0   .     S
V12     Er56    10.0   .     S
V13     V14    10.0   .     S
V13     V15    10.0   1_565     S
V13     Er38    10.0   .     S
V13     Er54    10.0   1_554     S
V14     V16    10.0   1_565     S
V14     Er37    10.0   .     S
V14     Er53    10.0   1_554     S
V15     V16    10.0   .     S
V15     V13    10.0   1_545     S
V15     Er33    10.0   .     S
V15     Er50    10.0   1_554     S
V16     V14    10.0   1_545     S
V16     Er34    10.0   .     S
V16     Er49    10.0   1_554     S
V17     V18    10.0   .     S
V17     V19    10.0   1_655     S
V17     Er46    10.0   .     S
V17     Er70    10.0   1_545     S
V18     V20    10.0   1_655     S
V18     Er45    10.0   .     S
V18     Er69    10.0   1_545     S
V19     V20    10.0   .     S
V19     V17    10.0   1_455     S
V19     Er41    10.0   .     S
V19     Er66    10.0   1_545     S
V20     V18    10.0   1_455     S
V20     Er42    10.0   .     S
V20     Er65    10.0   1_545     S
V21     V22    10.0   .     S
V21     V24    10.0   1_556     S
V21     Er29    10.0   .     S
V21     Er63    10.0   1_455     S
V22     V23    10.0   1_556     S
V22     Er30    10.0   .     S
V22     Er64    10.0   1_455     S
V23     V24    10.0   .     S
V23     V22    10.0   1_554     S
V23     Er25    10.0   .     S
V23     Er58    10.0   1_455     S
V24     V21    10.0   1_554     S
V24     Er26    10.0   .     S
V24     Er57    10.0   1_455     S
Er25     Er26    10.0   .     S
Er25     Er32    10.0   .     S
Er25     Er48    10.0   .     S
Er26     Er28    10.0   .     S
Er26     Er72    10.0   .     S
Er27     Er28    10.0   1_556     S
Er27     Er29    10.0   .     S
Er27     Er54    10.0   .     S
Er28     Er27    10.0   1_554     S
Er28     Er38    10.0   .     S
Er29     Er30    10.0   .     S
Er29     Er68    10.0   .     S
Er30     Er31    10.0   .     S
Er30     Er44    10.0   .     S
Er31     Er32    10.0   1_556     S
Er31     Er50    10.0   .     S
Er32     Er31    10.0   1_554     S
Er32     Er33    10.0   .     S
Er33     Er34    10.0   .     S
Er33     Er40    10.0   .     S
Er34     Er36    10.0   .     S
Er34     Er60    10.0   .     S
Er35     Er36    10.0   1_565     S
Er35     Er37    10.0   .     S
Er35     Er70    10.0   .     S
Er36     Er35    10.0   1_545     S
Er36     Er46    10.0   .     S
Er37     Er38    10.0   .     S
Er37     Er62    10.0   .     S
Er38     Er39    10.0   .     S
Er39     Er40    10.0   1_565     S
Er39     Er66    10.0   .     S
Er40     Er39    10.0   1_545     S
Er40     Er41    10.0   .     S
Er41     Er42    10.0   .     S
Er41     Er48    10.0   .     S
Er42     Er44    10.0   .     S
Er42     Er56    10.0   .     S
Er43     Er44    10.0   1_655     S
Er43     Er45    10.0   .     S
Er43     Er64    10.0   .     S
Er44     Er43    10.0   1_455     S
Er45     Er46    10.0   .     S
Er45     Er52    10.0   .     S
Er46     Er47    10.0   .     S
Er47     Er48    10.0   1_655     S
Er47     Er58    10.0   .     S
Er48     Er47    10.0   1_455     S
Er49     V16    10.0   1_556     S
Er49     Er50    10.0   .     S
Er49     Er59    10.0   .     S
Er49     Er52    10.0   .     S
Er50     V15    10.0   1_556     S
Er50     Er56    10.0   .     S
Er51     Er52    10.0   1_565     S
Er51     Er53    10.0   .     S
Er51     Er69    10.0   .     S
Er52     Er51    10.0   1_545     S
Er53     V14    10.0   1_556     S
Er53     Er54    10.0   .     S
Er53     Er61    10.0   .     S
Er54     V13    10.0   1_556     S
Er54     Er55    10.0   .     S
Er55     Er56    10.0   1_565     S
Er55     Er65    10.0   .     S
Er56     Er55    10.0   1_545     S
Er57     V24    10.0   1_655     S
Er57     Er58    10.0   .     S
Er57     Er71    10.0   .     S
Er57     Er62    10.0   .     S
Er58     V23    10.0   1_655     S
Er58     Er60    10.0   .     S
Er59     Er60    10.0   1_556     S
Er59     Er64    10.0   .     S
Er60     Er59    10.0   1_554     S
Er61     Er62    10.0   1_556     S
Er61     Er63    10.0   .     S
Er62     Er61    10.0   1_554     S
Er63     V21    10.0   1_655     S
Er63     Er64    10.0   .     S
Er63     Er67    10.0   .     S
Er64     V22    10.0   1_655     S
Er65     V20    10.0   1_565     S
Er65     Er66    10.0   .     S
Er65     Er68    10.0   .     S
Er66     V19    10.0   1_565     S
Er66     Er72    10.0   .     S
Er67     Er68    10.0   1_655     S
Er67     Er69    10.0   .     S
Er68     Er67    10.0   1_455     S
Er69     V18    10.0   1_565     S
Er69     Er70    10.0   .     S
Er70     V17    10.0   1_565     S
Er70     Er71    10.0   .     S
Er71     Er72    10.0   1_655     S
Er72     Er71    10.0   1_455     S
