data_fvi
_audit_creation_date              2020-02-04
_audit_creation_method            'Pymatgen'
_symmetry_space_group_name_H-M    'P1'
_symmetry_Int_Tables_number       1
loop_
_symmetry_equiv_pos_as_xyz
  x,y,z
_cell_length_a                    52.7232
_cell_length_b                    52.7232
_cell_length_c                    52.7232
_cell_angle_alpha                 90.0
_cell_angle_beta                 90.0
_cell_angle_gamma                 90.0
loop_
_atom_site_label
_atom_site_type_symbol
_atom_site_fract_x
_atom_site_fract_y
_atom_site_fract_z
Er1     Er     0.6729   0.0948   0.6729
Er2     Er     0.6729   0.9052   0.6729
Er3     Er     0.3271   0.0948   0.6729
Er4     Er     0.3271   0.9052   0.6729
V5     V     0.5   0.9052   0.5948
V6     V     0.5   0.0948   0.5948
Er7     Er     0.0948   0.6729   0.6729
Er8     Er     0.9052   0.6729   0.6729
Er9     Er     0.0948   0.6729   0.3271
Er10     Er     0.9052   0.6729   0.3271
V11     V     0.9052   0.5948   0.5
V12     V     0.0948   0.5948   0.5
Er13     Er     0.1729   0.8271   0.4052
Er14     Er     0.1729   0.8271   0.5948
Er15     Er     0.8271   0.8271   0.4052
Er16     Er     0.8271   0.8271   0.5948
V17     V     0.0   0.9052   0.4052
V18     V     0.0   0.9052   0.5948
Er19     Er     0.6729   0.0948   0.3271
Er20     Er     0.6729   0.9052   0.3271
Er21     Er     0.3271   0.0948   0.3271
Er22     Er     0.3271   0.9052   0.3271
V23     V     0.5   0.9052   0.4052
V24     V     0.5   0.0948   0.4052
Er25     Er     0.4052   0.1729   0.1729
Er26     Er     0.5948   0.1729   0.1729
Er27     Er     0.5948   0.8271   0.1729
Er28     Er     0.4052   0.8271   0.1729
V29     V     0.4052   0.0   0.0948
V30     V     0.5948   0.0   0.0948
Er31     Er     0.4052   0.1729   0.8271
Er32     Er     0.5948   0.1729   0.8271
Er33     Er     0.4052   0.8271   0.8271
Er34     Er     0.5948   0.8271   0.8271
V35     V     0.4052   0.0   0.9052
V36     V     0.5948   0.0   0.9052
Er37     Er     0.3271   0.6729   0.0948
Er38     Er     0.3271   0.6729   0.9052
Er39     Er     0.3271   0.3271   0.0948
Er40     Er     0.3271   0.3271   0.9052
V41     V     0.4052   0.5   0.9052
V42     V     0.4052   0.5   0.0948
Er43     Er     0.6729   0.6729   0.0948
Er44     Er     0.6729   0.6729   0.9052
Er45     Er     0.6729   0.3271   0.0948
Er46     Er     0.6729   0.3271   0.9052
V47     V     0.5948   0.5   0.9052
V48     V     0.5948   0.5   0.0948
Er49     Er     0.1729   0.4052   0.1729
Er50     Er     0.1729   0.5948   0.1729
Er51     Er     0.1729   0.5948   0.8271
Er52     Er     0.1729   0.4052   0.8271
V53     V     0.0948   0.4052   0.0
V54     V     0.0948   0.5948   0.0
Er55     Er     0.8271   0.4052   0.1729
Er56     Er     0.8271   0.5948   0.1729
Er57     Er     0.8271   0.4052   0.8271
Er58     Er     0.8271   0.5948   0.8271
V59     V     0.9052   0.4052   0.0
V60     V     0.9052   0.5948   0.0
Er61     Er     0.1729   0.1729   0.4052
Er62     Er     0.1729   0.1729   0.5948
Er63     Er     0.8271   0.1729   0.5948
Er64     Er     0.8271   0.1729   0.4052
V65     V     0.0   0.0948   0.4052
V66     V     0.0   0.0948   0.5948
Er67     Er     0.0948   0.3271   0.6729
Er68     Er     0.9052   0.3271   0.6729
Er69     Er     0.0948   0.3271   0.3271
Er70     Er     0.9052   0.3271   0.3271
V71     V     0.0948   0.4052   0.5
V72     V     0.9052   0.4052   0.5
loop_
_geom_bond_atom_site_label_1
_geom_bond_atom_site_label_2
_geom_bond_distance
_geom_bond_site_symmetry_2
_ccdc_geom_bond_type
Er1     V6    10.0   .     S
Er1     Er2    9.999   1_545     S
Er1     Er32    10.0   .     S
Er1     Er63    10.0   .     S
Er2     V5    10.0   .     S
Er2     Er1    9.999   1_565     S
Er2     Er34    10.0   .     S
Er2     Er16    10.0   .     S
Er3     V6    10.0   .     S
Er3     Er4    9.999   1_545     S
Er3     Er31    10.0   .     S
Er3     Er62    10.0   .     S
Er4     V5    10.0   .     S
Er4     Er3    9.999   1_565     S
Er4     Er33    10.0   .     S
Er4     Er14    10.0   .     S
V5     V23    10.001   .     S
V5     V6    10.001   1_565     S
V6     V24    10.001   .     S
V6     V5    10.001   1_545     S
Er7     V12    10.0   .     S
Er7     Er8    9.999   1_455     S
Er7     Er14    10.0   .     S
Er7     Er51    10.0   .     S
Er8     V11    10.0   .     S
Er8     Er7    9.999   1_655     S
Er8     Er16    10.0   .     S
Er8     Er58    10.0   .     S
Er9     V12    10.0   .     S
Er9     Er10    9.999   1_455     S
Er9     Er13    10.0   .     S
Er9     Er50    10.0   .     S
Er10     V11    10.0   .     S
Er10     Er9    9.999   1_655     S
Er10     Er15    10.0   .     S
Er10     Er56    10.0   .     S
V11     V72    10.001   .     S
V11     V12    10.001   1_655     S
V12     V71    10.001   .     S
V12     V11    10.001   1_455     S
Er13     V17    10.0   .     S
Er13     Er14    9.999   .     S
Er13     Er22    10.0   .     S
Er14     V18    10.0   .     S
Er15     V17    10.0   1_655     S
Er15     Er16    9.999   .     S
Er15     Er20    10.0   .     S
Er16     V18    10.0   1_655     S
V17     Er15    10.0   1_455     S
V17     V18    10.001   .     S
V17     V65    10.001   1_565     S
V18     Er16    10.0   1_455     S
V18     V66    10.001   1_565     S
Er19     V24    10.0   .     S
Er19     Er20    9.999   1_545     S
Er19     Er64    10.0   .     S
Er19     Er26    10.0   .     S
Er20     V23    10.0   .     S
Er20     Er19    9.999   1_565     S
Er20     Er27    10.0   .     S
Er21     V24    10.0   .     S
Er21     Er22    9.999   1_545     S
Er21     Er25    10.0   .     S
Er21     Er61    10.0   .     S
Er22     V23    10.0   .     S
Er22     Er21    9.999   1_565     S
Er22     Er28    10.0   .     S
V23     V24    10.001   1_565     S
V24     V23    10.001   1_545     S
Er25     V29    10.0   .     S
Er25     Er26    9.999   .     S
Er25     Er39    10.0   .     S
Er26     V30    10.0   .     S
Er26     Er45    10.0   .     S
Er27     V30    10.0   1_565     S
Er27     Er28    9.999   .     S
Er27     Er43    10.0   .     S
Er28     V29    10.0   1_565     S
Er28     Er37    10.0   .     S
V29     Er28    10.0   1_545     S
V29     V30    10.001   .     S
V29     V35    10.001   1_554     S
V30     Er27    10.0   1_545     S
V30     V36    10.001   1_554     S
Er31     V35    10.0   .     S
Er31     Er32    9.999   .     S
Er31     Er40    10.0   .     S
Er32     V36    10.0   .     S
Er32     Er46    10.0   .     S
Er33     V35    10.0   1_565     S
Er33     Er34    9.999   .     S
Er33     Er38    10.0   .     S
Er34     V36    10.0   1_565     S
Er34     Er44    10.0   .     S
V35     Er33    10.0   1_545     S
V35     V36    10.001   .     S
V35     V29    10.001   1_556     S
V36     Er34    10.0   1_545     S
V36     V30    10.001   1_556     S
Er37     V42    10.0   .     S
Er37     Er38    9.999   1_554     S
Er37     Er50    10.0   .     S
Er38     V41    10.0   .     S
Er38     Er37    9.999   1_556     S
Er38     Er51    10.0   .     S
Er39     V42    10.0   .     S
Er39     Er40    9.999   1_554     S
Er39     Er49    10.0   .     S
Er40     V41    10.0   .     S
Er40     Er39    9.999   1_556     S
Er40     Er52    10.0   .     S
V41     V47    10.001   .     S
V41     V42    10.001   1_556     S
V42     V48    10.001   .     S
V42     V41    10.001   1_554     S
Er43     V48    10.0   .     S
Er43     Er44    9.999   1_554     S
Er43     Er56    10.0   .     S
Er44     V47    10.0   .     S
Er44     Er43    9.999   1_556     S
Er44     Er58    10.0   .     S
Er45     V48    10.0   .     S
Er45     Er46    9.999   1_554     S
Er45     Er55    10.0   .     S
Er46     V47    10.0   .     S
Er46     Er45    9.999   1_556     S
Er46     Er57    10.0   .     S
V47     V48    10.001   1_556     S
V48     V47    10.001   1_554     S
Er49     V53    10.0   .     S
Er49     Er50    9.999   .     S
Er49     Er69    10.0   .     S
Er50     V54    10.0   .     S
Er51     V54    10.0   1_556     S
Er51     Er52    9.999   .     S
Er52     V53    10.0   1_556     S
Er52     Er67    10.0   .     S
V53     Er52    10.0   1_554     S
V53     V54    10.001   .     S
V53     V59    10.001   1_455     S
V54     Er51    10.0   1_554     S
V54     V60    10.001   1_455     S
Er55     V59    10.0   .     S
Er55     Er56    9.999   .     S
Er55     Er70    10.0   .     S
Er56     V60    10.0   .     S
Er57     V59    10.0   1_556     S
Er57     Er58    9.999   .     S
Er57     Er68    10.0   .     S
Er58     V60    10.0   1_556     S
V59     Er57    10.0   1_554     S
V59     V60    10.001   .     S
V59     V53    10.001   1_655     S
V60     Er58    10.0   1_554     S
V60     V54    10.001   1_655     S
Er61     V65    10.0   .     S
Er61     Er62    9.999   .     S
Er61     Er69    10.0   .     S
Er62     V66    10.0   .     S
Er62     Er67    10.0   .     S
Er63     V66    10.0   1_655     S
Er63     Er64    9.999   .     S
Er63     Er68    10.0   .     S
Er64     V65    10.0   1_655     S
Er64     Er70    10.0   .     S
V65     Er64    10.0   1_455     S
V65     V66    10.001   .     S
V65     V17    10.001   1_545     S
V66     Er63    10.0   1_455     S
V66     V18    10.001   1_545     S
Er67     V71    10.0   .     S
Er67     Er68    9.999   1_455     S
Er68     V72    10.0   .     S
Er68     Er67    9.999   1_655     S
Er69     V71    10.0   .     S
Er69     Er70    9.999   1_455     S
Er70     V72    10.0   .     S
Er70     Er69    9.999   1_655     S
V71     V72    10.001   1_455     S
V72     V71    10.001   1_655     S
