data_fvl
_audit_creation_date              2020-02-04
_audit_creation_method            'Pymatgen'
_symmetry_space_group_name_H-M    'P1'
_symmetry_Int_Tables_number       1
loop_
_symmetry_equiv_pos_as_xyz
  x,y,z
_cell_length_a                    39.2945
_cell_length_b                    39.2945
_cell_length_c                    61.0043
_cell_angle_alpha                 90.0
_cell_angle_beta                 90.0
_cell_angle_gamma                 120.0
loop_
_atom_site_label
_atom_site_type_symbol
_atom_site_fract_x
_atom_site_fract_y
_atom_site_fract_z
Er1     Er     0.9092   0.4546   0.3796
Er2     Er     0.5454   0.0908   0.3796
V3     V     0.1637   0.5818   0.4616
V4     V     0.4182   0.8363   0.4616
Er5     Er     0.7879   0.5758   0.287
Er6     Er     0.4242   0.2121   0.287
V7     V     0.9152   0.8303   0.2051
V8     V     0.1697   0.0848   0.2051
Er9     Er     0.7879   0.2121   0.287
V10     V     0.9152   0.0848   0.2051
Er11     Er     0.5454   0.4546   0.3796
V12     V     0.4182   0.5818   0.4616
Er13     Er     0.2121   0.7879   0.713
V14     V     0.0848   0.9152   0.7949
Er15     Er     0.4546   0.9092   0.6204
Er16     Er     0.0908   0.5454   0.6204
V17     V     0.5818   0.1637   0.5384
V18     V     0.8363   0.4182   0.5384
Er19     Er     0.2121   0.4242   0.713
Er20     Er     0.5758   0.7879   0.713
V21     V     0.8303   0.9152   0.7949
V22     V     0.0848   0.1697   0.7949
Er23     Er     0.4546   0.5454   0.6204
V24     V     0.5818   0.4182   0.5384
Er25     Er     0.8788   0.7575   0.0463
Er26     Er     0.2425   0.1212   0.0463
Er27     Er     0.8788   0.1212   0.0463
V28     V     0.7515   0.503   0.1282
V29     V     0.497   0.2485   0.1282
V30     V     0.7515   0.2485   0.1282
Er31     Er     0.7575   0.8788   0.9537
Er32     Er     0.1212   0.2425   0.9537
Er33     Er     0.1212   0.8788   0.9537
V34     V     0.2485   0.497   0.8718
V35     V     0.503   0.7515   0.8718
V36     V     0.2485   0.7515   0.8718
loop_
_geom_bond_atom_site_label_1
_geom_bond_atom_site_label_2
_geom_bond_distance
_geom_bond_site_symmetry_2
_ccdc_geom_bond_type
Er1     V18    10.0   .     S
Er1     V3    10.0   1_655     S
Er1     Er5    10.0   .     S
Er1     Er9    10.0   .     S
Er2     V4    10.0   1_545     S
Er2     V17    10.0   .     S
Er2     Er6    10.0   .     S
Er2     Er9    10.0   .     S
V3     Er1    10.0   1_455     S
V3     V4    10.0   .     S
V3     V12    10.0   .     S
V3     Er16    10.0   .     S
V4     Er2    10.0   1_565     S
V4     V12    10.0   .     S
V4     Er15    10.0   .     S
Er5     V7    10.0   .     S
Er5     V28    10.0   .     S
Er5     Er11    10.0   .     S
Er6     V8    10.0   .     S
Er6     V29    10.0   .     S
Er6     Er11    10.0   .     S
V7     V8    10.0   1_665     S
V7     V10    10.0   1_565     S
V7     Er25    10.0   .     S
V8     V7    10.0   1_445     S
V8     V10    10.0   1_455     S
V8     Er26    10.0   .     S
Er9     V10    10.0   .     S
Er9     V30    10.0   .     S
V10     V7    10.0   1_545     S
V10     V8    10.0   1_655     S
V10     Er27    10.0   .     S
Er11     V12    10.0   .     S
Er11     V24    10.0   .     S
V12     Er23    10.0   .     S
Er13     V14    10.0   .     S
Er13     V36    10.0   .     S
Er13     Er15    10.0   .     S
Er13     Er16    10.0   .     S
V14     V22    10.0   1_565     S
V14     V21    10.0   1_455     S
V14     Er33    10.0   .     S
Er15     V17    10.0   1_565     S
Er15     Er20    10.0   .     S
Er16     V18    10.0   1_455     S
Er16     Er19    10.0   .     S
V17     Er15    10.0   1_545     S
V17     V18    10.0   .     S
V17     V24    10.0   .     S
V18     Er16    10.0   1_655     S
V18     V24    10.0   .     S
Er19     V22    10.0   .     S
Er19     V34    10.0   .     S
Er19     Er23    10.0   .     S
Er20     V21    10.0   .     S
Er20     V35    10.0   .     S
Er20     Er23    10.0   .     S
V21     V22    10.0   1_665     S
V21     V14    10.0   1_655     S
V21     Er31    10.0   .     S
V22     V14    10.0   1_545     S
V22     V21    10.0   1_445     S
V22     Er32    10.0   .     S
Er23     V24    10.0   .     S
Er25     V28    10.0   .     S
Er25     Er31    10.0   1_554     S
Er25     Er33    10.0   1_654     S
Er26     V29    10.0   .     S
Er26     Er33    10.0   1_544     S
Er26     Er32    10.001   1_554     S
Er27     V30    10.0   .     S
Er27     Er31    10.0   1_544     S
Er27     Er32    10.0   1_654     S
V28     V30    10.0   .     S
V28     V29    10.0   .     S
V29     V30    10.0   .     S
Er31     Er25    10.0   1_556     S
Er31     Er27    10.0   1_566     S
Er31     V35    10.0   .     S
Er32     V34    10.0   .     S
Er32     Er27    10.0   1_456     S
Er32     Er26    10.001   1_556     S
Er33     Er26    10.0   1_566     S
Er33     V36    10.0   .     S
Er33     Er25    10.0   1_456     S
V34     V36    10.0   .     S
V34     V35    10.0   .     S
V35     V36    10.0   .     S
