data_fvp
_audit_creation_date              2020-02-04
_audit_creation_method            'Pymatgen'
_symmetry_space_group_name_H-M    'P1'
_symmetry_Int_Tables_number       1
loop_
_symmetry_equiv_pos_as_xyz
  x,y,z
_cell_length_a                    40.0603
_cell_length_b                    40.0603
_cell_length_c                    97.6828
_cell_angle_alpha                 90.0
_cell_angle_beta                 90.0
_cell_angle_gamma                 120.0
loop_
_atom_site_label
_atom_site_type_symbol
_atom_site_fract_x
_atom_site_fract_y
_atom_site_fract_z
V1     V     0.7504   0.7504   0.875
V2     V     0.583   0.6667   0.7917
V3     V     0.583   0.9163   0.7917
V4     V     0.7504   0.0   0.875
V5     V     0.0837   0.6667   0.7917
V6     V     0.0   0.7504   0.875
V7     V     0.0837   0.417   0.7917
V8     V     0.0   0.2496   0.875
V9     V     0.2496   0.2496   0.875
V10     V     0.3333   0.417   0.7917
V11     V     0.2496   0.0   0.875
V12     V     0.3333   0.9163   0.7917
V13     V     0.6667   0.0837   0.2083
V14     V     0.7504   0.0   0.125
V15     V     0.2496   0.0   0.125
V16     V     0.417   0.0837   0.2083
V17     V     0.9163   0.583   0.2083
V18     V     0.0   0.7504   0.125
V19     V     0.417   0.3333   0.2083
V20     V     0.2496   0.2496   0.125
V21     V     0.9163   0.3333   0.2083
V22     V     0.0   0.2496   0.125
V23     V     0.7504   0.7504   0.125
V24     V     0.6667   0.583   0.2083
Er25     Er     0.6667   0.583   0.0417
Er26     Er     0.583   0.6667   0.9583
Er27     Er     0.3333   0.417   0.9583
Er28     Er     0.417   0.3333   0.0417
Er29     Er     0.9163   0.583   0.0417
Er30     Er     0.0837   0.6667   0.9583
Er31     Er     0.9163   0.3333   0.0417
Er32     Er     0.0837   0.417   0.9583
Er33     Er     0.6667   0.0837   0.0417
Er34     Er     0.583   0.9163   0.9583
Er35     Er     0.417   0.0837   0.0417
Er36     Er     0.3333   0.9163   0.9583
Er37     Er     0.0   0.7504   0.7083
Er38     Er     0.9163   0.583   0.625
Er39     Er     0.9163   0.3333   0.625
Er40     Er     0.0   0.2496   0.7083
Er41     Er     0.2496   0.2496   0.7083
Er42     Er     0.417   0.3333   0.625
Er43     Er     0.6667   0.0837   0.625
Er44     Er     0.7504   0.0   0.7083
Er45     Er     0.2496   0.0   0.7083
Er46     Er     0.417   0.0837   0.625
Er47     Er     0.7504   0.7504   0.7083
Er48     Er     0.6667   0.583   0.625
V49     V     0.583   0.6667   0.5417
V50     V     0.6667   0.583   0.4583
V51     V     0.3333   0.417   0.5417
V52     V     0.417   0.3333   0.4583
V53     V     0.0837   0.6667   0.5417
V54     V     0.9163   0.583   0.4583
V55     V     0.0837   0.417   0.5417
V56     V     0.9163   0.3333   0.4583
V57     V     0.583   0.9163   0.5417
V58     V     0.6667   0.0837   0.4583
V59     V     0.3333   0.9163   0.5417
V60     V     0.417   0.0837   0.4583
Er61     Er     0.583   0.6667   0.375
Er62     Er     0.7504   0.7504   0.2917
Er63     Er     0.583   0.9163   0.375
Er64     Er     0.7504   0.0   0.2917
Er65     Er     0.3333   0.9163   0.375
Er66     Er     0.2496   0.0   0.2917
Er67     Er     0.3333   0.417   0.375
Er68     Er     0.2496   0.2496   0.2917
Er69     Er     0.0837   0.6667   0.375
Er70     Er     0.0   0.7504   0.2917
Er71     Er     0.0837   0.417   0.375
Er72     Er     0.0   0.2496   0.2917
loop_
_geom_bond_atom_site_label_1
_geom_bond_atom_site_label_2
_geom_bond_distance
_geom_bond_site_symmetry_2
_ccdc_geom_bond_type
V1     V2    10.0   .     S
V1     V6    10.0   1_655     S
V1     V4    10.0   1_565     S
V1     Er26    10.0   .     S
V2     V10    10.0   .     S
V2     V3    10.0   .     S
V2     Er47    10.0   .     S
V3     V4    10.0   1_565     S
V3     V12    10.0   .     S
V3     Er44    10.0   1_565     S
V4     V3    10.0   1_545     S
V4     V1    10.0   1_545     S
V4     V8    10.0   1_655     S
V4     Er34    10.0   1_545     S
V5     V6    10.0   .     S
V5     V7    10.0   .     S
V5     V12    10.0   .     S
V5     Er37    10.0   .     S
V6     V1    10.0   1_455     S
V6     V11    10.0   1_565     S
V6     Er30    10.0   .     S
V7     V8    10.0   .     S
V7     V10    10.0   .     S
V7     Er40    10.0   .     S
V8     V4    10.0   1_455     S
V8     V9    10.0   .     S
V8     Er32    10.0   .     S
V9     V10    10.0   .     S
V9     V11    10.0   .     S
V9     Er27    10.0   .     S
V10     Er41    10.0   .     S
V11     V12    10.0   1_545     S
V11     V6    10.0   1_545     S
V11     Er36    10.0   1_545     S
V12     V11    10.0   1_565     S
V12     Er45    10.0   1_565     S
V13     V14    10.0   .     S
V13     V16    10.0   .     S
V13     V21    10.0   .     S
V13     Er64    10.0   .     S
V14     V23    10.0   1_545     S
V14     V22    10.0   1_655     S
V14     Er33    10.0   .     S
V15     V16    10.0   .     S
V15     V20    10.0   .     S
V15     V18    10.0   1_545     S
V15     Er35    10.0   .     S
V16     V19    10.0   .     S
V16     Er66    10.0   .     S
V17     V18    10.0   1_655     S
V17     V21    10.0   .     S
V17     V24    10.0   .     S
V17     Er70    10.0   1_655     S
V18     V17    10.0   1_455     S
V18     V15    10.0   1_565     S
V18     V23    10.0   1_455     S
V18     Er29    10.0   1_455     S
V19     V20    10.0   .     S
V19     V24    10.0   .     S
V19     Er68    10.0   .     S
V20     V22    10.0   .     S
V20     Er28    10.0   .     S
V21     V22    10.0   1_655     S
V21     Er72    10.0   1_655     S
V22     V14    10.0   1_455     S
V22     V21    10.0   1_455     S
V22     Er31    10.0   1_455     S
V23     V14    10.0   1_565     S
V23     V24    10.0   .     S
V23     V18    10.0   1_655     S
V23     Er25    10.0   .     S
V24     Er62    10.0   .     S
Er25     Er26    10.0   1_554     S
Er25     Er28    10.0   .     S
Er25     Er29    10.0   .     S
Er26     Er25    10.0   1_556     S
Er26     Er27    10.0   .     S
Er26     Er34    10.0   .     S
Er27     Er28    10.0   1_556     S
Er27     Er32    10.0   .     S
Er28     Er27    10.0   1_554     S
Er28     Er35    10.0   .     S
Er29     Er30    10.0   1_654     S
Er29     Er31    10.0   .     S
Er29     V18    10.0   1_655     S
Er30     Er29    10.0   1_456     S
Er30     Er32    10.0   .     S
Er30     Er36    10.0   .     S
Er31     Er32    10.0   1_654     S
Er31     Er33    10.0   .     S
Er31     V22    10.0   1_655     S
Er32     Er31    10.0   1_456     S
Er33     Er34    10.0   1_544     S
Er33     Er35    10.0   .     S
Er34     Er33    10.0   1_566     S
Er34     Er36    10.0   .     S
Er34     V4    10.0   1_565     S
Er35     Er36    10.0   1_544     S
Er36     Er35    10.0   1_566     S
Er36     V11    10.0   1_565     S
Er37     Er38    10.0   1_455     S
Er37     Er45    10.0   1_565     S
Er37     Er47    10.0   1_455     S
Er38     Er37    10.0   1_655     S
Er38     Er39    10.0   .     S
Er38     Er48    10.0   .     S
Er38     V53    10.0   1_655     S
Er39     Er40    10.0   1_655     S
Er39     Er43    10.0   .     S
Er39     V55    10.0   1_655     S
Er40     Er39    10.0   1_455     S
Er40     Er44    10.0   1_455     S
Er40     Er41    10.0   .     S
Er41     Er42    10.0   .     S
Er41     Er45    10.0   .     S
Er42     Er46    10.0   .     S
Er42     Er48    10.0   .     S
Er42     V51    10.0   .     S
Er43     Er44    10.0   .     S
Er43     Er46    10.0   .     S
Er43     V57    10.0   1_545     S
Er44     Er47    10.0   1_545     S
Er44     Er40    10.0   1_655     S
Er44     V3    10.0   1_545     S
Er45     Er46    10.0   .     S
Er45     Er37    10.0   1_545     S
Er45     V12    10.0   1_545     S
Er46     V59    10.0   1_545     S
Er47     Er44    10.0   1_565     S
Er47     Er48    10.0   .     S
Er47     Er37    10.0   1_655     S
Er48     V49    10.0   .     S
V49     V50    10.0   .     S
V49     V51    10.0   .     S
V49     V57    10.0   .     S
V50     V52    10.0   .     S
V50     V54    10.0   .     S
V50     Er61    10.0   .     S
V51     V52    10.0   .     S
V51     V55    10.0   .     S
V52     V60    10.0   .     S
V52     Er67    10.0   .     S
V53     Er38    10.0   1_455     S
V53     V54    10.0   1_455     S
V53     V55    10.0   .     S
V53     V59    10.0   .     S
V54     V53    10.0   1_655     S
V54     V56    10.0   .     S
V54     Er69    10.0   1_655     S
V55     Er39    10.0   1_455     S
V55     V56    10.0   1_455     S
V56     V55    10.0   1_655     S
V56     V58    10.0   .     S
V56     Er71    10.0   1_655     S
V57     Er43    10.0   1_565     S
V57     V58    10.0   1_565     S
V57     V59    10.0   .     S
V58     V57    10.0   1_545     S
V58     V60    10.0   .     S
V58     Er63    10.0   1_545     S
V59     Er46    10.0   1_565     S
V59     V60    10.0   1_565     S
V60     V59    10.0   1_545     S
V60     Er65    10.0   1_545     S
Er61     Er62    10.0   .     S
Er61     Er67    10.0   .     S
Er61     Er63    10.0   .     S
Er62     Er70    10.0   1_655     S
Er62     Er64    10.0   1_565     S
Er63     Er64    10.0   1_565     S
Er63     Er65    10.0   .     S
Er63     V58    10.0   1_565     S
Er64     Er63    10.0   1_545     S
Er64     Er62    10.0   1_545     S
Er64     Er72    10.0   1_655     S
Er65     Er66    10.0   1_565     S
Er65     Er69    10.0   .     S
Er65     V60    10.0   1_565     S
Er66     Er65    10.0   1_545     S
Er66     Er68    10.0   .     S
Er66     Er70    10.0   1_545     S
Er67     Er68    10.0   .     S
Er67     Er71    10.0   .     S
Er68     Er72    10.0   .     S
Er69     Er70    10.0   .     S
Er69     Er71    10.0   .     S
Er69     V54    10.0   1_455     S
Er70     Er62    10.0   1_455     S
Er70     Er66    10.0   1_565     S
Er70     V17    10.0   1_455     S
Er71     Er72    10.0   .     S
Er71     V56    10.0   1_455     S
Er72     Er64    10.0   1_455     S
Er72     V21    10.0   1_455     S
