data_fvq
_audit_creation_date              2020-02-04
_audit_creation_method            'Pymatgen'
_symmetry_space_group_name_H-M    'P1'
_symmetry_Int_Tables_number       1
loop_
_symmetry_equiv_pos_as_xyz
  x,y,z
_cell_length_a                    56.2023
_cell_length_b                    56.2023
_cell_length_c                    56.2023
_cell_angle_alpha                 90.0
_cell_angle_beta                 90.0
_cell_angle_gamma                 90.0
loop_
_atom_site_label
_atom_site_type_symbol
_atom_site_fract_x
_atom_site_fract_y
_atom_site_fract_z
V1     V     0.5016   0.3758   0.25
V2     V     0.5016   0.25   0.3758
V3     V     0.5016   0.1242   0.25
V4     V     0.5016   0.25   0.1242
V5     V     0.25   0.5016   0.3758
V6     V     0.3758   0.5016   0.25
V7     V     0.25   0.5016   0.1242
V8     V     0.1242   0.5016   0.25
V9     V     0.3758   0.25   0.5016
V10     V     0.25   0.3758   0.5016
V11     V     0.1242   0.25   0.5016
V12     V     0.25   0.1242   0.5016
V13     V     0.3758   0.9984   0.25
V14     V     0.25   0.9984   0.3758
V15     V     0.25   0.9984   0.1242
V16     V     0.1242   0.9984   0.25
V17     V     0.9984   0.25   0.3758
V18     V     0.9984   0.3758   0.25
V19     V     0.9984   0.1242   0.25
V20     V     0.9984   0.25   0.1242
V21     V     0.75   0.0016   0.6242
V22     V     0.6242   0.0016   0.75
V23     V     0.8758   0.0016   0.75
V24     V     0.75   0.0016   0.8758
V25     V     0.0016   0.6242   0.75
V26     V     0.0016   0.75   0.6242
V27     V     0.0016   0.75   0.8758
V28     V     0.0016   0.8758   0.75
V29     V     0.8758   0.75   0.0016
V30     V     0.75   0.8758   0.0016
V31     V     0.75   0.6242   0.0016
V32     V     0.6242   0.75   0.0016
V33     V     0.4984   0.75   0.8758
V34     V     0.4984   0.6242   0.75
V35     V     0.4984   0.8758   0.75
V36     V     0.4984   0.75   0.6242
V37     V     0.8758   0.4984   0.75
V38     V     0.75   0.4984   0.6242
V39     V     0.6242   0.4984   0.75
V40     V     0.75   0.4984   0.8758
V41     V     0.75   0.8758   0.4984
V42     V     0.6242   0.75   0.4984
V43     V     0.75   0.6242   0.4984
V44     V     0.8758   0.75   0.4984
Er45     Er     0.6704   0.2898   0.0844
Er46     Er     0.6704   0.4156   0.2102
Er47     Er     0.5844   0.7102   0.1704
Er48     Er     0.7102   0.5844   0.1704
Er49     Er     0.2898   0.6704   0.0844
Er50     Er     0.4156   0.6704   0.2102
Er51     Er     0.3296   0.5844   0.7898
Er52     Er     0.3296   0.7102   0.9156
Er53     Er     0.2898   0.4156   0.8296
Er54     Er     0.4156   0.2898   0.8296
Er55     Er     0.5844   0.3296   0.7898
Er56     Er     0.7102   0.3296   0.9156
Er57     Er     0.2898   0.0844   0.6704
Er58     Er     0.4156   0.2102   0.6704
Er59     Er     0.5844   0.1704   0.7102
Er60     Er     0.7102   0.1704   0.5844
Er61     Er     0.6704   0.0844   0.2898
Er62     Er     0.6704   0.2102   0.4156
Er63     Er     0.5844   0.7898   0.3296
Er64     Er     0.7102   0.9156   0.3296
Er65     Er     0.4156   0.8296   0.2898
Er66     Er     0.2898   0.8296   0.4156
Er67     Er     0.3296   0.7898   0.5844
Er68     Er     0.3296   0.9156   0.7102
Er69     Er     0.0844   0.6704   0.2898
Er70     Er     0.2102   0.6704   0.4156
Er71     Er     0.1704   0.7102   0.5844
Er72     Er     0.1704   0.5844   0.7102
Er73     Er     0.8296   0.2898   0.4156
Er74     Er     0.8296   0.4156   0.2898
Er75     Er     0.7898   0.5844   0.3296
Er76     Er     0.9156   0.7102   0.3296
Er77     Er     0.7898   0.3296   0.5844
Er78     Er     0.9156   0.3296   0.7102
Er79     Er     0.2102   0.4156   0.6704
Er80     Er     0.0844   0.2898   0.6704
Er81     Er     0.9156   0.1704   0.7898
Er82     Er     0.7898   0.1704   0.9156
Er83     Er     0.8296   0.2102   0.0844
Er84     Er     0.8296   0.0844   0.2102
Er85     Er     0.9156   0.7898   0.1704
Er86     Er     0.7898   0.9156   0.1704
Er87     Er     0.2102   0.8296   0.0844
Er88     Er     0.0844   0.8296   0.2102
Er89     Er     0.0844   0.2102   0.8296
Er90     Er     0.2102   0.0844   0.8296
Er91     Er     0.1704   0.9156   0.7898
Er92     Er     0.1704   0.7898   0.9156
V93     V     0.3758   0.25   0.9984
V94     V     0.25   0.3758   0.9984
V95     V     0.1242   0.25   0.9984
V96     V     0.25   0.1242   0.9984
loop_
_geom_bond_atom_site_label_1
_geom_bond_atom_site_label_2
_geom_bond_distance
_geom_bond_site_symmetry_2
_ccdc_geom_bond_type
V1     V4    10.0   .     S
V1     V2    10.0   .     S
V1     Er46    10.0   .     S
V1     V6    10.0   .     S
V2     V3    10.0   .     S
V2     Er62    10.0   .     S
V2     V9    10.0   .     S
V3     V4    10.0   .     S
V3     Er61    10.0   .     S
V3     V13    10.0   1_545     S
V4     Er45    10.0   .     S
V4     V93    10.0   1_554     S
V5     V8    10.0   .     S
V5     V6    10.0   .     S
V5     Er70    10.0   .     S
V5     V10    10.0   .     S
V6     V7    10.0   .     S
V6     Er50    10.0   .     S
V7     V8    10.0   .     S
V7     Er49    10.0   .     S
V7     V94    10.0   1_554     S
V8     Er69    10.0   .     S
V8     V18    10.0   1_455     S
V9     V12    10.0   .     S
V9     V10    10.0   .     S
V9     Er58    10.0   .     S
V10     V11    10.0   .     S
V10     Er79    10.0   .     S
V11     V12    10.0   .     S
V11     Er80    10.0   .     S
V11     V17    10.0   1_455     S
V12     Er57    10.0   .     S
V12     V14    10.0   1_545     S
V13     V15    10.0   .     S
V13     V14    10.0   .     S
V13     Er65    10.0   .     S
V13     V3    10.0   1_565     S
V14     V16    10.0   .     S
V14     Er66    10.0   .     S
V14     V12    10.0   1_565     S
V15     V16    10.0   .     S
V15     Er87    10.0   .     S
V15     V96    10.0   1_564     S
V16     Er88    10.0   .     S
V16     V19    10.0   1_465     S
V17     V19    10.0   .     S
V17     V18    10.0   .     S
V17     Er73    10.0   .     S
V17     V11    10.0   1_655     S
V18     V20    10.0   .     S
V18     Er74    10.0   .     S
V18     V8    10.0   1_655     S
V19     V20    10.0   .     S
V19     Er84    10.0   .     S
V19     V16    10.0   1_645     S
V20     Er83    10.0   .     S
V20     V95    10.0   1_654     S
V21     V22    10.0   .     S
V21     V23    10.0   .     S
V21     Er60    10.0   .     S
V21     V41    10.0   1_545     S
V22     V24    10.0   .     S
V22     Er59    10.0   .     S
V22     V35    10.0   1_545     S
V23     V24    10.0   .     S
V23     Er81    10.0   .     S
V23     V28    10.0   1_645     S
V24     Er82    10.0   .     S
V24     V30    10.0   1_546     S
V25     V26    10.0   .     S
V25     V27    10.0   .     S
V25     Er72    10.0   .     S
V25     V37    10.0   1_455     S
V26     V28    10.0   .     S
V26     Er71    10.0   .     S
V26     V44    10.0   1_455     S
V27     V28    10.0   .     S
V27     Er92    10.0   .     S
V27     V29    10.0   1_456     S
V28     Er91    10.0   .     S
V28     V23    10.0   1_465     S
V29     V30    10.0   .     S
V29     V31    10.0   .     S
V29     Er85    10.0   .     S
V29     V27    10.0   1_654     S
V30     V32    10.0   .     S
V30     Er86    10.0   .     S
V30     V24    10.0   1_564     S
V31     V32    10.0   .     S
V31     Er48    10.0   .     S
V31     V40    10.0   1_554     S
V32     Er47    10.0   .     S
V32     V33    10.0   1_554     S
V33     V34    10.0   .     S
V33     V35    10.0   .     S
V33     Er52    10.0   .     S
V33     V32    10.0   1_556     S
V34     V36    10.0   .     S
V34     Er51    10.0   .     S
V34     V39    10.0   .     S
V35     V36    10.0   .     S
V35     Er68    10.0   .     S
V35     V22    10.0   1_565     S
V36     Er67    10.0   .     S
V36     V42    10.0   .     S
V37     V38    10.0   .     S
V37     V40    10.0   .     S
V37     Er78    10.0   .     S
V37     V25    10.0   1_655     S
V38     V39    10.0   .     S
V38     Er77    10.0   .     S
V38     V43    10.0   .     S
V39     V40    10.0   .     S
V39     Er55    10.0   .     S
V40     Er56    10.0   .     S
V40     V31    10.0   1_556     S
V41     V42    10.0   .     S
V41     V44    10.0   .     S
V41     Er64    10.0   .     S
V41     V21    10.0   1_565     S
V42     V43    10.0   .     S
V42     Er63    10.0   .     S
V43     V44    10.0   .     S
V43     Er75    10.0   .     S
V44     Er76    10.0   .     S
V44     V26    10.0   1_655     S
Er45     Er46    10.0   .     S
Er45     Er56    10.0   1_554     S
Er45     Er83    10.0   .     S
Er46     Er48    10.0   .     S
Er46     Er74    10.0   .     S
Er47     Er48    10.0   .     S
Er47     Er50    10.0   .     S
Er47     Er63    10.0   .     S
Er48     Er75    10.0   .     S
Er49     Er50    10.0   .     S
Er49     Er52    10.0   1_554     S
Er49     Er87    10.0   .     S
Er50     Er65    10.0   .     S
Er51     Er52    10.0   .     S
Er51     Er53    10.0   .     S
Er51     Er72    10.0   .     S
Er52     Er49    10.0   1_556     S
Er52     Er92    10.0   .     S
Er53     Er54    10.0   .     S
Er53     Er79    10.0   .     S
Er53     V94    10.0   .     S
Er54     Er55    10.0   .     S
Er54     Er58    10.0   .     S
Er54     V93    10.0   .     S
Er55     Er56    10.0   .     S
Er55     Er59    10.0   .     S
Er56     Er45    10.0   1_556     S
Er56     Er82    10.0   .     S
Er57     Er58    10.0   .     S
Er57     Er68    10.0   1_545     S
Er57     Er90    10.0   .     S
Er58     Er59    10.0   .     S
Er59     Er60    10.0   .     S
Er60     Er62    10.0   .     S
Er60     Er77    10.0   .     S
Er61     Er62    10.0   .     S
Er61     Er64    10.0   1_545     S
Er61     Er84    10.0   .     S
Er62     Er73    10.0   .     S
Er63     Er64    10.0   .     S
Er63     Er65    10.0   .     S
Er64     Er61    10.0   1_565     S
Er64     Er86    10.0   .     S
Er65     Er66    10.0   .     S
Er66     Er67    10.0   .     S
Er66     Er70    10.0   .     S
Er67     Er68    10.0   .     S
Er67     Er71    10.0   .     S
Er68     Er57    10.0   1_565     S
Er68     Er91    10.0   .     S
Er69     Er70    10.0   .     S
Er69     Er76    10.0   1_455     S
Er69     Er88    10.0   .     S
Er70     Er71    10.0   .     S
Er71     Er72    10.0   .     S
Er72     Er79    10.0   .     S
Er73     Er74    10.0   .     S
Er73     Er77    10.0   .     S
Er74     Er75    10.0   .     S
Er75     Er76    10.0   .     S
Er76     Er69    10.0   1_655     S
Er76     Er85    10.0   .     S
Er77     Er78    10.0   .     S
Er78     Er80    10.0   1_655     S
Er78     Er81    10.0   .     S
Er79     Er80    10.0   .     S
Er80     Er78    10.0   1_455     S
Er80     Er89    10.0   .     S
Er81     Er82    10.0   .     S
Er81     Er89    10.0   1_655     S
Er82     Er83    10.0   1_556     S
Er83     Er84    10.0   .     S
Er83     Er82    10.0   1_554     S
Er84     Er86    10.0   1_545     S
Er85     Er86    10.0   .     S
Er85     Er88    10.0   1_655     S
Er86     Er84    10.0   1_565     S
Er87     Er88    10.0   .     S
Er87     Er92    10.0   1_554     S
Er88     Er85    10.0   1_455     S
Er89     Er81    10.0   1_455     S
Er89     Er90    10.0   .     S
Er89     V95    10.0   .     S
Er90     Er91    10.0   1_545     S
Er90     V96    10.0   .     S
Er91     Er90    10.0   1_565     S
Er91     Er92    10.0   .     S
Er92     Er87    10.0   1_556     S
V93     V96    10.0   .     S
V93     V94    10.0   .     S
V93     V4    10.0   1_556     S
V94     V95    10.0   .     S
V94     V7    10.0   1_556     S
V95     V96    10.0   .     S
V95     V20    10.0   1_456     S
V96     V15    10.0   1_546     S
