data_fvs
_audit_creation_date              2020-02-04
_audit_creation_method            'Pymatgen'
_symmetry_space_group_name_H-M    'P1'
_symmetry_Int_Tables_number       1
loop_
_symmetry_equiv_pos_as_xyz
  x,y,z
_cell_length_a                    44.7466
_cell_length_b                    44.7466
_cell_length_c                    44.7466
_cell_angle_alpha                 90.0
_cell_angle_beta                 90.0
_cell_angle_gamma                 90.0
loop_
_atom_site_label
_atom_site_type_symbol
_atom_site_fract_x
_atom_site_fract_y
_atom_site_fract_z
V1     V     0.8396   0.3855   0.4521
V2     V     0.5479   0.3396   0.1145
V3     V     0.8855   0.0479   0.1604
Er4     Er     0.683   0.2261   0.449
Er5     Er     0.7261   0.051   0.317
Er6     Er     0.551   0.183   0.2739
V7     V     0.5479   0.1604   0.6145
V8     V     0.8855   0.4521   0.6604
V9     V     0.8396   0.1145   0.9521
Er10     Er     0.7261   0.449   0.817
Er11     Er     0.551   0.317   0.7739
Er12     Er     0.683   0.2739   0.949
V13     V     0.3855   0.4521   0.8396
V14     V     0.3396   0.1145   0.5479
V15     V     0.0479   0.1604   0.8855
Er16     Er     0.2261   0.449   0.683
Er17     Er     0.051   0.317   0.7261
Er18     Er     0.183   0.2739   0.551
V19     V     0.1604   0.6145   0.5479
V20     V     0.4521   0.6604   0.8855
V21     V     0.1145   0.9521   0.8396
Er22     Er     0.317   0.7739   0.551
Er23     Er     0.449   0.817   0.7261
Er24     Er     0.2739   0.949   0.683
V25     V     0.6604   0.6145   0.9521
V26     V     0.9521   0.6604   0.6145
V27     V     0.6145   0.9521   0.6604
Er28     Er     0.7739   0.949   0.817
Er29     Er     0.949   0.817   0.7739
Er30     Er     0.817   0.7739   0.949
V31     V     0.3396   0.3855   0.0479
V32     V     0.3855   0.0479   0.3396
V33     V     0.0479   0.3396   0.3855
Er34     Er     0.051   0.183   0.2261
Er35     Er     0.2261   0.051   0.183
Er36     Er     0.183   0.2261   0.051
V37     V     0.4521   0.8396   0.3855
V38     V     0.1145   0.5479   0.3396
V39     V     0.1604   0.8855   0.0479
Er40     Er     0.449   0.683   0.2261
Er41     Er     0.317   0.7261   0.051
Er42     Er     0.2739   0.551   0.183
V43     V     0.6145   0.5479   0.1604
V44     V     0.6604   0.8855   0.4521
V45     V     0.9521   0.8396   0.1145
Er46     Er     0.7739   0.551   0.317
Er47     Er     0.817   0.7261   0.449
Er48     Er     0.949   0.683   0.2739
loop_
_geom_bond_atom_site_label_1
_geom_bond_atom_site_label_2
_geom_bond_distance
_geom_bond_site_symmetry_2
_ccdc_geom_bond_type
V1     V8    10.0   .     S
V1     Er4    10.0   .     S
V1     V33    10.0   1_655     S
V1     Er46    10.001   .     S
V2     V31    10.0   .     S
V2     Er6    10.0   .     S
V2     V43    10.0   .     S
V2     Er12    10.001   1_554     S
V3     V45    10.0   1_545     S
V3     Er5    10.0   .     S
V3     V9    10.0   1_554     S
V3     Er34    10.001   1_655     S
Er4     Er5    10.0   .     S
Er4     Er6    10.0   .     S
Er4     V7    10.001   .     S
Er5     Er6    10.0   .     S
Er5     V44    10.001   1_545     S
Er6     V32    10.001   .     S
V7     V14    10.0   .     S
V7     Er11    10.0   .     S
V7     V27    10.0   1_545     S
V8     V26    10.0   .     S
V8     Er10    10.0   .     S
V8     Er17    10.001   1_655     S
V9     V3    10.0   1_556     S
V9     Er12    10.0   .     S
V9     V15    10.0   1_655     S
V9     Er28    10.001   1_545     S
Er10     Er11    10.0   .     S
Er10     Er12    10.0   .     S
Er10     V25    10.001   .     S
Er11     Er12    10.0   .     S
Er11     V13    10.001   .     S
Er12     V2    10.001   1_556     S
V13     V20    10.0   .     S
V13     Er16    10.0   .     S
V13     V31    10.0   1_556     S
V14     V32    10.0   .     S
V14     Er18    10.0   .     S
V14     Er24    10.001   1_545     S
V15     V9    10.0   1_455     S
V15     Er17    10.0   .     S
V15     V21    10.0   1_545     S
V15     Er36    10.001   1_556     S
Er16     Er17    10.0   .     S
Er16     Er18    10.0   .     S
Er16     V19    10.001   .     S
Er17     Er18    10.0   .     S
Er17     V8    10.001   1_455     S
Er18     V33    10.001   .     S
V19     V38    10.0   .     S
V19     Er22    10.0   .     S
V19     V26    10.0   1_455     S
V20     V25    10.0   .     S
V20     Er23    10.0   .     S
V20     Er41    10.001   1_556     S
V21     V15    10.0   1_565     S
V21     Er24    10.0   .     S
V21     V39    10.0   1_556     S
V21     Er29    10.001   1_455     S
Er22     Er23    10.0   .     S
Er22     Er24    10.0   .     S
Er22     V37    10.001   .     S
Er23     Er24    10.0   .     S
Er23     V27    10.001   .     S
Er24     V14    10.001   1_565     S
V25     V43    10.0   1_556     S
V25     Er30    10.0   .     S
V26     V19    10.0   1_655     S
V26     Er29    10.0   .     S
V26     Er47    10.001   .     S
V27     V7    10.0   1_565     S
V27     Er28    10.0   .     S
V27     V44    10.0   .     S
Er28     Er30    10.0   .     S
Er28     Er29    10.0   .     S
Er28     V9    10.001   1_565     S
Er29     Er30    10.0   .     S
Er29     V21    10.001   1_655     S
Er30     V45    10.001   1_556     S
V31     V13    10.0   1_554     S
V31     Er36    10.0   .     S
V31     Er42    10.001   .     S
V32     V37    10.0   1_545     S
V32     Er35    10.0   .     S
V33     V1    10.0   1_455     S
V33     Er34    10.0   .     S
V33     V38    10.0   .     S
Er34     Er36    10.0   .     S
Er34     Er35    10.0   .     S
Er34     V3    10.001   1_455     S
Er35     Er36    10.0   .     S
Er35     V39    10.001   1_545     S
Er36     V15    10.001   1_554     S
V37     V32    10.0   1_565     S
V37     V44    10.0   .     S
V37     Er40    10.0   .     S
V38     Er42    10.0   .     S
V38     Er48    10.001   1_455     S
V39     V21    10.0   1_554     S
V39     Er41    10.0   .     S
V39     V45    10.0   1_455     S
V39     Er35    10.001   1_565     S
Er40     Er41    10.0   .     S
Er40     Er42    10.0   .     S
Er40     V43    10.001   .     S
Er41     Er42    10.0   .     S
Er41     V20    10.001   1_554     S
V43     V25    10.0   1_554     S
V43     Er46    10.0   .     S
V44     Er47    10.0   .     S
V44     Er5    10.001   1_565     S
V45     V3    10.0   1_565     S
V45     V39    10.0   1_655     S
V45     Er48    10.0   .     S
V45     Er30    10.001   1_554     S
Er46     Er48    10.0   .     S
Er46     Er47    10.0   .     S
Er47     Er48    10.0   .     S
Er48     V38    10.001   1_655     S
