data_gaf
_audit_creation_date              2020-02-04
_audit_creation_method            'Pymatgen'
_symmetry_space_group_name_H-M    'P1'
_symmetry_Int_Tables_number       1
loop_
_symmetry_equiv_pos_as_xyz
  x,y,z
_cell_length_a                    47.3998
_cell_length_b                    18.5808
_cell_length_c                    20.0
_cell_angle_alpha                 90.0
_cell_angle_beta                 90.0
_cell_angle_gamma                 90.0
loop_
_atom_site_label
_atom_site_type_symbol
_atom_site_fract_x
_atom_site_fract_y
_atom_site_fract_z
V1     V     0.711   0.5   0.0
V2     V     0.711   0.5   0.5
V3     V     0.789   0.0   0.0
V4     V     0.789   0.0   0.5
Er5     Er     0.5   0.5   0.0
Er6     Er     0.5   0.5   0.5
Er7     Er     0.0   0.0   0.0
Er8     Er     0.0   0.0   0.5
V9     V     0.289   0.5   0.0
V10     V     0.289   0.5   0.5
V11     V     0.211   0.0   0.0
V12     V     0.211   0.0   0.5
loop_
_geom_bond_atom_site_label_1
_geom_bond_atom_site_label_2
_geom_bond_distance
_geom_bond_site_symmetry_2
_ccdc_geom_bond_type
V1     Er5    10.0   .     S
V1     V2    10.0   .     S
V1     V2    10.0   1_554     S
V1     V3    10.0   1_565     S
V1     V3    10.0   .     S
V2     Er6    10.0   .     S
V2     V1    10.0   1_556     S
V2     V4    10.0   1_565     S
V2     V4    10.0   .     S
V3     Er7    10.0   1_655     S
V3     V4    10.0   .     S
V3     V4    10.0   1_554     S
V3     V1    10.0   1_545     S
V4     Er8    10.0   1_655     S
V4     V3    10.0   1_556     S
V4     V2    10.0   1_545     S
Er5     Er6    10.0   .     S
Er5     Er6    10.0   1_554     S
Er5     V9    10.0   .     S
Er6     Er5    10.0   1_556     S
Er6     V10    10.0   .     S
Er7     V3    10.0   1_455     S
Er7     Er8    10.0   .     S
Er7     Er8    10.0   1_554     S
Er7     V11    10.0   .     S
Er8     V4    10.0   1_455     S
Er8     Er7    10.0   1_556     S
Er8     V12    10.0   .     S
V9     V10    10.0   .     S
V9     V10    10.0   1_554     S
V9     V11    10.0   1_565     S
V9     V11    10.0   .     S
V10     V9    10.0   1_556     S
V10     V12    10.0   1_565     S
V10     V12    10.0   .     S
V11     V12    10.0   .     S
V11     V12    10.0   1_554     S
V11     V9    10.0   1_545     S
V12     V11    10.0   1_556     S
V12     V10    10.0   1_545     S
