data_gare
_audit_creation_date              2020-02-04
_audit_creation_method            'Pymatgen'
_symmetry_space_group_name_H-M    'P1'
_symmetry_Int_Tables_number       1
loop_
_symmetry_equiv_pos_as_xyz
  x,y,z
_cell_length_a                    42.7091
_cell_length_b                    42.7091
_cell_length_c                    42.7091
_cell_angle_alpha                 90.0
_cell_angle_beta                 90.0
_cell_angle_gamma                 90.0
loop_
_atom_site_label
_atom_site_type_symbol
_atom_site_fract_x
_atom_site_fract_y
_atom_site_fract_z
V1     V     0.1911   0.7922   0.8988
V2     V     0.2078   0.1012   0.8089
V3     V     0.8988   0.1911   0.7922
V4     V     0.8089   0.2078   0.1012
V5     V     0.7922   0.8988   0.1911
V6     V     0.1012   0.8089   0.2078
V7     V     0.2078   0.6012   0.1911
V8     V     0.1911   0.2922   0.1012
V9     V     0.1012   0.3089   0.7922
V10     V     0.8988   0.6911   0.2078
V11     V     0.7922   0.3988   0.8089
V12     V     0.8089   0.7078   0.8988
V13     V     0.6012   0.1911   0.2078
V14     V     0.2922   0.1012   0.1911
V15     V     0.3089   0.7922   0.1012
V16     V     0.6911   0.2078   0.8988
V17     V     0.3988   0.8089   0.7922
V18     V     0.7078   0.8988   0.8089
V19     V     0.2922   0.8988   0.3089
V20     V     0.6911   0.7922   0.6012
V21     V     0.6012   0.8089   0.2922
V22     V     0.3089   0.2078   0.3988
V23     V     0.3988   0.1911   0.7078
V24     V     0.7078   0.1012   0.6911
V25     V     0.7078   0.3988   0.1911
V26     V     0.3988   0.3089   0.2078
V27     V     0.2922   0.6012   0.8089
V28     V     0.3089   0.2922   0.8988
V29     V     0.6012   0.6911   0.7922
V30     V     0.6911   0.7078   0.1012
V31     V     0.7922   0.6012   0.6911
V32     V     0.8089   0.2922   0.6012
V33     V     0.8988   0.3089   0.2922
V34     V     0.1012   0.6911   0.7078
V35     V     0.1911   0.7078   0.3988
V36     V     0.2078   0.3988   0.3089
V37     V     0.2922   0.3988   0.6911
V38     V     0.6911   0.2922   0.3989
V39     V     0.6012   0.3089   0.7078
V40     V     0.7078   0.6012   0.3089
V41     V     0.3089   0.7078   0.6012
V42     V     0.3988   0.6911   0.2922
V43     V     0.1911   0.2078   0.6012
V44     V     0.1012   0.1911   0.2922
V45     V     0.7922   0.1012   0.3089
V46     V     0.2078   0.8988   0.6911
V47     V     0.8089   0.7922   0.3988
V48     V     0.8988   0.8089   0.7078
V49     V     0.0422   0.4411   0.1488
V50     V     0.3512   0.4578   0.0589
V51     V     0.4411   0.1488   0.0422
V52     V     0.4578   0.0589   0.3512
V53     V     0.0589   0.3512   0.4578
V54     V     0.1488   0.0422   0.4411
V55     V     0.5422   0.4411   0.3512
V56     V     0.9411   0.1489   0.4578
V57     V     0.8512   0.4578   0.4411
V58     V     0.9578   0.0589   0.1488
V59     V     0.5589   0.3512   0.0422
V60     V     0.6488   0.0422   0.0589
V61     V     0.0422   0.0589   0.6488
V62     V     0.4411   0.3512   0.5422
V63     V     0.3512   0.0422   0.5589
V64     V     0.0589   0.1488   0.9578
V65     V     0.1488   0.4578   0.9411
V66     V     0.4578   0.4411   0.8512
V67     V     0.0422   0.5589   0.3512
V68     V     0.0589   0.6488   0.0422
V69     V     0.1488   0.9578   0.0589
V70     V     0.3512   0.5422   0.4411
V71     V     0.4578   0.9411   0.1488
V72     V     0.4411   0.8512   0.4578
V73     V     0.0589   0.8512   0.5422
V74     V     0.3512   0.9578   0.9411
V75     V     0.0422   0.9411   0.8512
V76     V     0.4411   0.6488   0.9578
V77     V     0.1488   0.5422   0.5589
V78     V     0.4578   0.5589   0.6488
V79     V     0.9578   0.4411   0.6488
V80     V     0.8512   0.0422   0.9411
V81     V     0.9411   0.3512   0.9578
V82     V     0.5422   0.0589   0.8512
V83     V     0.5589   0.1489   0.5422
V84     V     0.6488   0.4578   0.5589
V85     V     0.8512   0.9578   0.5589
V86     V     0.9411   0.6488   0.5422
V87     V     0.9578   0.5589   0.8512
V88     V     0.6488   0.5422   0.9411
V89     V     0.5589   0.8512   0.9578
V90     V     0.5422   0.9411   0.6488
V91     V     0.9578   0.9411   0.3512
V92     V     0.9411   0.8512   0.0422
V93     V     0.6488   0.9578   0.4411
V94     V     0.8512   0.5422   0.0589
V95     V     0.5422   0.5589   0.1489
V96     V     0.5589   0.6488   0.4578
loop_
_geom_bond_atom_site_label_1
_geom_bond_atom_site_label_2
_geom_bond_distance
_geom_bond_site_symmetry_2
_ccdc_geom_bond_type
V1     V69    10.0   1_556     S
V1     V15    10.0   1_556     S
V1     V34    10.0   .     S
V1     V27    10.0   .     S
V1     V74    10.0   .     S
V1     V17    10.0   .     S
V1     V46    10.0   .     S
V2     V75    10.0   1_545     S
V2     V46    10.0   1_545     S
V2     V23    10.0   .     S
V2     V28    10.0   .     S
V2     V61    10.0   .     S
V2     V43    10.0   .     S
V2     V9    10.0   .     S
V3     V64    10.0   1_655     S
V3     V9    10.0   1_655     S
V3     V16    10.0   .     S
V3     V81    10.0   .     S
V3     V11    10.0   .     S
V3     V32    10.0   .     S
V3     V24    10.0   .     S
V4     V80    10.0   1_554     S
V4     V16    10.0   1_554     S
V4     V33    10.0   .     S
V4     V25    10.0   .     S
V4     V45    10.0   .     S
V4     V60    10.0   .     S
V4     V13    10.0   .     S
V5     V58    10.0   1_565     S
V5     V45    10.0   1_565     S
V5     V30    10.0   .     S
V5     V21    10.0   .     S
V5     V91    10.0   .     S
V5     V47    10.0   .     S
V5     V10    10.0   .     S
V6     V92    10.0   1_455     S
V6     V10    10.0   1_455     S
V6     V68    10.0   .     S
V6     V7    10.0   .     S
V6     V15    10.0   .     S
V6     V35    10.0   .     S
V6     V19    10.0   .     S
V7     V49    10.0   .     S
V7     V36    10.0   .     S
V7     V15    10.0   .     S
V7     V42    10.0   .     S
V7     V67    10.0   .     S
V7     V35    10.0   .     S
V8     V65    10.0   1_554     S
V8     V28    10.0   1_554     S
V8     V44    10.0   .     S
V8     V14    10.0   .     S
V8     V36    10.0   .     S
V8     V50    10.0   .     S
V8     V26    10.0   .     S
V9     V81    10.0   1_455     S
V9     V3    10.0   1_455     S
V9     V43    10.0   .     S
V9     V37    10.0   .     S
V9     V64    10.0   .     S
V9     V28    10.0   .     S
V10     V68    10.0   1_655     S
V10     V6    10.0   1_655     S
V10     V40    10.0   .     S
V10     V47    10.0   .     S
V10     V92    10.0   .     S
V10     V30    10.0   .     S
V11     V87    10.0   .     S
V11     V31    10.0   .     S
V11     V39    10.0   .     S
V11     V16    10.0   .     S
V11     V79    10.0   .     S
V11     V32    10.0   .     S
V12     V94    10.0   1_556     S
V12     V30    10.0   1_556     S
V12     V48    10.0   .     S
V12     V18    10.0   .     S
V12     V31    10.0   .     S
V12     V88    10.0   .     S
V12     V29    10.0   .     S
V13     V51    10.0   .     S
V13     V26    10.0   .     S
V13     V59    10.0   .     S
V13     V25    10.0   .     S
V13     V38    10.0   .     S
V13     V45    10.0   .     S
V14     V71    10.0   1_545     S
V14     V19    10.0   1_545     S
V14     V44    10.0   .     S
V14     V26    10.0   .     S
V14     V52    10.0   .     S
V14     V22    10.0   .     S
V15     V74    10.0   1_554     S
V15     V1    10.0   1_554     S
V15     V42    10.0   .     S
V15     V69    10.0   .     S
V15     V19    10.0   .     S
V16     V60    10.0   1_556     S
V16     V4    10.0   1_556     S
V16     V39    10.0   .     S
V16     V80    10.0   .     S
V16     V24    10.0   .     S
V17     V89    10.0   .     S
V17     V29    10.0   .     S
V17     V41    10.0   .     S
V17     V46    10.0   .     S
V17     V76    10.0   .     S
V17     V27    10.0   .     S
V18     V82    10.0   1_565     S
V18     V24    10.0   1_565     S
V18     V48    10.0   .     S
V18     V29    10.0   .     S
V18     V90    10.0   .     S
V18     V20    10.0   .     S
V19     V52    10.0   1_565     S
V19     V14    10.0   1_565     S
V19     V71    10.0   .     S
V19     V42    10.0   .     S
V19     V35    10.0   .     S
V20     V93    10.0   .     S
V20     V47    10.0   .     S
V20     V29    10.0   .     S
V20     V31    10.0   .     S
V20     V85    10.0   .     S
V20     V48    10.0   .     S
V21     V72    10.0   .     S
V21     V42    10.0   .     S
V21     V30    10.0   .     S
V21     V47    10.0   .     S
V21     V96    10.0   .     S
V21     V40    10.0   .     S
V22     V63    10.0   .     S
V22     V43    10.0   .     S
V22     V26    10.0   .     S
V22     V36    10.0   .     S
V22     V54    10.0   .     S
V22     V44    10.0   .     S
V23     V83    10.0   .     S
V23     V39    10.0   .     S
V23     V28    10.0   .     S
V23     V62    10.0   .     S
V23     V37    10.0   .     S
V23     V43    10.0   .     S
V24     V90    10.0   1_545     S
V24     V18    10.0   1_545     S
V24     V82    10.0   .     S
V24     V39    10.0   .     S
V24     V32    10.0   .     S
V25     V95    10.0   .     S
V25     V40    10.0   .     S
V25     V33    10.0   .     S
V25     V55    10.0   .     S
V25     V38    10.0   .     S
V26     V59    10.0   .     S
V26     V36    10.0   .     S
V26     V51    10.0   .     S
V27     V66    10.0   .     S
V27     V37    10.0   .     S
V27     V34    10.0   .     S
V27     V78    10.0   .     S
V27     V41    10.0   .     S
V28     V50    10.0   1_556     S
V28     V8    10.0   1_556     S
V28     V65    10.0   .     S
V28     V37    10.0   .     S
V29     V76    10.0   .     S
V29     V31    10.0   .     S
V29     V89    10.0   .     S
V30     V88    10.0   1_554     S
V30     V12    10.0   1_554     S
V30     V94    10.0   .     S
V30     V40    10.0   .     S
V31     V79    10.0   .     S
V31     V48    10.0   .     S
V31     V87    10.0   .     S
V32     V57    10.0   .     S
V32     V38    10.0   .     S
V32     V84    10.0   .     S
V32     V39    10.0   .     S
V33     V53    10.0   1_655     S
V33     V44    10.0   1_655     S
V33     V56    10.0   .     S
V33     V45    10.0   .     S
V33     V38    10.0   .     S
V34     V86    10.0   1_455     S
V34     V48    10.0   1_455     S
V34     V73    10.0   .     S
V34     V46    10.0   .     S
V34     V41    10.0   .     S
V35     V77    10.0   .     S
V35     V41    10.0   .     S
V35     V70    10.0   .     S
V35     V42    10.0   .     S
V36     V67    10.0   .     S
V36     V49    10.0   .     S
V36     V44    10.0   .     S
V37     V78    10.0   .     S
V37     V43    10.0   .     S
V37     V66    10.0   .     S
V38     V84    10.0   .     S
V38     V57    10.0   .     S
V38     V45    10.0   .     S
V39     V62    10.0   .     S
V39     V83    10.0   .     S
V40     V55    10.0   .     S
V40     V47    10.0   .     S
V40     V95    10.0   .     S
V41     V70    10.0   .     S
V41     V46    10.0   .     S
V41     V77    10.0   .     S
V42     V96    10.0   .     S
V42     V72    10.0   .     S
V43     V54    10.0   .     S
V43     V63    10.0   .     S
V44     V56    10.0   1_455     S
V44     V33    10.0   1_455     S
V44     V53    10.0   .     S
V45     V91    10.0   1_545     S
V45     V5    10.0   1_545     S
V45     V58    10.0   .     S
V46     V61    10.0   1_565     S
V46     V2    10.0   1_565     S
V46     V75    10.0   .     S
V47     V85    10.0   .     S
V47     V93    10.0   .     S
V48     V34    10.0   1_655     S
V48     V73    10.0   1_655     S
V48     V86    10.0   .     S
V49     V94    10.0   1_455     S
V49     V81    10.0   1_454     S
V49     V68    10.0   .     S
V49     V65    10.0   1_554     S
V49     V67    10.0   .     S
V50     V59    10.0   .     S
V50     V28    10.0   1_554     S
V50     V66    10.0   1_554     S
V50     V95    10.0   .     S
V50     V76    10.0   1_554     S
V50     V65    10.0   1_554     S
V51     V82    10.0   1_554     S
V51     V74    10.0   1_544     S
V51     V60    10.0   .     S
V51     V71    10.0   1_545     S
V51     V59    10.0   .     S
V52     V93    10.0   1_545     S
V52     V83    10.0   .     S
V52     V19    10.0   1_545     S
V52     V72    10.0   1_545     S
V52     V63    10.0   .     S
V52     V71    10.0   1_545     S
V53     V79    10.0   1_455     S
V53     V77    10.0   .     S
V53     V33    10.0   1_455     S
V53     V57    10.0   1_455     S
V53     V67    10.0   .     S
V53     V56    10.0   1_455     S
V54     V73    10.0   1_545     S
V54     V91    10.0   1_445     S
V54     V61    10.0   .     S
V54     V56    10.0   1_455     S
V54     V63    10.0   .     S
V55     V62    10.0   .     S
V55     V70    10.0   .     S
V55     V84    10.0   .     S
V55     V96    10.0   .     S
V55     V95    10.0   .     S
V56     V85    10.0   1_545     S
V56     V61    10.0   1_655     S
V56     V44    10.0   1_655     S
V56     V54    10.0   1_655     S
V56     V91    10.0   1_545     S
V56     V53    10.0   1_655     S
V57     V67    10.0   1_655     S
V57     V86    10.0   .     S
V57     V79    10.0   .     S
V57     V53    10.0   1_655     S
V57     V84    10.0   .     S
V58     V64    10.0   1_654     S
V58     V69    10.0   1_645     S
V58     V80    10.0   1_554     S
V58     V5    10.0   1_545     S
V58     V92    10.0   1_545     S
V58     V91    10.0   1_545     S
V59     V66    10.0   1_554     S
V59     V88    10.0   1_554     S
V59     V95    10.0   .     S
V60     V71    10.0   1_545     S
V60     V89    10.0   1_544     S
V60     V16    10.0   1_554     S
V60     V82    10.0   1_554     S
V60     V80    10.0   1_554     S
V61     V85    10.0   1_445     S
V61     V56    10.0   1_455     S
V61     V46    10.0   1_545     S
V61     V73    10.0   1_545     S
V61     V75    10.0   1_545     S
V62     V70    10.0   .     S
V62     V78    10.0   .     S
V62     V84    10.0   .     S
V62     V83    10.0   .     S
V63     V72    10.0   1_545     S
V63     V90    10.0   1_545     S
V63     V83    10.0   .     S
V64     V58    10.0   1_456     S
V64     V69    10.0   1_546     S
V64     V75    10.0   1_545     S
V64     V3    10.0   1_455     S
V64     V80    10.0   1_455     S
V64     V81    10.0   1_455     S
V65     V87    10.0   1_455     S
V65     V68    10.0   1_556     S
V65     V8    10.0   1_556     S
V65     V49    10.0   1_556     S
V65     V81    10.0   1_455     S
V65     V50    10.0   1_556     S
V66     V88    10.0   .     S
V66     V59    10.0   1_556     S
V66     V76    10.0   .     S
V66     V50    10.0   1_556     S
V66     V78    10.0   .     S
V67     V57    10.0   1_455     S
V67     V86    10.0   1_455     S
V67     V77    10.0   .     S
V68     V87    10.0   1_454     S
V68     V65    10.0   1_554     S
V68     V10    10.0   1_455     S
V68     V94    10.0   1_455     S
V68     V92    10.0   1_455     S
V69     V64    10.0   1_564     S
V69     V58    10.0   1_465     S
V69     V1    10.0   1_554     S
V69     V75    10.0   1_554     S
V69     V92    10.0   1_455     S
V69     V74    10.0   1_554     S
V70     V78    10.0   .     S
V70     V96    10.0   .     S
V70     V77    10.0   .     S
V71     V89    10.0   1_554     S
V71     V60    10.0   1_565     S
V71     V14    10.0   1_565     S
V71     V51    10.0   1_565     S
V71     V74    10.0   1_554     S
V71     V52    10.0   1_565     S
V72     V90    10.0   .     S
V72     V63    10.0   1_565     S
V72     V52    10.0   1_565     S
V72     V93    10.0   .     S
V72     V96    10.0   .     S
V73     V91    10.0   1_455     S
V73     V54    10.0   1_565     S
V73     V61    10.0   1_565     S
V73     V48    10.0   1_455     S
V73     V85    10.0   1_455     S
V73     V86    10.0   1_455     S
V74     V82    10.0   1_565     S
V74     V51    10.0   1_566     S
V74     V15    10.0   1_556     S
V74     V71    10.0   1_556     S
V74     V89    10.0   .     S
V74     V69    10.0   1_556     S
V75     V92    10.0   1_456     S
V75     V80    10.0   1_465     S
V75     V69    10.0   1_556     S
V75     V2    10.0   1_565     S
V75     V64    10.0   1_565     S
V75     V61    10.0   1_565     S
V76     V88    10.0   .     S
V76     V50    10.0   1_556     S
V76     V95    10.0   1_556     S
V76     V89    10.0   .     S
V77     V79    10.0   1_455     S
V77     V86    10.0   1_455     S
V78     V96    10.0   .     S
V78     V84    10.0   .     S
V79     V53    10.0   1_655     S
V79     V77    10.0   1_655     S
V79     V86    10.0   .     S
V79     V87    10.0   .     S
V80     V92    10.0   1_546     S
V80     V75    10.0   1_645     S
V80     V64    10.0   1_655     S
V80     V4    10.0   1_556     S
V80     V58    10.0   1_556     S
V80     V60    10.0   1_556     S
V81     V94    10.0   1_556     S
V81     V49    10.0   1_656     S
V81     V9    10.0   1_655     S
V81     V65    10.0   1_655     S
V81     V87    10.0   .     S
V81     V64    10.0   1_655     S
V82     V51    10.0   1_556     S
V82     V74    10.0   1_545     S
V82     V60    10.0   1_556     S
V82     V18    10.0   1_545     S
V82     V89    10.0   1_545     S
V82     V90    10.0   1_545     S
V83     V93    10.0   1_545     S
V83     V90    10.0   1_545     S
V84     V96    10.0   .     S
V85     V56    10.0   1_565     S
V85     V61    10.0   1_665     S
V85     V91    10.0   .     S
V85     V73    10.0   1_655     S
V85     V93    10.0   .     S
V86     V67    10.0   1_655     S
V86     V34    10.0   1_655     S
V86     V77    10.0   1_655     S
V86     V73    10.0   1_655     S
V87     V65    10.0   1_655     S
V87     V68    10.0   1_656     S
V87     V94    10.0   1_556     S
V88     V59    10.0   1_556     S
V88     V30    10.0   1_556     S
V88     V95    10.0   1_556     S
V88     V94    10.0   1_556     S
V89     V71    10.0   1_556     S
V89     V60    10.0   1_566     S
V89     V82    10.0   1_565     S
V90     V63    10.0   1_565     S
V90     V93    10.0   .     S
V90     V24    10.0   1_565     S
V90     V83    10.0   1_565     S
V90     V82    10.0   1_565     S
V91     V73    10.0   1_655     S
V91     V54    10.0   1_665     S
V91     V45    10.0   1_565     S
V91     V56    10.0   1_565     S
V91     V58    10.0   1_565     S
V92     V75    10.0   1_654     S
V92     V80    10.0   1_564     S
V92     V58    10.0   1_565     S
V92     V6    10.0   1_655     S
V92     V69    10.0   1_655     S
V92     V68    10.0   1_655     S
V93     V83    10.0   1_565     S
V93     V52    10.0   1_565     S
V94     V49    10.0   1_655     S
V94     V81    10.0   1_554     S
V94     V68    10.0   1_655     S
V94     V12    10.0   1_554     S
V94     V87    10.0   1_554     S
V94     V88    10.0   1_554     S
V95     V88    10.0   1_554     S
V95     V76    10.0   1_554     S
