data_gdm
_audit_creation_date              2020-02-04
_audit_creation_method            'Pymatgen'
_symmetry_space_group_name_H-M    'P1'
_symmetry_Int_Tables_number       1
loop_
_symmetry_equiv_pos_as_xyz
  x,y,z
_cell_length_a                    70.0854
_cell_length_b                    70.0854
_cell_length_c                    70.0854
_cell_angle_alpha                 90.0
_cell_angle_beta                 90.0
_cell_angle_gamma                 90.0
loop_
_atom_site_label
_atom_site_type_symbol
_atom_site_fract_x
_atom_site_fract_y
_atom_site_fract_z
Er1     Er     0.3916   0.3916   0.2169
Er2     Er     0.3916   0.2169   0.3916
Er3     Er     0.2169   0.3916   0.3916
Ti4     Ti     0.3333   0.3333   0.3333
Er5     Er     0.3916   0.6084   0.7831
Er6     Er     0.3916   0.7831   0.6084
Er7     Er     0.2169   0.6084   0.6084
Ti8     Ti     0.3333   0.6667   0.6667
V9     V     0.3004   0.8004   0.5
V10     V     0.3004   0.5   0.8004
Er11     Er     0.6084   0.3916   0.7831
Er12     Er     0.7831   0.3916   0.6084
Er13     Er     0.6084   0.2169   0.6084
Ti14     Ti     0.6667   0.3333   0.6667
V15     V     0.8004   0.3004   0.5
V16     V     0.5   0.3004   0.8004
Er17     Er     0.6084   0.7831   0.3916
Er18     Er     0.7831   0.6084   0.3916
Er19     Er     0.6084   0.6084   0.2169
Ti20     Ti     0.6667   0.6667   0.3333
V21     V     0.8004   0.5   0.3004
V22     V     0.5   0.8004   0.3004
Er23     Er     0.1084   0.2169   0.1084
Er24     Er     0.1084   0.3916   0.2831
Er25     Er     0.2831   0.3916   0.1084
Ti26     Ti     0.1667   0.3333   0.1667
Er27     Er     0.2169   0.1084   0.1084
Er28     Er     0.3916   0.1084   0.2831
Er29     Er     0.3916   0.2831   0.1084
Ti30     Ti     0.3333   0.1667   0.1667
Er31     Er     0.1084   0.1084   0.2169
Er32     Er     0.2831   0.1084   0.3916
Er33     Er     0.1084   0.2831   0.3916
Ti34     Ti     0.1667   0.1667   0.3333
Er35     Er     0.7831   0.3916   0.3916
Er36     Er     0.6084   0.3916   0.2169
Er37     Er     0.6084   0.2169   0.3916
Ti38     Ti     0.6667   0.3333   0.3333
Er39     Er     0.3916   0.7831   0.3916
Er40     Er     0.3916   0.6084   0.2169
Er41     Er     0.2169   0.6084   0.3916
Ti42     Ti     0.3333   0.6667   0.3333
Er43     Er     0.3916   0.1084   0.7169
Er44     Er     0.2169   0.1084   0.8916
Er45     Er     0.3916   0.2831   0.8916
Ti46     Ti     0.3333   0.1667   0.8333
Er47     Er     0.1084   0.3916   0.7169
Er48     Er     0.1084   0.2169   0.8916
Er49     Er     0.2831   0.3916   0.8916
Ti50     Ti     0.1667   0.3333   0.8333
V51     V     0.1996   0.1996   0.0
V52     V     0.3004   0.3004   0.0
Er53     Er     0.3916   0.3916   0.7831
Er54     Er     0.3916   0.2169   0.6084
Er55     Er     0.2169   0.3916   0.6084
Ti56     Ti     0.3333   0.3333   0.6667
Er57     Er     0.3916   0.7169   0.1084
Er58     Er     0.2169   0.8916   0.1084
Er59     Er     0.3916   0.8916   0.2831
Ti60     Ti     0.3333   0.8333   0.1667
Er61     Er     0.1084   0.7169   0.3916
Er62     Er     0.1084   0.8916   0.2169
Er63     Er     0.2831   0.8916   0.3916
Ti64     Ti     0.1667   0.8333   0.3333
V65     V     0.1996   0.0   0.1996
V66     V     0.3004   0.0   0.3004
Er67     Er     0.7831   0.1084   0.1084
Er68     Er     0.6084   0.2831   0.1084
Er69     Er     0.6084   0.1084   0.2831
Ti70     Ti     0.6667   0.1667   0.1667
Er71     Er     0.1084   0.1084   0.7831
Er72     Er     0.2831   0.1084   0.6084
Er73     Er     0.1084   0.2831   0.6084
Ti74     Ti     0.1667   0.1667   0.6667
Er75     Er     0.1084   0.8916   0.7831
Er76     Er     0.1084   0.7169   0.6084
Er77     Er     0.2831   0.8916   0.6084
Ti78     Ti     0.1667   0.8333   0.6667
V79     V     0.1996   0.0   0.8004
Er80     Er     0.3916   0.8916   0.7169
Er81     Er     0.3916   0.7169   0.8916
Er82     Er     0.2169   0.8916   0.8916
Ti83     Ti     0.3333   0.8333   0.8333
V84     V     0.3004   0.6996   0.0
V85     V     0.3004   0.0   0.6996
Er86     Er     0.1084   0.6084   0.7169
Er87     Er     0.1084   0.7831   0.8916
Er88     Er     0.2831   0.6084   0.8916
Ti89     Ti     0.1667   0.6667   0.8333
V90     V     0.1996   0.8004   0.0
V91     V     0.1996   0.5   0.6996
V92     V     0.1996   0.6996   0.5
Er93     Er     0.1084   0.7831   0.1084
Er94     Er     0.2831   0.6084   0.1084
Er95     Er     0.1084   0.6084   0.2831
Ti96     Ti     0.1667   0.6667   0.1667
Er97     Er     0.6084   0.1084   0.7169
Er98     Er     0.7831   0.1084   0.8916
Er99     Er     0.6084   0.2831   0.8916
Ti100     Ti     0.6667   0.1667   0.8333
V101     V     0.8004   0.1996   0.0
Er102     Er     0.8916   0.3916   0.7169
Er103     Er     0.7169   0.3916   0.8916
Er104     Er     0.8916   0.2169   0.8916
Ti105     Ti     0.8333   0.3333   0.8333
V106     V     0.6996   0.3004   0.0
V107     V     0.0   0.3004   0.6996
Er108     Er     0.8916   0.1084   0.7831
Er109     Er     0.7169   0.1084   0.6084
Er110     Er     0.8916   0.2831   0.6084
Ti111     Ti     0.8333   0.1667   0.6667
V112     V     0.0   0.1996   0.8004
V113     V     0.5   0.1996   0.6996
V114     V     0.6996   0.1996   0.5
Er115     Er     0.7169   0.1084   0.3916
Er116     Er     0.8916   0.1084   0.2169
Er117     Er     0.8916   0.2831   0.3916
Ti118     Ti     0.8333   0.1667   0.3333
Er119     Er     0.7169   0.3916   0.1084
Er120     Er     0.8916   0.2169   0.1084
Er121     Er     0.8916   0.3916   0.2831
Ti122     Ti     0.8333   0.3333   0.1667
V123     V     0.0   0.1996   0.1996
V124     V     0.0   0.3004   0.3004
Er125     Er     0.7169   0.6084   0.1084
Er126     Er     0.8916   0.7831   0.1084
Er127     Er     0.8916   0.6084   0.2831
Ti128     Ti     0.8333   0.6667   0.1667
V129     V     0.0   0.8004   0.1996
Er130     Er     0.8916   0.7169   0.3916
Er131     Er     0.7169   0.8916   0.3916
Er132     Er     0.8916   0.8916   0.2169
Ti133     Ti     0.8333   0.8333   0.3333
V134     V     0.6996   0.0   0.3004
V135     V     0.0   0.6996   0.3004
Er136     Er     0.6084   0.7169   0.1084
Er137     Er     0.7831   0.8916   0.1084
Er138     Er     0.6084   0.8916   0.2831
Ti139     Ti     0.6667   0.8333   0.1667
V140     V     0.8004   0.0   0.1996
V141     V     0.5   0.6996   0.1996
V142     V     0.6996   0.5   0.1996
V143     V     0.1996   0.5   0.3004
V144     V     0.3004   0.5   0.1996
V145     V     0.1996   0.3004   0.5
V146     V     0.3004   0.1996   0.5
V147     V     0.5   0.1996   0.3004
V148     V     0.5   0.3004   0.1996
Er149     Er     0.6084   0.6084   0.7831
Er150     Er     0.6084   0.7831   0.6084
Er151     Er     0.7831   0.6084   0.6084
Ti152     Ti     0.6667   0.6667   0.6667
Er153     Er     0.7169   0.8916   0.6084
Er154     Er     0.8916   0.7169   0.6084
Er155     Er     0.8916   0.8916   0.7831
Ti156     Ti     0.8333   0.8333   0.6667
Er157     Er     0.6084   0.7169   0.8916
Er158     Er     0.6084   0.8916   0.7169
Er159     Er     0.7831   0.8916   0.8916
Ti160     Ti     0.6667   0.8333   0.8333
Er161     Er     0.7169   0.6084   0.8916
Er162     Er     0.8916   0.6084   0.7169
Er163     Er     0.8916   0.7831   0.8916
Ti164     Ti     0.8333   0.6667   0.8333
V165     V     0.0   0.8004   0.8004
V166     V     0.8004   0.8004   0.0
V167     V     0.0   0.6996   0.6996
V168     V     0.6996   0.6996   0.0
V169     V     0.8004   0.0   0.8004
V170     V     0.6996   0.0   0.6996
V171     V     0.8004   0.5   0.6996
V172     V     0.8004   0.6996   0.5
V173     V     0.5   0.8004   0.6996
V174     V     0.6996   0.8004   0.5
V175     V     0.6996   0.5   0.8004
V176     V     0.5   0.6996   0.8004
loop_
_geom_bond_atom_site_label_1
_geom_bond_atom_site_label_2
_geom_bond_distance
_geom_bond_site_symmetry_2
_ccdc_geom_bond_type
Er1     Ti4    9.999   .     S
Er1     V148    10.0   .     S
Er1     V144    10.0   .     S
Er2     Ti4    9.999   .     S
Er2     V146    10.0   .     S
Er2     V147    10.0   .     S
Er3     Ti4    9.999   .     S
Er3     V143    10.0   .     S
Er3     V145    10.0   .     S
Er5     Ti8    9.999   .     S
Er5     V176    10.0   .     S
Er5     V10    10.0   .     S
Er6     Ti8    9.999   .     S
Er6     V173    10.0   .     S
Er6     V9    10.0   .     S
Er7     Ti8    9.999   .     S
Er7     V91    10.0   .     S
Er7     V92    10.0   .     S
V9     Er39    10.0   .     S
V9     Er63    10.0   .     S
V9     Er77    10.0   .     S
V9     V92    10.001   .     S
V10     Er49    10.0   .     S
V10     Er53    10.0   .     S
V10     Er88    10.0   .     S
V10     V91    10.001   .     S
Er11     Ti14    9.999   .     S
Er11     V175    10.0   .     S
Er11     V16    10.0   .     S
Er12     Ti14    9.999   .     S
Er12     V171    10.0   .     S
Er12     V15    10.0   .     S
Er13     Ti14    9.999   .     S
Er13     V114    10.0   .     S
Er13     V113    10.0   .     S
V15     Er35    10.0   .     S
V15     Er110    10.0   .     S
V15     Er117    10.0   .     S
V15     V114    10.001   .     S
V16     Er45    10.0   .     S
V16     Er53    10.0   .     S
V16     Er99    10.0   .     S
V16     V113    10.001   .     S
Er17     Ti20    9.999   .     S
Er17     V174    10.0   .     S
Er17     V22    10.0   .     S
Er18     Ti20    9.999   .     S
Er18     V172    10.0   .     S
Er18     V21    10.0   .     S
Er19     Ti20    9.999   .     S
Er19     V141    10.0   .     S
Er19     V142    10.0   .     S
V21     Er35    10.0   .     S
V21     Er121    10.0   .     S
V21     Er127    10.0   .     S
V21     V142    10.001   .     S
V22     Er39    10.0   .     S
V22     Er59    10.0   .     S
V22     Er138    10.0   .     S
V22     V141    10.001   .     S
Er23     Ti26    9.999   .     S
Er23     V51    10.0   .     S
Er23     V123    10.0   .     S
Er24     Ti26    9.999   .     S
Er24     V143    10.0   .     S
Er24     V124    10.0   .     S
Er25     Ti26    9.999   .     S
Er25     V144    10.0   .     S
Er25     V52    10.0   .     S
Er27     Ti30    9.999   .     S
Er27     V65    10.0   .     S
Er27     V51    10.0   .     S
Er28     Ti30    9.999   .     S
Er28     V147    10.0   .     S
Er28     V66    10.0   .     S
Er29     Ti30    9.999   .     S
Er29     V148    10.0   .     S
Er29     V52    10.0   .     S
Er31     Ti34    9.999   .     S
Er31     V123    10.0   .     S
Er31     V65    10.0   .     S
Er32     Ti34    9.999   .     S
Er32     V146    10.0   .     S
Er32     V66    10.0   .     S
Er33     Ti34    9.999   .     S
Er33     V145    10.0   .     S
Er33     V124    10.0   .     S
Er35     Ti38    9.999   .     S
Er36     Ti38    9.999   .     S
Er36     V142    10.0   .     S
Er36     V148    10.0   .     S
Er37     Ti38    9.999   .     S
Er37     V114    10.0   .     S
Er37     V147    10.0   .     S
Er39     Ti42    9.999   .     S
Er40     Ti42    9.999   .     S
Er40     V141    10.0   .     S
Er40     V144    10.0   .     S
Er41     Ti42    9.999   .     S
Er41     V92    10.0   .     S
Er41     V143    10.0   .     S
Er43     Ti46    9.999   .     S
Er43     V113    10.0   .     S
Er43     V85    10.0   .     S
Er44     Ti46    9.999   .     S
Er44     V79    10.0   .     S
Er44     V51    10.0   1_556     S
Er45     Ti46    9.999   .     S
Er45     V52    10.0   1_556     S
Er47     Ti50    9.999   .     S
Er47     V91    10.0   .     S
Er47     V107    10.0   .     S
Er48     Ti50    9.999   .     S
Er48     V112    10.0   .     S
Er48     V51    10.0   1_556     S
Er49     Ti50    9.999   .     S
Er49     V52    10.0   1_556     S
V51     Er44    10.0   1_554     S
V51     Er48    10.0   1_554     S
V51     V52    10.001   .     S
V52     Er45    10.0   1_554     S
V52     Er49    10.0   1_554     S
Er53     Ti56    9.999   .     S
Er54     Ti56    9.999   .     S
Er54     V113    10.0   .     S
Er54     V146    10.0   .     S
Er55     Ti56    9.999   .     S
Er55     V91    10.0   .     S
Er55     V145    10.0   .     S
Er57     Ti60    9.999   .     S
Er57     V141    10.0   .     S
Er57     V84    10.0   .     S
Er58     Ti60    9.999   .     S
Er58     V90    10.0   .     S
Er58     V65    10.0   1_565     S
Er59     Ti60    9.999   .     S
Er59     V66    10.0   1_565     S
Er61     Ti64    9.999   .     S
Er61     V92    10.0   .     S
Er61     V135    10.0   .     S
Er62     Ti64    9.999   .     S
Er62     V129    10.0   .     S
Er62     V65    10.0   1_565     S
Er63     Ti64    9.999   .     S
Er63     V66    10.0   1_565     S
V65     Er58    10.0   1_545     S
V65     Er62    10.0   1_545     S
V65     V66    10.001   .     S
V66     Er59    10.0   1_545     S
V66     Er63    10.0   1_545     S
Er67     Ti70    9.999   .     S
Er67     V101    10.0   .     S
Er67     V140    10.0   .     S
Er68     Ti70    9.999   .     S
Er68     V106    10.0   .     S
Er68     V148    10.0   .     S
Er69     Ti70    9.999   .     S
Er69     V134    10.0   .     S
Er69     V147    10.0   .     S
Er71     Ti74    9.999   .     S
Er71     V79    10.0   .     S
Er71     V112    10.0   .     S
Er72     Ti74    9.999   .     S
Er72     V85    10.0   .     S
Er72     V146    10.0   .     S
Er73     Ti74    9.999   .     S
Er73     V107    10.0   .     S
Er73     V145    10.0   .     S
Er75     Ti78    9.999   .     S
Er75     V165    10.0   .     S
Er75     V79    10.0   1_565     S
Er76     Ti78    9.999   .     S
Er76     V167    10.0   .     S
Er76     V92    10.0   .     S
Er77     Ti78    9.999   .     S
Er77     V85    10.0   1_565     S
V79     Er75    10.0   1_545     S
V79     Er82    10.0   1_545     S
V79     V85    10.001   .     S
Er80     Ti83    9.999   .     S
Er80     V173    10.0   .     S
Er80     V85    10.0   1_565     S
Er81     Ti83    9.999   .     S
Er81     V176    10.0   .     S
Er81     V84    10.0   1_556     S
Er82     Ti83    9.999   .     S
Er82     V79    10.0   1_565     S
Er82     V90    10.0   1_556     S
V84     Er81    10.0   1_554     S
V84     Er88    10.0   1_554     S
V84     Er94    10.0   .     S
V84     V90    10.001   .     S
V85     Er77    10.0   1_545     S
V85     Er80    10.0   1_545     S
Er86     Ti89    9.999   .     S
Er86     V167    10.0   .     S
Er86     V91    10.0   .     S
Er87     Ti89    9.999   .     S
Er87     V165    10.0   .     S
Er87     V90    10.0   1_556     S
Er88     Ti89    9.999   .     S
Er88     V84    10.0   1_556     S
V90     Er82    10.0   1_554     S
V90     Er87    10.0   1_554     S
V90     Er93    10.0   .     S
Er93     Ti96    9.999   .     S
Er93     V129    10.0   .     S
Er94     Ti96    9.999   .     S
Er94     V144    10.0   .     S
Er95     Ti96    9.999   .     S
Er95     V135    10.0   .     S
Er95     V143    10.0   .     S
Er97     Ti100    9.999   .     S
Er97     V170    10.0   .     S
Er97     V113    10.0   .     S
Er98     Ti100    9.999   .     S
Er98     V169    10.0   .     S
Er98     V101    10.0   1_556     S
Er99     Ti100    9.999   .     S
Er99     V106    10.0   1_556     S
V101     Er98    10.0   1_554     S
V101     Er104    10.0   1_554     S
V101     Er120    10.0   .     S
V101     V106    10.001   .     S
Er102     Ti105    9.999   .     S
Er102     V171    10.0   .     S
Er102     V107    10.0   1_655     S
Er103     Ti105    9.999   .     S
Er103     V175    10.0   .     S
Er103     V106    10.0   1_556     S
Er104     Ti105    9.999   .     S
Er104     V101    10.0   1_556     S
Er104     V112    10.0   1_655     S
V106     Er99    10.0   1_554     S
V106     Er103    10.0   1_554     S
V106     Er119    10.0   .     S
V107     Er102    10.0   1_455     S
V107     Er110    10.0   1_455     S
V107     V112    10.001   .     S
Er108     Ti111    9.999   .     S
Er108     V169    10.0   .     S
Er108     V112    10.0   1_655     S
Er109     Ti111    9.999   .     S
Er109     V170    10.0   .     S
Er109     V114    10.0   .     S
Er110     Ti111    9.999   .     S
Er110     V107    10.0   1_655     S
V112     Er104    10.0   1_455     S
V112     Er108    10.0   1_455     S
V114     Er115    10.0   .     S
Er115     Ti118    9.999   .     S
Er115     V134    10.0   .     S
Er116     Ti118    9.999   .     S
Er116     V140    10.0   .     S
Er116     V123    10.0   1_655     S
Er117     Ti118    9.999   .     S
Er117     V124    10.0   1_655     S
Er119     Ti122    9.999   .     S
Er119     V142    10.0   .     S
Er120     Ti122    9.999   .     S
Er120     V123    10.0   1_655     S
Er121     Ti122    9.999   .     S
Er121     V124    10.0   1_655     S
V123     Er116    10.0   1_455     S
V123     Er120    10.0   1_455     S
V123     V124    10.001   .     S
V124     Er117    10.0   1_455     S
V124     Er121    10.0   1_455     S
Er125     Ti128    9.999   .     S
Er125     V168    10.0   .     S
Er125     V142    10.0   .     S
Er126     Ti128    9.999   .     S
Er126     V166    10.0   .     S
Er126     V129    10.0   1_655     S
Er127     Ti128    9.999   .     S
Er127     V135    10.0   1_655     S
V129     Er126    10.0   1_455     S
V129     Er132    10.0   1_455     S
V129     V135    10.001   .     S
Er130     Ti133    9.999   .     S
Er130     V172    10.0   .     S
Er130     V135    10.0   1_655     S
Er131     Ti133    9.999   .     S
Er131     V174    10.0   .     S
Er131     V134    10.0   1_565     S
Er132     Ti133    9.999   .     S
Er132     V129    10.0   1_655     S
Er132     V140    10.0   1_565     S
V134     Er131    10.0   1_545     S
V134     Er138    10.0   1_545     S
V134     V140    10.001   .     S
V135     Er127    10.0   1_455     S
V135     Er130    10.0   1_455     S
Er136     Ti139    9.999   .     S
Er136     V168    10.0   .     S
Er136     V141    10.0   .     S
Er137     Ti139    9.999   .     S
Er137     V166    10.0   .     S
Er137     V140    10.0   1_565     S
Er138     Ti139    9.999   .     S
Er138     V134    10.0   1_565     S
V140     Er132    10.0   1_545     S
V140     Er137    10.0   1_545     S
V143     V144    10.001   .     S
V145     V146    10.001   .     S
V147     V148    10.001   .     S
Er149     Ti152    9.999   .     S
Er149     V175    10.0   .     S
Er149     V176    10.0   .     S
Er150     Ti152    9.999   .     S
Er150     V173    10.0   .     S
Er150     V174    10.0   .     S
Er151     Ti152    9.999   .     S
Er151     V172    10.0   .     S
Er151     V171    10.0   .     S
Er153     Ti156    9.999   .     S
Er153     V174    10.0   .     S
Er153     V170    10.0   1_565     S
Er154     Ti156    9.999   .     S
Er154     V172    10.0   .     S
Er154     V167    10.0   1_655     S
Er155     Ti156    9.999   .     S
Er155     V169    10.0   1_565     S
Er155     V165    10.0   1_655     S
Er157     Ti160    9.999   .     S
Er157     V176    10.0   .     S
Er157     V168    10.0   1_556     S
Er158     Ti160    9.999   .     S
Er158     V173    10.0   .     S
Er158     V170    10.0   1_565     S
Er159     Ti160    9.999   .     S
Er159     V166    10.0   1_556     S
Er159     V169    10.0   1_565     S
Er161     Ti164    9.999   .     S
Er161     V175    10.0   .     S
Er161     V168    10.0   1_556     S
Er162     Ti164    9.999   .     S
Er162     V171    10.0   .     S
Er162     V167    10.0   1_655     S
Er163     Ti164    9.999   .     S
Er163     V165    10.0   1_655     S
Er163     V166    10.0   1_556     S
V165     Er155    10.0   1_455     S
V165     Er163    10.0   1_455     S
V165     V167    10.001   .     S
V166     Er159    10.0   1_554     S
V166     Er163    10.0   1_554     S
V166     V168    10.001   .     S
V167     Er154    10.0   1_455     S
V167     Er162    10.0   1_455     S
V168     Er157    10.0   1_554     S
V168     Er161    10.0   1_554     S
V169     Er155    10.0   1_545     S
V169     Er159    10.0   1_545     S
V169     V170    10.001   .     S
V170     Er153    10.0   1_545     S
V170     Er158    10.0   1_545     S
V171     V175    10.001   .     S
V172     V174    10.001   .     S
V173     V176    10.001   .     S
