data_gez
_audit_creation_date              2020-02-04
_audit_creation_method            'Pymatgen'
_symmetry_space_group_name_H-M    'P1'
_symmetry_Int_Tables_number       1
loop_
_symmetry_equiv_pos_as_xyz
  x,y,z
_cell_length_a                    18.4036
_cell_length_b                    18.4036
_cell_length_c                    38.5824
_cell_angle_alpha                 90.0
_cell_angle_beta                 90.0
_cell_angle_gamma                 120.0
loop_
_atom_site_label
_atom_site_type_symbol
_atom_site_fract_x
_atom_site_fract_y
_atom_site_fract_z
V1     V     0.4531   0.5469   0.9062
V2     V     0.5469   0.4531   0.0938
V3     V     0.9062   0.4531   0.0938
V4     V     0.0938   0.5469   0.9062
V5     V     0.4531   0.9062   0.9062
V6     V     0.5469   0.0938   0.0938
Er7     Er     0.0   0.0   0.0
V8     V     0.2136   0.7864   0.4271
V9     V     0.1198   0.8802   0.2396
V10     V     0.5728   0.7864   0.4271
V11     V     0.2136   0.4272   0.4271
V12     V     0.1198   0.2395   0.2396
V13     V     0.7605   0.8802   0.2396
Er14     Er     0.6667   0.3333   0.3333
V15     V     0.7864   0.2136   0.5729
V16     V     0.8802   0.1198   0.7604
V17     V     0.7864   0.5728   0.5729
V18     V     0.4272   0.2136   0.5729
V19     V     0.2395   0.1198   0.7604
V20     V     0.8802   0.7605   0.7604
Er21     Er     0.3333   0.6667   0.6667
loop_
_geom_bond_atom_site_label_1
_geom_bond_atom_site_label_2
_geom_bond_distance
_geom_bond_site_symmetry_2
_ccdc_geom_bond_type
V1     Er7    10.0   1_556     S
V1     Er7    10.0   1_666     S
V1     Er21    10.0   .     S
V2     Er7    10.0   .     S
V2     Er7    10.0   1_665     S
V2     Er14    10.0   .     S
V3     Er7    10.0   1_655     S
V3     Er7    10.0   1_665     S
V3     Er14    10.0   .     S
V4     Er7    10.0   1_556     S
V4     Er7    10.0   1_566     S
V4     Er21    10.0   .     S
V5     Er7    10.0   1_666     S
V5     Er7    10.0   1_566     S
V5     Er21    10.0   .     S
V6     Er7    10.0   .     S
V6     Er7    10.0   1_655     S
V6     Er14    10.0   .     S
Er7     V16    10.0   1_454     S
Er7     V20    10.0   1_444     S
Er7     V19    10.0   1_554     S
Er7     V12    10.0   .     S
Er7     V13    10.0   1_445     S
Er7     V9    10.0   1_545     S
Er7     V1    10.0   1_554     S
Er7     V4    10.0   1_554     S
Er7     V6    10.0   1_455     S
Er7     V3    10.0   1_455     S
Er7     V5    10.0   1_444     S
Er7     V1    10.0   1_444     S
Er7     V4    10.0   1_544     S
Er7     V5    10.0   1_544     S
Er7     V3    10.0   1_445     S
Er7     V2    10.0   1_445     S
V8     Er14    10.0   1_455     S
V8     Er14    10.0   1_565     S
V8     Er21    10.0   .     S
V9     Er7    10.0   1_565     S
V9     Er14    10.0   1_565     S
V9     Er14    10.0   1_455     S
V10     Er14    10.0   .     S
V10     Er14    10.0   1_565     S
V10     Er21    10.0   .     S
V11     Er14    10.0   .     S
V11     Er14    10.0   1_455     S
V11     Er21    10.0   .     S
V12     Er14    10.0   .     S
V12     Er14    10.0   1_455     S
V13     Er7    10.0   1_665     S
V13     Er14    10.0   .     S
V13     Er14    10.0   1_565     S
Er14     V15    10.0   .     S
Er14     V17    10.0   .     S
Er14     V18    10.0   .     S
Er14     V9    10.0   1_545     S
Er14     V8    10.0   1_655     S
Er14     V11    10.0   1_655     S
Er14     V9    10.0   1_655     S
Er14     V10    10.0   1_545     S
Er14     V8    10.0   1_545     S
Er14     V13    10.0   1_545     S
Er14     V12    10.0   1_655     S
V15     Er21    10.0   1_655     S
V15     Er21    10.0   1_545     S
V16     Er7    10.0   1_656     S
V16     Er21    10.0   1_655     S
V16     Er21    10.0   1_545     S
V17     Er21    10.0   1_655     S
V17     Er21    10.0   .     S
V18     Er21    10.0   .     S
V18     Er21    10.0   1_545     S
V19     Er7    10.0   1_556     S
V19     Er21    10.0   .     S
V19     Er21    10.0   1_545     S
V20     Er7    10.0   1_666     S
V20     Er21    10.0   .     S
V20     Er21    10.0   1_655     S
Er21     V17    10.0   1_455     S
Er21     V15    10.0   1_455     S
Er21     V16    10.0   1_455     S
Er21     V16    10.0   1_565     S
Er21     V15    10.0   1_565     S
Er21     V18    10.0   1_565     S
Er21     V20    10.0   1_455     S
Er21     V19    10.0   1_565     S
