data_ggl
_audit_creation_date              2020-02-04
_audit_creation_method            'Pymatgen'
_symmetry_space_group_name_H-M    'P1'
_symmetry_Int_Tables_number       1
loop_
_symmetry_equiv_pos_as_xyz
  x,y,z
_cell_length_a                    75.7297
_cell_length_b                    75.7297
_cell_length_c                    37.9105
_cell_angle_alpha                 90.0
_cell_angle_beta                 90.0
_cell_angle_gamma                 120.0
loop_
_atom_site_label
_atom_site_type_symbol
_atom_site_fract_x
_atom_site_fract_y
_atom_site_fract_z
Er1     Er     0.1002   0.3279   0.3
Er2     Er     0.1057   0.3388   0.8666
V3     V     0.0278   0.3333   0.0833
Er4     Er     0.8998   0.2277   0.2
Er5     Er     0.8943   0.2331   0.6334
V6     V     0.9722   0.3055   0.4167
Er7     Er     0.0055   0.439   0.9667
Er8     Er     0.9945   0.4335   0.5333
V9     V     0.0   0.3611   0.75
Er10     Er     0.8998   0.6721   0.7
Er11     Er     0.8943   0.6612   0.1334
V12     V     0.9722   0.6667   0.9167
Er13     Er     0.1002   0.7723   0.8
Er14     Er     0.1057   0.7669   0.3666
V15     V     0.0278   0.6945   0.5833
Er16     Er     0.9945   0.561   0.0333
Er17     Er     0.0055   0.5665   0.4667
V18     V     0.0   0.6389   0.25
Er19     Er     0.6721   0.7723   0.3
Er20     Er     0.6612   0.7669   0.8666
V21     V     0.6667   0.6945   0.0833
Er22     Er     0.5665   0.561   0.5333
Er23     Er     0.561   0.5665   0.9667
V24     V     0.6389   0.6389   0.75
Er25     Er     0.7723   0.6721   0.2
Er26     Er     0.7669   0.6612   0.6334
V27     V     0.6945   0.6667   0.4167
Er28     Er     0.439   0.4335   0.0333
Er29     Er     0.4335   0.439   0.4667
V30     V     0.3611   0.3611   0.25
Er31     Er     0.3279   0.2277   0.7
Er32     Er     0.3388   0.2331   0.1334
V33     V     0.3333   0.3055   0.9167
Er34     Er     0.2277   0.3279   0.8
Er35     Er     0.2331   0.3388   0.3666
V36     V     0.3055   0.3333   0.5833
Er37     Er     0.7723   0.1002   0.7
Er38     Er     0.7669   0.1057   0.1334
V39     V     0.6945   0.0278   0.9167
Er40     Er     0.6721   0.8998   0.8
Er41     Er     0.6612   0.8943   0.3666
V42     V     0.6667   0.9722   0.5833
Er43     Er     0.561   0.9945   0.4667
Er44     Er     0.5665   0.0055   0.0333
V45     V     0.6389   0.0   0.25
Er46     Er     0.3279   0.1002   0.2
Er47     Er     0.3388   0.1057   0.6334
V48     V     0.3333   0.0278   0.4167
Er49     Er     0.2277   0.8998   0.3
Er50     Er     0.2331   0.8943   0.8666
V51     V     0.3055   0.9722   0.0833
Er52     Er     0.439   0.0055   0.5333
Er53     Er     0.4335   0.9945   0.9667
V54     V     0.3611   0.0   0.75
loop_
_geom_bond_atom_site_label_1
_geom_bond_atom_site_label_2
_geom_bond_distance
_geom_bond_site_symmetry_2
_ccdc_geom_bond_type
Er1     Er35    10.005   .     S
Er1     V6    9.999   1_455     S
Er1     V3    9.999   .     S
Er2     Er34    10.005   .     S
Er2     V9    9.999   .     S
Er2     V3    9.999   1_556     S
V3     Er2    9.999   1_554     S
V3     Er4    9.999   1_455     S
V3     Er7    9.999   1_554     S
Er4     Er38    10.005   .     S
Er4     V3    9.999   1_655     S
Er4     V6    9.999   .     S
Er5     Er37    10.005   .     S
Er5     V9    9.999   1_655     S
Er5     V6    9.999   .     S
V6     Er1    9.999   1_655     S
V6     Er8    9.999   .     S
Er7     V3    9.999   1_556     S
Er7     V9    9.999   .     S
Er7     Er16    10.005   1_456     S
Er8     Er17    10.005   1_655     S
Er8     V9    9.999   1_655     S
V9     Er5    9.999   1_455     S
V9     Er8    9.999   1_455     S
Er10     V15    9.999   1_655     S
Er10     V12    9.999   .     S
Er10     Er26    10.005   .     S
Er11     Er25    10.005   .     S
Er11     V18    9.999   1_655     S
Er11     V12    9.999   1_554     S
V12     Er11    9.999   1_556     S
V12     Er13    9.999   1_655     S
V12     Er16    9.999   1_556     S
Er13     Er50    10.005   .     S
Er13     V12    9.999   1_455     S
Er13     V15    9.999   .     S
Er14     Er49    10.005   .     S
Er14     V18    9.999   .     S
Er14     V15    9.999   .     S
V15     Er10    9.999   1_455     S
V15     Er17    9.999   .     S
Er16     Er7    10.005   1_654     S
Er16     V12    9.999   1_554     S
Er16     V18    9.999   1_655     S
Er17     Er8    10.005   1_455     S
Er17     V18    9.999   .     S
V18     Er11    9.999   1_455     S
V18     Er16    9.999   1_455     S
Er19     Er41    10.005   .     S
Er19     V27    9.999   .     S
Er19     V21    9.999   .     S
Er20     Er40    10.005   .     S
Er20     V24    9.999   .     S
Er20     V21    9.999   1_556     S
V21     Er20    9.999   1_554     S
V21     Er23    9.999   1_554     S
V21     Er25    9.999   .     S
Er22     Er29    10.005   .     S
Er22     V27    9.999   .     S
Er22     V24    9.999   .     S
Er23     Er28    10.005   1_556     S
Er23     V21    9.999   1_556     S
Er23     V24    9.999   .     S
V24     Er26    9.999   .     S
Er25     V27    9.999   .     S
Er26     V27    9.999   .     S
Er28     Er23    10.005   1_554     S
Er28     V33    9.999   1_554     S
Er28     V30    9.999   .     S
Er29     V36    9.999   .     S
Er29     V30    9.999   .     S
V30     Er32    9.999   .     S
V30     Er35    9.999   .     S
Er31     Er47    10.005   .     S
Er31     V36    9.999   .     S
Er31     V33    9.999   .     S
Er32     V33    9.999   1_554     S
Er32     Er46    10.005   .     S
V33     Er28    9.999   1_556     S
V33     Er32    9.999   1_556     S
V33     Er34    9.999   .     S
Er34     V36    9.999   .     S
Er35     V36    9.999   .     S
Er37     V42    9.999   1_545     S
Er37     V39    9.999   .     S
Er38     V45    9.999   .     S
Er38     V39    9.999   1_554     S
V39     Er38    9.999   1_556     S
V39     Er40    9.999   1_545     S
V39     Er44    9.999   1_556     S
Er40     V39    9.999   1_565     S
Er40     V42    9.999   .     S
Er41     V45    9.999   1_565     S
Er41     V42    9.999   .     S
V42     Er37    9.999   1_565     S
V42     Er43    9.999   .     S
Er43     V45    9.999   1_565     S
Er43     Er52    10.005   1_565     S
Er44     Er53    10.005   1_544     S
Er44     V39    9.999   1_554     S
Er44     V45    9.999   .     S
V45     Er41    9.999   1_545     S
V45     Er43    9.999   1_545     S
Er46     V51    9.999   1_545     S
Er46     V48    9.999   .     S
Er47     V54    9.999   .     S
Er47     V48    9.999   .     S
V48     Er49    9.999   1_545     S
V48     Er52    9.999   .     S
Er49     V48    9.999   1_565     S
Er49     V51    9.999   .     S
Er50     V54    9.999   1_565     S
Er50     V51    9.999   1_556     S
V51     Er46    9.999   1_565     S
V51     Er50    9.999   1_554     S
V51     Er53    9.999   1_554     S
Er52     Er43    10.005   1_545     S
Er52     V54    9.999   .     S
Er53     Er44    10.005   1_566     S
Er53     V51    9.999   1_556     S
Er53     V54    9.999   1_565     S
V54     Er50    9.999   1_545     S
V54     Er53    9.999   1_545     S
