data_ghw
_audit_creation_date              2020-02-04
_audit_creation_method            'Pymatgen'
_symmetry_space_group_name_H-M    'P1'
_symmetry_Int_Tables_number       1
loop_
_symmetry_equiv_pos_as_xyz
  x,y,z
_cell_length_a                    19.9702
_cell_length_b                    30.3545
_cell_length_c                    18.909
_cell_angle_alpha                 90.0
_cell_angle_beta                 90.0
_cell_angle_gamma                 90.0
loop_
_atom_site_label
_atom_site_type_symbol
_atom_site_fract_x
_atom_site_fract_y
_atom_site_fract_z
V1     V     0.125   0.625   0.3606
V2     V     0.125   0.625   0.8894
V3     V     0.625   0.625   0.8606
V4     V     0.625   0.625   0.3894
V5     V     0.375   0.875   0.1106
V6     V     0.375   0.875   0.6394
V7     V     0.875   0.875   0.1394
V8     V     0.875   0.875   0.6106
V9     V     0.375   0.375   0.1394
V10     V     0.375   0.375   0.6106
V11     V     0.875   0.375   0.1106
V12     V     0.875   0.375   0.6394
V13     V     0.625   0.125   0.3606
V14     V     0.625   0.125   0.8894
V15     V     0.125   0.125   0.8606
V16     V     0.125   0.125   0.3894
loop_
_geom_bond_atom_site_label_1
_geom_bond_atom_site_label_2
_geom_bond_distance
_geom_bond_site_symmetry_2
_ccdc_geom_bond_type
V1     V2    10.0   .     S
V1     V4    10.0   1_455     S
V1     V4    10.0   .     S
V1     V7    10.0   1_455     S
V1     V9    10.0   .     S
V2     V3    10.0   1_455     S
V2     V3    10.0   .     S
V2     V5    10.0   1_556     S
V2     V11    10.0   1_456     S
V3     V4    10.0   1_556     S
V3     V2    10.0   1_655     S
V3     V12    10.0   .     S
V3     V6    10.0   .     S
V4     V3    10.0   1_554     S
V4     V1    10.0   1_655     S
V4     V8    10.0   .     S
V4     V10    10.0   .     S
V5     V6    10.0   .     S
V5     V7    10.0   .     S
V5     V7    10.0   1_455     S
V5     V2    10.0   1_554     S
V5     V14    10.0   1_564     S
V6     V8    10.0   .     S
V6     V8    10.0   1_455     S
V6     V15    10.0   1_565     S
V7     V8    10.0   1_554     S
V7     V5    10.0   1_655     S
V7     V13    10.0   1_565     S
V7     V1    10.0   1_655     S
V8     V7    10.0   1_556     S
V8     V6    10.0   1_655     S
V8     V16    10.0   1_665     S
V9     V10    10.0   1_554     S
V9     V11    10.0   .     S
V9     V11    10.0   1_455     S
V9     V13    10.0   .     S
V10     V9    10.0   1_556     S
V10     V12    10.0   .     S
V10     V12    10.0   1_455     S
V10     V16    10.0   .     S
V11     V12    10.0   .     S
V11     V9    10.0   1_655     S
V11     V2    10.0   1_654     S
V11     V14    10.0   1_554     S
V12     V10    10.0   1_655     S
V12     V15    10.0   1_655     S
V13     V14    10.0   .     S
V13     V16    10.0   1_655     S
V13     V16    10.0   .     S
V13     V7    10.0   1_545     S
V14     V15    10.0   1_655     S
V14     V15    10.0   .     S
V14     V11    10.0   1_556     S
V14     V5    10.0   1_546     S
V15     V14    10.0   1_455     S
V15     V16    10.0   1_556     S
V15     V6    10.0   1_545     S
V15     V12    10.0   1_455     S
V16     V13    10.0   1_455     S
V16     V15    10.0   1_554     S
V16     V8    10.0   1_445     S
