data_gpux
_audit_creation_date              2020-02-04
_audit_creation_method            'Pymatgen'
_symmetry_space_group_name_H-M    'P1'
_symmetry_Int_Tables_number       1
loop_
_symmetry_equiv_pos_as_xyz
  x,y,z
_cell_length_a                    30.2146
_cell_length_b                    18.2194
_cell_length_c                    18.209
_cell_angle_alpha                 90.0
_cell_angle_beta                 90.0
_cell_angle_gamma                 90.0
loop_
_atom_site_label
_atom_site_type_symbol
_atom_site_fract_x
_atom_site_fract_y
_atom_site_fract_z
V1     V     0.875   0.4375   0.375
V2     V     0.875   0.9375   0.375
V3     V     0.125   0.0625   0.625
V4     V     0.125   0.5625   0.625
V5     V     0.875   0.1875   0.875
V6     V     0.875   0.6875   0.875
V7     V     0.125   0.3125   0.125
V8     V     0.125   0.8125   0.125
V9     V     0.625   0.3125   0.625
V10     V     0.625   0.8125   0.625
V11     V     0.375   0.1875   0.375
V12     V     0.375   0.6875   0.375
V13     V     0.375   0.4375   0.875
V14     V     0.375   0.9375   0.875
V15     V     0.625   0.0625   0.125
V16     V     0.625   0.5625   0.125
loop_
_geom_bond_atom_site_label_1
_geom_bond_atom_site_label_2
_geom_bond_distance
_geom_bond_site_symmetry_2
_ccdc_geom_bond_type
V1     V2    9.11   1_545     S
V1     V2    9.11   .     S
V1     V16    9.109   .     S
V1     V7    9.109   1_655     S
V1     V4    9.109   1_655     S
V1     V9    9.109   .     S
V1     V5    10.18   .     S
V1     V5    10.18   1_554     S
V1     V6    10.18   .     S
V1     V6    10.18   1_554     S
V1     V15    11.156   .     S
V1     V8    11.156   1_655     S
V1     V3    11.156   1_655     S
V1     V10    11.156   .     S
V2     V1    9.11   1_565     S
V2     V15    9.109   1_565     S
V2     V8    9.109   1_655     S
V2     V3    9.109   1_665     S
V2     V10    9.109   .     S
V2     V6    10.18   .     S
V2     V6    10.18   1_554     S
V2     V5    10.18   1_565     S
V2     V5    10.18   1_564     S
V2     V16    11.156   .     S
V2     V7    11.156   1_665     S
V2     V4    11.156   1_655     S
V2     V9    11.156   1_565     S
V3     V4    9.11   .     S
V3     V4    9.11   1_545     S
V3     V14    9.109   1_545     S
V3     V5    9.109   1_455     S
V3     V11    9.109   .     S
V3     V2    9.109   1_445     S
V3     V8    10.18   1_545     S
V3     V7    10.18   .     S
V3     V7    10.18   1_556     S
V3     V8    10.18   1_546     S
V3     V6    11.156   1_445     S
V3     V12    11.156   1_545     S
V3     V1    11.156   1_455     S
V3     V13    11.156   .     S
V4     V3    9.11   1_565     S
V4     V13    9.109   .     S
V4     V6    9.109   1_455     S
V4     V12    9.109   .     S
V4     V1    9.109   1_455     S
V4     V7    10.18   .     S
V4     V8    10.18   .     S
V4     V8    10.18   1_556     S
V4     V7    10.18   1_556     S
V4     V5    11.156   1_455     S
V4     V11    11.156   .     S
V4     V2    11.156   1_455     S
V4     V14    11.156   .     S
V5     V9    9.109   .     S
V5     V3    9.109   1_655     S
V5     V7    9.109   1_656     S
V5     V15    9.109   1_556     S
V5     V6    9.11   .     S
V5     V6    9.11   1_545     S
V5     V1    10.18   1_556     S
V5     V2    10.18   1_545     S
V5     V2    10.18   1_546     S
V5     V4    11.156   1_655     S
V5     V16    11.156   1_556     S
V5     V10    11.156   1_545     S
V5     V8    11.156   1_646     S
V6     V10    9.109   .     S
V6     V4    9.109   1_655     S
V6     V8    9.109   1_656     S
V6     V16    9.109   1_556     S
V6     V5    9.11   1_565     S
V6     V2    10.18   1_556     S
V6     V1    10.18   1_556     S
V6     V3    11.156   1_665     S
V6     V15    11.156   1_566     S
V6     V9    11.156   .     S
V6     V7    11.156   1_656     S
V7     V1    9.109   1_455     S
V7     V13    9.109   1_554     S
V7     V5    9.109   1_454     S
V7     V11    9.109   .     S
V7     V8    9.11   1_545     S
V7     V8    9.11   .     S
V7     V3    10.18   1_554     S
V7     V4    10.18   1_554     S
V7     V2    11.156   1_445     S
V7     V14    11.156   1_544     S
V7     V6    11.156   1_454     S
V7     V12    11.156   .     S
V8     V2    9.109   1_455     S
V8     V14    9.109   1_554     S
V8     V6    9.109   1_454     S
V8     V12    9.109   .     S
V8     V7    9.11   1_565     S
V8     V3    10.18   1_565     S
V8     V4    10.18   1_554     S
V8     V3    10.18   1_564     S
V8     V1    11.156   1_455     S
V8     V13    11.156   1_554     S
V8     V5    11.156   1_464     S
V8     V11    11.156   1_565     S
V9     V10    9.11   1_545     S
V9     V10    9.11   .     S
V9     V13    9.109   .     S
V9     V11    9.109   .     S
V9     V16    10.18   .     S
V9     V15    10.18   1_556     S
V9     V15    10.18   .     S
V9     V16    10.18   1_556     S
V9     V14    11.156   1_545     S
V9     V2    11.156   1_545     S
V9     V12    11.156   .     S
V10     V9    9.11   1_565     S
V10     V14    9.109   .     S
V10     V12    9.109   .     S
V10     V15    10.18   1_565     S
V10     V16    10.18   1_556     S
V10     V16    10.18   .     S
V10     V15    10.18   1_566     S
V10     V13    11.156   .     S
V10     V5    11.156   1_565     S
V10     V11    11.156   1_565     S
V11     V12    9.11   .     S
V11     V12    9.11   1_545     S
V11     V15    9.109   .     S
V11     V13    10.18   1_554     S
V11     V14    10.18   1_545     S
V11     V13    10.18   .     S
V11     V14    10.18   1_544     S
V11     V16    11.156   .     S
V11     V8    11.156   1_545     S
V11     V10    11.156   1_545     S
V12     V11    9.11   1_565     S
V12     V16    9.109   .     S
V12     V14    10.18   1_554     S
V12     V13    10.18   .     S
V12     V14    10.18   .     S
V12     V13    10.18   1_554     S
V12     V15    11.156   1_565     S
V12     V3    11.156   1_565     S
V13     V7    9.109   1_556     S
V13     V14    9.11   1_545     S
V13     V14    9.11   .     S
V13     V16    9.109   1_556     S
V13     V11    10.18   1_556     S
V13     V12    10.18   1_556     S
V13     V8    11.156   1_556     S
V13     V15    11.156   1_556     S
V14     V3    9.109   1_565     S
V14     V8    9.109   1_556     S
V14     V13    9.11   1_565     S
V14     V15    9.109   1_566     S
V14     V12    10.18   1_556     S
V14     V11    10.18   1_565     S
V14     V11    10.18   1_566     S
V14     V9    11.156   1_565     S
V14     V7    11.156   1_566     S
V14     V16    11.156   1_556     S
V15     V16    9.11   .     S
V15     V16    9.11   1_545     S
V15     V2    9.109   1_545     S
V15     V5    9.109   1_554     S
V15     V14    9.109   1_544     S
V15     V10    10.18   1_545     S
V15     V9    10.18   1_554     S
V15     V10    10.18   1_544     S
V15     V12    11.156   1_545     S
V15     V6    11.156   1_544     S
V15     V13    11.156   1_554     S
V16     V15    9.11   1_565     S
V16     V6    9.109   1_554     S
V16     V13    9.109   1_554     S
V16     V10    10.18   1_554     S
V16     V9    10.18   1_554     S
V16     V5    11.156   1_554     S
V16     V14    11.156   1_554     S
