data_gwea
_audit_creation_date              2020-02-04
_audit_creation_method            'Pymatgen'
_symmetry_space_group_name_H-M    'P1'
_symmetry_Int_Tables_number       1
loop_
_symmetry_equiv_pos_as_xyz
  x,y,z
_cell_length_a                    107.9377
_cell_length_b                    107.9377
_cell_length_c                    162.6256
_cell_angle_alpha                 90.0
_cell_angle_beta                 90.0
_cell_angle_gamma                 120.0
loop_
_atom_site_label
_atom_site_type_symbol
_atom_site_fract_x
_atom_site_fract_y
_atom_site_fract_z
Er1     Er     0.8771   0.2156   0.2193
Er2     Er     0.8771   0.2156   0.2807
Er3     Er     0.7844   0.1229   0.2807
Er4     Er     0.7844   0.1229   0.2193
Er5     Er     0.3385   0.1229   0.2193
Er6     Er     0.3385   0.1229   0.2807
Er7     Er     0.3385   0.2156   0.2807
Er8     Er     0.3385   0.2156   0.2193
Er9     Er     0.7844   0.6615   0.2193
Er10     Er     0.7844   0.6615   0.2807
Er11     Er     0.8771   0.6615   0.2807
Er12     Er     0.8771   0.6615   0.2193
Er13     Er     0.2156   0.3385   0.7193
Er14     Er     0.2156   0.3385   0.7807
Er15     Er     0.1229   0.3385   0.7807
Er16     Er     0.1229   0.3385   0.7193
Ti17     Ti     0.2222   0.8704   0.3776
Ti18     Ti     0.1296   0.7778   0.3776
He19     He     0.1984   0.8016   0.4242
B20     B     0.225   0.775   0.4775
Ti21     Ti     0.6482   0.8704   0.3776
Ti22     Ti     0.6482   0.7778   0.3776
B23     B     0.55   0.775   0.4775
He24     He     0.6033   0.8016   0.4242
Ti25     Ti     0.2222   0.3518   0.3776
Ti26     Ti     0.1296   0.3518   0.3776
He27     He     0.1984   0.3967   0.4242
B28     B     0.225   0.45   0.4775
Li29     Li     0.7029   0.6696   0.6424
Li30     Li     0.3304   0.2971   0.6424
S31     S     0.2827   0.3375   0.6772
V32     V     0.3573   0.3998   0.6364
H33     H     0.505   0.5877   0.6088
H34     H     0.4123   0.495   0.6088
S35     S     0.6625   0.7173   0.6772
V36     V     0.6002   0.6427   0.6364
Be37     Be     0.4716   0.621   0.5607
Be38     Be     0.379   0.5284   0.5607
Ce39     Ce     0.2018   0.7056   0.5236
Ce40     Ce     0.2944   0.7982   0.5236
Be41     Be     0.379   0.8506   0.5607
Be42     Be     0.4716   0.8506   0.5607
Ce43     Ce     0.5038   0.7982   0.5236
Ce44     Ce     0.5038   0.7056   0.5236
Be45     Be     0.1494   0.621   0.5607
Be46     Be     0.1494   0.5284   0.5607
Ce47     Ce     0.2944   0.4962   0.5236
Ce48     Ce     0.2018   0.4962   0.5236
Li49     Li     0.7029   0.0332   0.6424
Li50     Li     0.3304   0.0332   0.6424
S51     S     0.6625   0.9452   0.6772
V52     V     0.6002   0.9575   0.6364
H53     H     0.505   0.9173   0.6088
H54     H     0.4123   0.9173   0.6088
S55     S     0.2827   0.9452   0.6772
V56     V     0.3573   0.9575   0.6364
Li57     Li     0.9668   0.2971   0.6424
Li58     Li     0.9668   0.6696   0.6424
S59     S     0.0548   0.3375   0.6772
V60     V     0.0425   0.3998   0.6364
H61     H     0.0827   0.5877   0.6088
H62     H     0.0827   0.495   0.6088
S63     S     0.0548   0.7173   0.6772
V64     V     0.0425   0.6427   0.6364
Ti65     Ti     0.8704   0.2222   0.6224
Ti66     Ti     0.7778   0.1296   0.6224
He67     He     0.8016   0.1984   0.5758
B68     B     0.775   0.225   0.5225
Ti69     Ti     0.3518   0.2222   0.6224
Ti70     Ti     0.3518   0.1296   0.6224
He71     He     0.3967   0.1984   0.5758
B72     B     0.45   0.225   0.5225
Ti73     Ti     0.8704   0.6482   0.6224
Ti74     Ti     0.7778   0.6482   0.6224
B75     B     0.775   0.55   0.5225
He76     He     0.8016   0.6033   0.5758
Li77     Li     0.6696   0.7029   0.3576
Li78     Li     0.2971   0.3304   0.3576
S79     S     0.3375   0.2827   0.3228
V80     V     0.3998   0.3573   0.3636
H81     H     0.5877   0.505   0.3912
H82     H     0.495   0.4123   0.3912
S83     S     0.7173   0.6625   0.3228
V84     V     0.6427   0.6002   0.3636
Li85     Li     0.0332   0.7029   0.3576
Li86     Li     0.0332   0.3304   0.3576
S87     S     0.9452   0.6625   0.3228
V88     V     0.9575   0.6002   0.3636
H89     H     0.9173   0.505   0.3912
H90     H     0.9173   0.4123   0.3912
S91     S     0.9452   0.2827   0.3228
V92     V     0.9575   0.3573   0.3636
Ce93     Ce     0.7982   0.2944   0.4764
Ce94     Ce     0.7056   0.2018   0.4764
Be95     Be     0.8506   0.379   0.4393
Be96     Be     0.8506   0.4716   0.4393
Ce97     Ce     0.7056   0.5038   0.4764
Ce98     Ce     0.7982   0.5038   0.4764
Be99     Be     0.621   0.4716   0.4393
Be100     Be     0.5284   0.379   0.4393
Be101     Be     0.621   0.1494   0.4393
Be102     Be     0.5284   0.1494   0.4393
Ce103     Ce     0.4962   0.2944   0.4764
Ce104     Ce     0.4962   0.2018   0.4764
Li105     Li     0.2971   0.9668   0.3576
Li106     Li     0.6696   0.9668   0.3576
S107     S     0.7173   0.0548   0.3228
V108     V     0.6427   0.0425   0.3636
H109     H     0.495   0.0827   0.3912
H110     H     0.5877   0.0827   0.3912
S111     S     0.3375   0.0548   0.3228
V112     V     0.3998   0.0425   0.3636
Er113     Er     0.2156   0.8771   0.7807
Er114     Er     0.2156   0.8771   0.7193
Er115     Er     0.1229   0.7844   0.7193
Er116     Er     0.1229   0.7844   0.7807
Er117     Er     0.6615   0.8771   0.7807
Er118     Er     0.6615   0.8771   0.7193
Er119     Er     0.6615   0.7844   0.7807
Er120     Er     0.6615   0.7844   0.7193
Ti121     Ti     0.2222   0.8704   0.1224
Ti122     Ti     0.1296   0.7778   0.1224
He123     He     0.1984   0.8016   0.0758
B124     B     0.225   0.775   0.0225
Ti125     Ti     0.6482   0.8704   0.1224
Ti126     Ti     0.6482   0.7778   0.1224
B127     B     0.55   0.775   0.0225
He128     He     0.6033   0.8016   0.0758
Ti129     Ti     0.1296   0.3518   0.1224
Ti130     Ti     0.2222   0.3518   0.1224
He131     He     0.1984   0.3967   0.0758
B132     B     0.225   0.45   0.0225
Li133     Li     0.7029   0.6696   0.8576
Li134     Li     0.3304   0.2971   0.8576
S135     S     0.2827   0.3375   0.8228
V136     V     0.3573   0.3998   0.8636
H137     H     0.505   0.5877   0.8912
H138     H     0.4123   0.495   0.8912
S139     S     0.6625   0.7173   0.8228
V140     V     0.6002   0.6427   0.8636
Li141     Li     0.9668   0.2971   0.8576
Li142     Li     0.9668   0.6696   0.8576
S143     S     0.0548   0.3375   0.8228
V144     V     0.0425   0.3998   0.8636
H145     H     0.0827   0.5877   0.8912
H146     H     0.0827   0.495   0.8912
S147     S     0.0548   0.7173   0.8228
V148     V     0.0425   0.6427   0.8636
Be149     Be     0.1494   0.621   0.9393
Be150     Be     0.1494   0.5284   0.9393
Ce151     Ce     0.2944   0.4962   0.9764
Ce152     Ce     0.2018   0.4962   0.9764
Be153     Be     0.4716   0.621   0.9393
Be154     Be     0.379   0.5284   0.9393
Ce155     Ce     0.2018   0.7056   0.9764
Ce156     Ce     0.2944   0.7982   0.9764
Be157     Be     0.379   0.8506   0.9393
Be158     Be     0.4716   0.8506   0.9393
Ce159     Ce     0.5038   0.7982   0.9764
Ce160     Ce     0.5038   0.7056   0.9764
Li161     Li     0.7029   0.0332   0.8576
Li162     Li     0.3304   0.0332   0.8576
S163     S     0.6625   0.9452   0.8228
V164     V     0.6002   0.9575   0.8636
H165     H     0.505   0.9173   0.8912
H166     H     0.4123   0.9173   0.8912
S167     S     0.2827   0.9452   0.8228
V168     V     0.3573   0.9575   0.8636
Ti169     Ti     0.8704   0.2222   0.8776
Ti170     Ti     0.7778   0.1296   0.8776
He171     He     0.8016   0.1984   0.9242
B172     B     0.775   0.225   0.9775
Ti173     Ti     0.3518   0.2222   0.8776
Ti174     Ti     0.3518   0.1296   0.8776
He175     He     0.3967   0.1984   0.9242
B176     B     0.45   0.225   0.9775
Ti177     Ti     0.7778   0.6482   0.8776
Ti178     Ti     0.8704   0.6482   0.8776
B179     B     0.775   0.55   0.9775
He180     He     0.8016   0.6033   0.9242
Li181     Li     0.6696   0.7029   0.1424
Li182     Li     0.2971   0.3304   0.1424
S183     S     0.7173   0.6625   0.1772
V184     V     0.6427   0.6002   0.1364
H185     H     0.5877   0.505   0.1088
H186     H     0.495   0.4123   0.1088
S187     S     0.3375   0.2827   0.1772
V188     V     0.3998   0.3573   0.1364
Li189     Li     0.0332   0.7029   0.1424
Li190     Li     0.0332   0.3304   0.1424
S191     S     0.9452   0.2827   0.1772
V192     V     0.9575   0.3573   0.1364
H193     H     0.9173   0.505   0.1088
H194     H     0.9173   0.4123   0.1088
S195     S     0.9452   0.6625   0.1772
V196     V     0.9575   0.6002   0.1364
Ce197     Ce     0.7982   0.2944   0.0236
Ce198     Ce     0.7056   0.2018   0.0236
Be199     Be     0.8506   0.379   0.0607
Be200     Be     0.8506   0.4716   0.0607
Ce201     Ce     0.7056   0.5038   0.0236
Ce202     Ce     0.7982   0.5038   0.0236
Be203     Be     0.621   0.4716   0.0607
Be204     Be     0.5284   0.379   0.0607
Be205     Be     0.621   0.1494   0.0607
Be206     Be     0.5284   0.1494   0.0607
Ce207     Ce     0.4962   0.2944   0.0236
Ce208     Ce     0.4962   0.2018   0.0236
Li209     Li     0.2971   0.9668   0.1424
Li210     Li     0.6696   0.9668   0.1424
S211     S     0.7173   0.0548   0.1772
V212     V     0.6427   0.0425   0.1364
H213     H     0.5877   0.0827   0.1088
H214     H     0.495   0.0827   0.1088
S215     S     0.3375   0.0548   0.1772
V216     V     0.3998   0.0425   0.1364
loop_
_geom_bond_atom_site_label_1
_geom_bond_atom_site_label_2
_geom_bond_distance
_geom_bond_site_symmetry_2
_ccdc_geom_bond_type
Er1     Er2    9.998   .     S
Er1     Er4    10.0   .     S
Er1     S191    10.001   .     S
Er2     Er3    10.0   .     S
Er2     S91    10.001   .     S
Er3     Er4    9.998   .     S
Er3     S107    10.001   .     S
Er4     S211    10.001   .     S
Er5     Er6    9.998   .     S
Er5     Er8    10.0   .     S
Er5     S215    10.001   .     S
Er6     Er7    10.0   .     S
Er6     S111    10.001   .     S
Er7     Er8    9.998   .     S
Er7     S79    10.001   .     S
Er8     S187    10.001   .     S
Er9     Er10    9.998   .     S
Er9     Er12    10.0   .     S
Er9     S183    10.001   .     S
Er10     Er11    10.0   .     S
Er10     S83    10.001   .     S
Er11     Er12    9.998   .     S
Er11     S87    10.001   .     S
Er12     S195    10.001   .     S
Er13     Er14    9.998   .     S
Er13     Er16    10.0   .     S
Er13     S31    10.001   .     S
Er14     Er15    10.0   .     S
Er14     S135    10.001   .     S
Er15     Er16    9.998   .     S
Er15     S143    10.001   .     S
Er16     S59    10.001   .     S
Ti17     Ti18    9.999   .     S
Ti17     He19    10.0   .     S
Ti17     Li105    10.0   .     S
Ti18     He19    10.0   .     S
Ti18     Li85    10.0   .     S
He19     B20    10.0   .     S
B20     Ce39    10.001   .     S
B20     Ce40    10.001   .     S
Ti21     Ti22    9.999   .     S
Ti21     He24    9.999   .     S
Ti21     Li106    10.0   .     S
Ti22     He24    10.0   .     S
Ti22     Li77    10.0   .     S
B23     He24    10.0   .     S
B23     Ce44    10.001   .     S
B23     Ce43    10.001   .     S
Ti25     Ti26    9.999   .     S
Ti25     He27    10.0   .     S
Ti25     Li78    10.0   .     S
Ti26     He27    10.0   .     S
Ti26     Li86    10.0   .     S
He27     B28    10.0   .     S
B28     Ce47    10.001   .     S
B28     Ce48    10.001   .     S
Li29     Ti74    10.0   .     S
Li29     S35    9.999   .     S
Li29     V36    10.0   .     S
Li30     Ti69    10.0   .     S
Li30     S31    9.999   .     S
Li30     V32    10.0   .     S
S31     V32    9.999   .     S
V32     H34    10.0   .     S
H33     V36    10.0   .     S
H33     H34    10.0   .     S
H33     Be37    10.001   .     S
H34     Be38    10.001   .     S
S35     V36    9.999   .     S
S35     Er120    10.001   .     S
Be37     Ce44    10.0   .     S
Be37     Be38    10.0   .     S
Be38     Ce47    10.0   .     S
Ce39     Ce40    9.999   .     S
Ce39     Be45    10.0   .     S
Ce40     Be41    10.0   .     S
Be41     Be42    10.0   .     S
Be41     H54    10.001   .     S
Be42     Ce43    10.0   .     S
Be42     H53    10.001   .     S
Ce43     Ce44    9.999   .     S
Be45     Be46    10.0   .     S
Be45     H61    10.001   .     S
Be46     Ce48    10.0   .     S
Be46     H62    10.001   .     S
Ce47     Ce48    9.999   .     S
Li49     Ti66    10.0   .     S
Li49     S51    9.999   1_545     S
Li49     V52    10.0   1_545     S
Li50     Ti70    10.0   .     S
Li50     S55    9.999   1_545     S
Li50     V56    10.0   1_545     S
S51     Li49    9.999   1_565     S
S51     V52    9.999   .     S
S51     Er118    10.001   .     S
V52     Li49    10.0   1_565     S
V52     H53    10.0   .     S
H53     H54    10.0   .     S
H54     V56    10.0   .     S
S55     Li50    9.999   1_565     S
S55     V56    9.999   .     S
S55     Er114    10.001   .     S
V56     Li50    10.0   1_565     S
Li57     Ti65    10.0   .     S
Li57     S59    9.999   1_655     S
Li57     V60    10.0   1_655     S
Li58     Ti73    10.0   .     S
Li58     S63    9.999   1_655     S
Li58     V64    10.0   1_655     S
S59     Li57    9.999   1_455     S
S59     V60    9.999   .     S
V60     Li57    10.0   1_455     S
V60     H62    10.0   .     S
H61     V64    10.0   .     S
H61     H62    10.0   .     S
S63     Li58    9.999   1_455     S
S63     V64    9.999   .     S
S63     Er115    10.001   .     S
V64     Li58    10.0   1_455     S
Ti65     Ti66    9.999   .     S
Ti65     He67    10.0   .     S
Ti66     He67    10.0   .     S
He67     B68    10.0   .     S
B68     Ce94    10.001   .     S
B68     Ce93    10.001   .     S
Ti69     Ti70    9.999   .     S
Ti69     He71    10.0   .     S
Ti70     He71    10.0   .     S
He71     B72    10.0   .     S
B72     Ce103    10.001   .     S
B72     Ce104    10.001   .     S
Ti73     Ti74    9.999   .     S
Ti73     He76    9.999   .     S
Ti74     He76    10.0   .     S
B75     He76    10.0   .     S
B75     Ce97    10.001   .     S
B75     Ce98    10.001   .     S
Li77     S83    9.999   .     S
Li77     V84    10.0   .     S
Li78     S79    9.999   .     S
Li78     V80    10.0   .     S
S79     V80    9.999   .     S
V80     H82    10.0   .     S
H81     V84    10.0   .     S
H81     H82    10.0   .     S
H81     Be99    10.001   .     S
H82     Be100    10.001   .     S
S83     V84    9.999   .     S
Li85     S87    9.999   1_455     S
Li85     V88    10.0   1_455     S
Li86     S91    9.999   1_455     S
Li86     V92    10.0   1_455     S
S87     Li85    9.999   1_655     S
S87     V88    9.999   .     S
V88     Li85    10.0   1_655     S
V88     H89    10.0   .     S
H89     H90    10.0   .     S
H89     Be96    10.001   .     S
H90     V92    10.0   .     S
H90     Be95    10.001   .     S
S91     Li86    9.999   1_655     S
S91     V92    9.999   .     S
V92     Li86    10.0   1_655     S
Ce93     Ce94    9.999   .     S
Ce93     Be95    10.0   .     S
Ce94     Be101    10.0   .     S
Be95     Be96    10.0   .     S
Be96     Ce98    10.0   .     S
Ce97     Ce98    9.999   .     S
Ce97     Be99    10.0   .     S
Be99     Be100    10.0   .     S
Be100     Ce103    10.0   .     S
Be101     Be102    10.0   .     S
Be101     H110    10.001   .     S
Be102     Ce104    10.0   .     S
Be102     H109    10.001   .     S
Ce103     Ce104    9.999   .     S
Li105     S111    9.999   1_565     S
Li105     V112    10.0   1_565     S
Li106     S107    9.999   1_565     S
Li106     V108    10.0   1_565     S
S107     Li106    9.999   1_545     S
S107     V108    9.999   .     S
V108     Li106    10.0   1_545     S
V108     H110    10.0   .     S
H109     V112    10.0   .     S
H109     H110    10.0   .     S
S111     Li105    9.999   1_545     S
S111     V112    9.999   .     S
V112     Li105    10.0   1_545     S
Er113     Er114    9.998   .     S
Er113     Er116    10.0   .     S
Er113     S167    10.001   .     S
Er114     Er115    10.0   .     S
Er115     Er116    9.998   .     S
Er116     S147    10.001   .     S
Er117     Er118    9.998   .     S
Er117     Er119    10.0   .     S
Er117     S163    10.001   .     S
Er118     Er120    10.0   .     S
Er119     Er120    9.998   .     S
Er119     S139    10.001   .     S
Ti121     Ti122    9.999   .     S
Ti121     He123    10.0   .     S
Ti121     Li209    10.0   .     S
Ti122     He123    10.0   .     S
Ti122     Li189    10.0   .     S
He123     B124    10.0   .     S
B124     Ce155    10.001   1_554     S
B124     Ce156    10.001   1_554     S
Ti125     Ti126    9.999   .     S
Ti125     He128    10.0   .     S
Ti125     Li210    10.0   .     S
Ti126     He128    9.999   .     S
Ti126     Li181    10.0   .     S
B127     He128    10.0   .     S
B127     Ce160    10.001   1_554     S
B127     Ce159    10.001   1_554     S
Ti129     Ti130    9.999   .     S
Ti129     He131    10.0   .     S
Ti129     Li190    10.0   .     S
Ti130     He131    10.0   .     S
Ti130     Li182    10.0   .     S
He131     B132    10.0   .     S
B132     Ce151    10.001   1_554     S
B132     Ce152    10.001   1_554     S
Li133     Ti177    10.0   .     S
Li133     S139    9.999   .     S
Li133     V140    10.0   .     S
Li134     Ti173    10.0   .     S
Li134     S135    9.999   .     S
Li134     V136    10.0   .     S
S135     V136    9.999   .     S
V136     H138    10.0   .     S
H137     V140    10.0   .     S
H137     H138    10.0   .     S
H137     Be153    10.001   .     S
H138     Be154    10.001   .     S
S139     V140    9.999   .     S
Li141     Ti169    10.0   .     S
Li141     S143    9.999   1_655     S
Li141     V144    10.0   1_655     S
Li142     Ti178    10.0   .     S
Li142     S147    9.999   1_655     S
Li142     V148    10.0   1_655     S
S143     Li141    9.999   1_455     S
S143     V144    9.999   .     S
V144     Li141    10.0   1_455     S
V144     H146    10.0   .     S
H145     V148    10.0   .     S
H145     H146    10.0   .     S
H145     Be149    10.001   .     S
H146     Be150    10.001   .     S
S147     Li142    9.999   1_455     S
S147     V148    9.999   .     S
V148     Li142    10.0   1_455     S
Be149     Ce155    10.0   .     S
Be149     Be150    10.0   .     S
Be150     Ce152    10.0   .     S
Ce151     Ce152    9.999   .     S
Ce151     B132    10.001   1_556     S
Ce151     Be154    10.0   .     S
Ce152     B132    10.001   1_556     S
Be153     Ce160    10.0   .     S
Be153     Be154    10.0   .     S
Ce155     Ce156    9.999   .     S
Ce155     B124    10.001   1_556     S
Ce156     B124    10.001   1_556     S
Ce156     Be157    10.0   .     S
Be157     Be158    10.0   .     S
Be157     H166    10.001   .     S
Be158     Ce159    10.0   .     S
Be158     H165    10.001   .     S
Ce159     Ce160    9.999   .     S
Ce159     B127    10.001   1_556     S
Ce160     B127    10.001   1_556     S
Li161     Ti170    10.0   .     S
Li161     S163    9.999   1_545     S
Li161     V164    10.0   1_545     S
Li162     Ti174    10.0   .     S
Li162     S167    9.999   1_545     S
Li162     V168    10.0   1_545     S
S163     Li161    9.999   1_565     S
S163     V164    9.999   .     S
V164     Li161    10.0   1_565     S
V164     H165    10.0   .     S
H165     H166    10.0   .     S
H166     V168    10.0   .     S
S167     Li162    9.999   1_565     S
S167     V168    9.999   .     S
V168     Li162    10.0   1_565     S
Ti169     Ti170    9.999   .     S
Ti169     He171    10.0   .     S
Ti170     He171    10.0   .     S
He171     B172    10.0   .     S
B172     Ce198    10.001   1_556     S
B172     Ce197    10.001   1_556     S
Ti173     Ti174    9.999   .     S
Ti173     He175    10.0   .     S
Ti174     He175    10.0   .     S
He175     B176    10.0   .     S
B176     Ce207    10.001   1_556     S
B176     Ce208    10.001   1_556     S
Ti177     Ti178    9.999   .     S
Ti177     He180    9.999   .     S
Ti178     He180    10.0   .     S
B179     He180    10.0   .     S
B179     Ce201    10.001   1_556     S
B179     Ce202    10.001   1_556     S
Li181     S183    9.999   .     S
Li181     V184    10.0   .     S
Li182     S187    9.999   .     S
Li182     V188    10.0   .     S
S183     V184    9.999   .     S
V184     H185    10.0   .     S
H185     H186    10.0   .     S
H185     Be203    10.001   .     S
H186     V188    10.0   .     S
H186     Be204    10.001   .     S
S187     V188    9.999   .     S
Li189     S195    9.999   1_455     S
Li189     V196    10.0   1_455     S
Li190     S191    9.999   1_455     S
Li190     V192    10.0   1_455     S
S191     Li190    9.999   1_655     S
S191     V192    9.999   .     S
V192     Li190    10.0   1_655     S
V192     H194    10.0   .     S
H193     V196    10.0   .     S
H193     H194    10.0   .     S
H193     Be200    10.001   .     S
H194     Be199    10.001   .     S
S195     Li189    9.999   1_655     S
S195     V196    9.999   .     S
V196     Li189    10.0   1_655     S
Ce197     Ce198    9.999   .     S
Ce197     B172    10.001   1_554     S
Ce197     Be199    10.0   .     S
Ce198     B172    10.001   1_554     S
Ce198     Be205    10.0   .     S
Be199     Be200    10.0   .     S
Be200     Ce202    10.0   .     S
Ce201     Ce202    9.999   .     S
Ce201     B179    10.001   1_554     S
Ce201     Be203    10.0   .     S
Ce202     B179    10.001   1_554     S
Be203     Be204    10.0   .     S
Be204     Ce207    10.0   .     S
Be205     Be206    10.0   .     S
Be205     H213    10.001   .     S
Be206     Ce208    10.0   .     S
Be206     H214    10.001   .     S
Ce207     Ce208    9.999   .     S
Ce207     B176    10.001   1_554     S
Ce208     B176    10.001   1_554     S
Li209     S215    9.999   1_565     S
Li209     V216    10.0   1_565     S
Li210     S211    9.999   1_565     S
Li210     V212    10.0   1_565     S
S211     Li210    9.999   1_545     S
S211     V212    9.999   .     S
V212     Li210    10.0   1_545     S
V212     H213    10.0   .     S
H213     H214    10.0   .     S
H214     V216    10.0   .     S
S215     Li209    9.999   1_545     S
S215     V216    9.999   .     S
V216     Li209    10.0   1_545     S
