data_hbk
_audit_creation_date              2020-02-04
_audit_creation_method            'Pymatgen'
_symmetry_space_group_name_H-M    'P1'
_symmetry_Int_Tables_number       1
loop_
_symmetry_equiv_pos_as_xyz
  x,y,z
_cell_length_a                    62.7987
_cell_length_b                    62.7987
_cell_length_c                    42.4923
_cell_angle_alpha                 90.0
_cell_angle_beta                 90.0
_cell_angle_gamma                 90.0
loop_
_atom_site_label
_atom_site_type_symbol
_atom_site_fract_x
_atom_site_fract_y
_atom_site_fract_z
Ti1     Ti     0.2549   0.1417   0.2035
Ti2     Ti     0.1417   0.2549   0.2035
Ti3     Ti     0.1417   0.2549   0.7965
Ti4     Ti     0.2549   0.1417   0.7965
Er5     Er     0.1992   0.1992   0.0
Ti6     Ti     0.2451   0.3583   0.7035
Ti7     Ti     0.3583   0.2451   0.2965
Ti8     Ti     0.2451   0.3583   0.2965
Ti9     Ti     0.3583   0.2451   0.7035
Er10     Er     0.3008   0.3008   0.5
Ti11     Ti     0.2549   0.8583   0.2035
Ti12     Ti     0.1417   0.7451   0.2035
Ti13     Ti     0.2549   0.8583   0.7965
Ti14     Ti     0.1417   0.7451   0.7965
Er15     Er     0.1992   0.8008   0.0
Ti16     Ti     0.2451   0.6417   0.2965
Ti17     Ti     0.2451   0.6417   0.7035
Ti18     Ti     0.3583   0.7549   0.7035
Ti19     Ti     0.3583   0.7549   0.2965
Er20     Er     0.3008   0.6992   0.5
V21     V     0.3026   0.5   0.7691
V22     V     0.5   0.3026   0.7691
Ce23     Ce     0.4024   0.4024   0.8823
V24     V     0.6974   0.5   0.7691
Ce25     Ce     0.5976   0.4024   0.8823
V26     V     0.5   0.6974   0.7691
Ce27     Ce     0.4024   0.5976   0.8823
Ce28     Ce     0.5976   0.5976   0.8823
V29     V     0.5   0.6974   0.2309
Ce30     Ce     0.4024   0.5976   0.1177
V31     V     0.6974   0.5   0.2309
Ce32     Ce     0.5976   0.4024   0.1177
Ce33     Ce     0.5976   0.5976   0.1177
V34     V     0.3026   0.5   0.2309
V35     V     0.5   0.3026   0.2309
Ce36     Ce     0.4024   0.4024   0.1177
Ti37     Ti     0.8583   0.2549   0.2035
Ti38     Ti     0.7451   0.1417   0.2035
Ti39     Ti     0.8583   0.2549   0.7965
Ti40     Ti     0.7451   0.1417   0.7965
Er41     Er     0.8008   0.1992   0.0
Ti42     Ti     0.6417   0.2451   0.7035
Ti43     Ti     0.6417   0.2451   0.2965
Ti44     Ti     0.7549   0.3583   0.2965
Ti45     Ti     0.7549   0.3583   0.7035
Er46     Er     0.6992   0.3008   0.5
V47     V     0.0   0.1974   0.7309
V48     V     0.8026   0.0   0.7309
Ce49     Ce     0.9024   0.0976   0.6177
V50     V     0.0   0.8026   0.7309
Ce51     Ce     0.0976   0.9024   0.6177
V52     V     0.1974   0.0   0.7309
Ce53     Ce     0.0976   0.0976   0.6177
Ce54     Ce     0.9024   0.9024   0.6177
V55     V     0.1974   0.0   0.2691
V56     V     0.0   0.8026   0.2691
Ce57     Ce     0.0976   0.9024   0.3823
V58     V     0.8026   0.0   0.2691
Ce59     Ce     0.9024   0.0976   0.3823
V60     V     0.0   0.1974   0.2691
Ce61     Ce     0.0976   0.0976   0.3823
Ce62     Ce     0.9024   0.9024   0.3823
Ti63     Ti     0.7451   0.8583   0.2035
Ti64     Ti     0.8583   0.7451   0.2035
Ti65     Ti     0.8583   0.7451   0.7965
Ti66     Ti     0.7451   0.8583   0.7965
Er67     Er     0.8008   0.8008   0.0
Ti68     Ti     0.7549   0.6417   0.7035
Ti69     Ti     0.6417   0.7549   0.2965
Ti70     Ti     0.6417   0.7549   0.7035
Ti71     Ti     0.7549   0.6417   0.2965
Er72     Er     0.6992   0.6992   0.5
loop_
_geom_bond_atom_site_label_1
_geom_bond_atom_site_label_2
_geom_bond_distance
_geom_bond_site_symmetry_2
_ccdc_geom_bond_type
Ti1     V55    10.0   .     S
Ti1     Er5    10.0   .     S
Ti1     Ti7    10.0   .     S
Ti2     V60    10.0   .     S
Ti2     Er5    10.0   .     S
Ti2     Ti8    10.0   .     S
Ti3     V47    10.0   .     S
Ti3     Er5    10.0   1_556     S
Ti3     Ti6    10.0   .     S
Ti4     V52    10.0   .     S
Ti4     Er5    10.0   1_556     S
Ti4     Ti9    10.0   .     S
Er5     Ti3    10.0   1_554     S
Er5     Ti4    10.0   1_554     S
Ti6     V21    10.0   .     S
Ti6     Er10    10.0   .     S
Ti7     V35    10.0   .     S
Ti7     Er10    10.0   .     S
Ti8     V34    10.0   .     S
Ti8     Er10    10.0   .     S
Ti9     V22    10.0   .     S
Ti9     Er10    10.0   .     S
Ti11     V55    10.0   1_565     S
Ti11     Er15    10.0   .     S
Ti11     Ti19    10.0   .     S
Ti12     V56    10.0   .     S
Ti12     Er15    10.0   .     S
Ti12     Ti16    10.0   .     S
Ti13     V52    10.0   1_565     S
Ti13     Er15    10.0   1_556     S
Ti13     Ti18    10.0   .     S
Ti14     V50    10.0   .     S
Ti14     Er15    10.0   1_556     S
Ti14     Ti17    10.0   .     S
Er15     Ti13    10.0   1_554     S
Er15     Ti14    10.0   1_554     S
Ti16     V34    10.0   .     S
Ti16     Er20    10.0   .     S
Ti17     V21    10.0   .     S
Ti17     Er20    10.0   .     S
Ti18     V26    10.0   .     S
Ti18     Er20    10.0   .     S
Ti19     V29    10.0   .     S
Ti19     Er20    10.0   .     S
V21     Ce23    10.0   .     S
V21     Ce27    10.0   .     S
V22     Ce23    10.0   .     S
V22     Ce25    10.0   .     S
V22     Ti42    10.0   .     S
Ce23     Ce36    10.0   1_556     S
V24     Ce28    10.0   .     S
V24     Ce25    10.0   .     S
V24     Ti45    10.0   .     S
V24     Ti68    10.0   .     S
Ce25     Ce32    10.0   1_556     S
V26     Ce27    10.0   .     S
V26     Ce28    10.0   .     S
V26     Ti70    10.0   .     S
Ce27     Ce30    10.0   1_556     S
Ce28     Ce33    10.0   1_556     S
V29     Ce33    10.0   .     S
V29     Ce30    10.0   .     S
V29     Ti69    10.0   .     S
Ce30     V34    10.0   .     S
Ce30     Ce27    10.0   1_554     S
V31     Ce33    10.0   .     S
V31     Ce32    10.0   .     S
V31     Ti44    10.0   .     S
V31     Ti71    10.0   .     S
Ce32     V35    10.0   .     S
Ce32     Ce25    10.0   1_554     S
Ce33     Ce28    10.0   1_554     S
V34     Ce36    10.0   .     S
V35     Ce36    10.0   .     S
V35     Ti43    10.0   .     S
Ce36     Ce23    10.0   1_554     S
Ti37     V60    10.0   1_655     S
Ti37     Er41    10.0   .     S
Ti37     Ti44    10.0   .     S
Ti38     V58    10.0   .     S
Ti38     Er41    10.0   .     S
Ti38     Ti43    10.0   .     S
Ti39     V47    10.0   1_655     S
Ti39     Er41    10.0   1_556     S
Ti39     Ti45    10.0   .     S
Ti40     V48    10.0   .     S
Ti40     Er41    10.0   1_556     S
Ti40     Ti42    10.0   .     S
Er41     Ti39    10.0   1_554     S
Er41     Ti40    10.0   1_554     S
Ti42     Er46    10.0   .     S
Ti43     Er46    10.0   .     S
Ti44     Er46    10.0   .     S
Ti45     Er46    10.0   .     S
V47     Ti39    10.0   1_455     S
V47     Ce49    10.0   1_455     S
V47     Ce53    10.0   .     S
V48     Ce49    10.0   .     S
V48     Ce54    10.0   1_545     S
V48     Ti66    10.0   1_545     S
Ce49     V47    10.0   1_655     S
Ce49     Ce59    10.0   .     S
V50     Ce51    10.0   .     S
V50     Ce54    10.0   1_455     S
V50     Ti65    10.0   1_455     S
Ce51     V52    10.0   1_565     S
Ce51     Ce57    10.0   .     S
V52     Ti13    10.0   1_545     S
V52     Ce53    10.0   .     S
V52     Ce51    10.0   1_545     S
Ce53     Ce61    10.0   .     S
Ce54     V48    10.0   1_565     S
Ce54     V50    10.0   1_655     S
Ce54     Ce62    10.0   .     S
V55     Ti11    10.0   1_545     S
V55     Ce57    10.0   1_545     S
V55     Ce61    10.0   .     S
V56     Ce57    10.0   .     S
V56     Ce62    10.0   1_455     S
V56     Ti64    10.0   1_455     S
Ce57     V55    10.0   1_565     S
V58     Ce59    10.0   .     S
V58     Ce62    10.0   1_545     S
V58     Ti63    10.0   1_545     S
Ce59     V60    10.0   1_655     S
V60     Ti37    10.0   1_455     S
V60     Ce61    10.0   .     S
V60     Ce59    10.0   1_455     S
Ce62     V56    10.0   1_655     S
Ce62     V58    10.0   1_565     S
Ti63     V58    10.0   1_565     S
Ti63     Er67    10.0   .     S
Ti63     Ti69    10.0   .     S
Ti64     V56    10.0   1_655     S
Ti64     Er67    10.0   .     S
Ti64     Ti71    10.0   .     S
Ti65     V50    10.0   1_655     S
Ti65     Er67    10.0   1_556     S
Ti65     Ti68    10.0   .     S
Ti66     V48    10.0   1_565     S
Ti66     Er67    10.0   1_556     S
Ti66     Ti70    10.0   .     S
Er67     Ti65    10.0   1_554     S
Er67     Ti66    10.0   1_554     S
Ti68     Er72    10.0   .     S
Ti69     Er72    10.0   .     S
Ti70     Er72    10.0   .     S
Ti71     Er72    10.0   .     S
