data_hbka
_audit_creation_date              2020-02-04
_audit_creation_method            'Pymatgen'
_symmetry_space_group_name_H-M    'P1'
_symmetry_Int_Tables_number       1
loop_
_symmetry_equiv_pos_as_xyz
  x,y,z
_cell_length_a                    140.6147
_cell_length_b                    140.6147
_cell_length_c                    94.527
_cell_angle_alpha                 90.0
_cell_angle_beta                 90.0
_cell_angle_gamma                 90.0
loop_
_atom_site_label
_atom_site_type_symbol
_atom_site_fract_x
_atom_site_fract_y
_atom_site_fract_z
Ce1     Ce     0.5356   0.7316   0.2424
Ce2     Ce     0.4644   0.7316   0.2424
Ce3     Ce     0.7316   0.5356   0.2424
Ce4     Ce     0.7316   0.4644   0.2424
Ce5     Ce     0.7316   0.5356   0.7575
Ce6     Ce     0.7316   0.4644   0.7575
Ce7     Ce     0.5356   0.7316   0.7575
Ce8     Ce     0.4644   0.7316   0.7575
Ce9     Ce     0.2684   0.5356   0.2424
Ce10     Ce     0.2684   0.4644   0.2424
Ce11     Ce     0.5356   0.2684   0.7575
Ce12     Ce     0.4644   0.2684   0.7575
Li13     Li     0.3944   0.3944   0.5529
Li14     Li     0.3944   0.3944   0.4471
V15     V     0.5803   0.3694   0.6445
Ti16     Ti     0.5356   0.3261   0.6956
V17     V     0.4197   0.3694   0.6445
Ti18     Ti     0.4644   0.3261   0.6956
V19     V     0.3694   0.5803   0.3555
Ti20     Ti     0.3261   0.5356   0.3044
V21     V     0.3694   0.4197   0.3555
Ti22     Ti     0.3261   0.4644   0.3044
V23     V     0.5803   0.3694   0.3555
Ti24     Ti     0.5356   0.3261   0.3044
V25     V     0.4197   0.3694   0.3555
Ti26     Ti     0.4644   0.3261   0.3044
V27     V     0.3694   0.5803   0.6445
Ti28     Ti     0.3261   0.5356   0.6956
V29     V     0.3694   0.4197   0.6445
Ti30     Ti     0.3261   0.4644   0.6956
Li31     Li     0.6056   0.3944   0.5529
Li32     Li     0.6056   0.3944   0.4471
V33     V     0.6306   0.5803   0.6445
Ti34     Ti     0.6739   0.5356   0.6956
V35     V     0.6306   0.4197   0.6445
Ti36     Ti     0.6739   0.4644   0.6956
V37     V     0.6306   0.5803   0.3555
Ti38     Ti     0.6739   0.5356   0.3044
V39     V     0.6306   0.4197   0.3555
Ti40     Ti     0.6739   0.4644   0.3044
Li41     Li     0.6056   0.6056   0.5529
Li42     Li     0.6056   0.6056   0.4471
V43     V     0.5803   0.6306   0.6445
Ti44     Ti     0.5356   0.6739   0.6956
V45     V     0.4197   0.6306   0.6445
Ti46     Ti     0.4644   0.6739   0.6956
Li47     Li     0.3944   0.6056   0.5529
Li48     Li     0.3944   0.6056   0.4471
V49     V     0.5803   0.6306   0.3555
Ti50     Ti     0.5356   0.6739   0.3044
V51     V     0.4197   0.6306   0.3555
Ti52     Ti     0.4644   0.6739   0.3044
Ce53     Ce     0.2684   0.5356   0.7575
Ce54     Ce     0.2684   0.4644   0.7575
Ce55     Ce     0.5356   0.2684   0.2424
Ce56     Ce     0.4644   0.2684   0.2424
Er57     Er     0.2434   0.4002   0.7837
He58     He     0.2043   0.3414   0.7722
S59     S     0.2466   0.3487   0.8565
Er60     Er     0.0998   0.2566   0.7163
He61     He     0.1586   0.2957   0.7278
S62     S     0.1513   0.2534   0.6435
Er63     Er     0.4002   0.2434   0.7837
He64     He     0.3414   0.2043   0.7722
S65     S     0.3487   0.2466   0.8565
Er66     Er     0.2566   0.0998   0.7163
He67     He     0.2957   0.1586   0.7278
S68     S     0.2534   0.1513   0.6435
H69     H     0.2263   0.176   0.5529
H70     H     0.2263   0.176   0.4471
H71     H     0.176   0.2263   0.4471
H72     H     0.176   0.2263   0.5529
Er73     Er     0.4002   0.2434   0.2163
He74     He     0.3414   0.2043   0.2278
S75     S     0.3487   0.2466   0.1435
Er76     Er     0.2566   0.0998   0.2837
He77     He     0.2957   0.1586   0.2722
S78     S     0.2534   0.1513   0.3565
Er79     Er     0.2434   0.4002   0.2163
He80     He     0.2043   0.3414   0.2278
S81     S     0.2466   0.3487   0.1435
Er82     Er     0.0998   0.2566   0.2837
He83     He     0.1586   0.2957   0.2722
S84     S     0.1513   0.2534   0.3565
H85     H     0.324   0.2737   0.9471
H86     H     0.324   0.2737   0.0529
H87     H     0.2737   0.324   0.9471
H88     H     0.2737   0.324   0.0529
H89     H     0.676   0.7263   0.9471
H90     H     0.676   0.7263   0.0529
H91     H     0.7263   0.676   0.9471
H92     H     0.7263   0.676   0.0529
Er93     Er     0.5998   0.7566   0.2163
He94     He     0.6586   0.7957   0.2278
S95     S     0.6513   0.7534   0.1435
Er96     Er     0.7434   0.9002   0.2837
He97     He     0.7043   0.8414   0.2722
S98     S     0.7466   0.8487   0.3565
Er99     Er     0.7566   0.5998   0.2163
He100     He     0.7957   0.6586   0.2278
S101     S     0.7534   0.6513   0.1435
Er102     Er     0.9002   0.7434   0.2837
He103     He     0.8414   0.7043   0.2722
S104     S     0.8487   0.7466   0.3565
Er105     Er     0.9002   0.7434   0.7163
He106     He     0.8414   0.7043   0.7278
S107     S     0.8487   0.7466   0.6435
Er108     Er     0.7566   0.5998   0.7837
He109     He     0.7957   0.6586   0.7722
S110     S     0.7534   0.6513   0.8565
Er111     Er     0.7434   0.9002   0.7163
He112     He     0.7043   0.8414   0.7278
S113     S     0.7466   0.8487   0.6435
Er114     Er     0.5998   0.7566   0.7837
He115     He     0.6586   0.7957   0.7722
S116     S     0.6513   0.7534   0.8565
H117     H     0.7737   0.824   0.5529
H118     H     0.7737   0.824   0.4471
H119     H     0.824   0.7737   0.4471
H120     H     0.824   0.7737   0.5529
Er121     Er     0.2434   0.5998   0.2163
He122     He     0.2043   0.6586   0.2278
S123     S     0.2466   0.6513   0.1435
Er124     Er     0.0998   0.7434   0.2837
He125     He     0.1586   0.7043   0.2722
S126     S     0.1513   0.7466   0.3565
H127     H     0.324   0.7263   0.9471
H128     H     0.324   0.7263   0.0529
H129     H     0.2737   0.676   0.9471
H130     H     0.2737   0.676   0.0529
Er131     Er     0.4002   0.7566   0.2163
He132     He     0.3414   0.7957   0.2278
S133     S     0.3487   0.7534   0.1435
Er134     Er     0.2566   0.9002   0.2837
He135     He     0.2957   0.8414   0.2722
S136     S     0.2534   0.8487   0.3565
Er137     Er     0.2434   0.5998   0.7837
He138     He     0.2043   0.6586   0.7722
S139     S     0.2466   0.6513   0.8565
Er140     Er     0.0998   0.7434   0.7163
He141     He     0.1586   0.7043   0.7278
S142     S     0.1513   0.7466   0.6435
Er143     Er     0.2566   0.9002   0.7163
He144     He     0.2957   0.8414   0.7278
S145     S     0.2534   0.8487   0.6435
Er146     Er     0.4002   0.7566   0.7837
He147     He     0.3414   0.7957   0.7722
S148     S     0.3487   0.7534   0.8565
H149     H     0.176   0.7737   0.5529
H150     H     0.176   0.7737   0.4471
H151     H     0.2263   0.824   0.5529
H152     H     0.2263   0.824   0.4471
Ce153     Ce     0.0356   0.7684   0.2576
Ce154     Ce     0.9644   0.7684   0.2576
Ce155     Ce     0.7684   0.0356   0.2576
Ce156     Ce     0.7684   0.9644   0.2576
Ce157     Ce     0.0356   0.2316   0.7425
Ce158     Ce     0.9644   0.2316   0.7425
Ce159     Ce     0.2316   0.0356   0.7425
Ce160     Ce     0.2316   0.9644   0.7425
Ce161     Ce     0.7684   0.0356   0.7425
Ce162     Ce     0.7684   0.9644   0.7425
Ce163     Ce     0.0356   0.7684   0.7425
Ce164     Ce     0.9644   0.7684   0.7425
Ce165     Ce     0.2316   0.0356   0.2576
Ce166     Ce     0.2316   0.9644   0.2576
V167     V     0.0803   0.8694   0.8555
Ti168     Ti     0.0356   0.8261   0.8044
V169     V     0.9197   0.8694   0.8555
Ti170     Ti     0.9644   0.8261   0.8044
Li171     Li     0.1056   0.8944   0.9471
Li172     Li     0.1056   0.8944   0.0529
V173     V     0.0803   0.8694   0.1445
Ti174     Ti     0.0356   0.8261   0.1956
V175     V     0.9197   0.8694   0.1445
Ti176     Ti     0.9644   0.8261   0.1956
Li177     Li     0.8944   0.8944   0.9471
Li178     Li     0.8944   0.8944   0.0529
V179     V     0.8694   0.0803   0.8555
Ti180     Ti     0.8261   0.0356   0.8044
V181     V     0.8694   0.9197   0.8555
Ti182     Ti     0.8261   0.9644   0.8044
Li183     Li     0.8944   0.1056   0.9471
Li184     Li     0.8944   0.1056   0.0529
V185     V     0.8694   0.0803   0.1445
Ti186     Ti     0.8261   0.0356   0.1956
V187     V     0.8694   0.9197   0.1445
Ti188     Ti     0.8261   0.9644   0.1956
V189     V     0.1306   0.0803   0.1445
Ti190     Ti     0.1739   0.0356   0.1956
V191     V     0.1306   0.9197   0.1445
Ti192     Ti     0.1739   0.9644   0.1956
V193     V     0.0803   0.1306   0.8555
Ti194     Ti     0.0356   0.1739   0.8044
V195     V     0.9197   0.1306   0.8555
Ti196     Ti     0.9644   0.1739   0.8044
V197     V     0.1306   0.0803   0.8555
Ti198     Ti     0.1739   0.0356   0.8044
V199     V     0.1306   0.9197   0.8555
Ti200     Ti     0.1739   0.9644   0.8044
Li201     Li     0.1056   0.1056   0.9471
Li202     Li     0.1056   0.1056   0.0529
V203     V     0.0803   0.1306   0.1445
Ti204     Ti     0.0356   0.1739   0.1956
V205     V     0.9197   0.1306   0.1445
Ti206     Ti     0.9644   0.1739   0.1956
Ce207     Ce     0.0356   0.2316   0.2576
Ce208     Ce     0.9644   0.2316   0.2576
Er209     Er     0.5998   0.2434   0.2163
He210     He     0.6586   0.2043   0.2278
S211     S     0.6513   0.2466   0.1435
Er212     Er     0.7434   0.0998   0.2837
He213     He     0.7043   0.1586   0.2722
S214     S     0.7466   0.1513   0.3565
H215     H     0.7263   0.324   0.9471
H216     H     0.7263   0.324   0.0529
H217     H     0.676   0.2737   0.9471
H218     H     0.676   0.2737   0.0529
Er219     Er     0.7566   0.4002   0.2163
He220     He     0.7957   0.3414   0.2278
S221     S     0.7534   0.3487   0.1435
Er222     Er     0.9002   0.2566   0.2837
He223     He     0.8414   0.2957   0.2722
S224     S     0.8487   0.2534   0.3565
Er225     Er     0.5998   0.2434   0.7837
He226     He     0.6586   0.2043   0.7722
S227     S     0.6513   0.2466   0.8565
Er228     Er     0.7434   0.0998   0.7163
He229     He     0.7043   0.1586   0.7278
S230     S     0.7466   0.1513   0.6435
Er231     Er     0.9002   0.2566   0.7163
He232     He     0.8414   0.2957   0.7278
S233     S     0.8487   0.2534   0.6435
Er234     Er     0.7566   0.4002   0.7837
He235     He     0.7957   0.3414   0.7722
S236     S     0.7534   0.3487   0.8565
H237     H     0.7737   0.176   0.4471
H238     H     0.7737   0.176   0.5529
H239     H     0.824   0.2263   0.5529
H240     H     0.824   0.2263   0.4471
loop_
_geom_bond_atom_site_label_1
_geom_bond_atom_site_label_2
_geom_bond_distance
_geom_bond_site_symmetry_2
_ccdc_geom_bond_type
Ce1     Er93    10.0   .     S
Ce1     Ce2    10.001   .     S
Ce1     Ti50    10.001   .     S
Ce2     Er131    10.0   .     S
Ce2     Ti52    10.001   .     S
Ce3     Er99    10.0   .     S
Ce3     Ce4    10.001   .     S
Ce3     Ti38    10.001   .     S
Ce4     Er219    10.0   .     S
Ce4     Ti40    10.001   .     S
Ce5     Er108    10.0   .     S
Ce5     Ce6    10.001   .     S
Ce5     Ti34    10.001   .     S
Ce6     Er234    10.0   .     S
Ce6     Ti36    10.001   .     S
Ce7     Er114    10.0   .     S
Ce7     Ce8    10.001   .     S
Ce7     Ti44    10.001   .     S
Ce8     Er146    10.0   .     S
Ce8     Ti46    10.001   .     S
Ce9     Er121    10.0   .     S
Ce9     Ce10    10.001   .     S
Ce9     Ti20    10.001   .     S
Ce10     Er79    10.0   .     S
Ce10     Ti22    10.001   .     S
Ce11     Er225    10.0   .     S
Ce11     Ce12    10.001   .     S
Ce11     Ti16    10.001   .     S
Ce12     Er63    10.0   .     S
Ce12     Ti18    10.001   .     S
Li13     Li14    9.999   .     S
Li13     V17    10.0   .     S
Li13     V29    10.0   .     S
Li14     V21    10.0   .     S
Li14     V25    10.0   .     S
V15     Ti16    9.999   .     S
V15     Li31    10.0   .     S
V15     V35    10.001   .     S
Ti16     Ti18    10.001   .     S
V17     V29    10.001   .     S
V17     Ti18    9.999   .     S
V19     Ti20    9.999   .     S
V19     Li48    10.0   .     S
V19     V51    10.001   .     S
Ti20     Ti22    10.001   .     S
V21     V25    10.001   .     S
V21     Ti22    9.999   .     S
V23     Ti24    9.999   .     S
V23     Li32    10.0   .     S
V23     V39    10.001   .     S
Ti24     Ti26    10.001   .     S
Ti24     Ce55    10.001   .     S
V25     Ti26    9.999   .     S
Ti26     Ce56    10.001   .     S
V27     Ti28    9.999   .     S
V27     Li47    10.0   .     S
V27     V45    10.001   .     S
Ti28     Ti30    10.001   .     S
Ti28     Ce53    10.001   .     S
V29     Ti30    9.999   .     S
Ti30     Ce54    10.001   .     S
Li31     Li32    9.999   .     S
Li31     V35    10.0   .     S
Li32     V39    10.0   .     S
V33     Ti34    9.999   .     S
V33     Li41    10.0   .     S
V33     V43    10.001   .     S
Ti34     Ti36    10.001   .     S
V35     Ti36    9.999   .     S
V37     Ti38    9.999   .     S
V37     Li42    10.0   .     S
V37     V49    10.001   .     S
Ti38     Ti40    10.001   .     S
V39     Ti40    9.999   .     S
Li41     Li42    9.999   .     S
Li41     V43    10.0   .     S
Li42     V49    10.0   .     S
V43     Ti44    9.999   .     S
Ti44     Ti46    10.001   .     S
V45     Ti46    9.999   .     S
V45     Li47    10.0   .     S
Li47     Li48    9.999   .     S
Li48     V51    10.0   .     S
V49     Ti50    9.999   .     S
Ti50     Ti52    10.001   .     S
V51     Ti52    9.999   .     S
Ce53     Er137    10.0   .     S
Ce53     Ce54    10.001   .     S
Ce54     Er57    10.0   .     S
Ce55     Er209    10.0   .     S
Ce55     Ce56    10.001   .     S
Ce56     Er73    10.0   .     S
Er57     He58    10.0   .     S
Er57     S59    10.0   .     S
He58     S59    10.0   .     S
He58     He61    10.0   .     S
S59     H87    10.0   .     S
Er60     He61    10.0   .     S
Er60     S62    10.0   .     S
Er60     Ce157    10.0   .     S
He61     S62    10.0   .     S
S62     H72    10.0   .     S
Er63     He64    10.0   .     S
Er63     S65    10.0   .     S
He64     S65    10.0   .     S
He64     He67    10.0   .     S
S65     H85    10.0   .     S
Er66     He67    10.0   .     S
Er66     S68    10.0   .     S
Er66     Ce159    10.0   .     S
He67     S68    10.0   .     S
S68     H69    10.0   .     S
H69     H70    9.999   .     S
H69     H72    10.001   .     S
H70     H71    10.001   .     S
H70     S78    10.0   .     S
H71     H72    9.999   .     S
H71     S84    10.0   .     S
Er73     He74    10.0   .     S
Er73     S75    10.0   .     S
He74     S75    10.0   .     S
He74     He77    10.0   .     S
S75     H86    10.0   .     S
Er76     He77    10.0   .     S
Er76     S78    10.0   .     S
Er76     Ce165    10.0   .     S
He77     S78    10.0   .     S
Er79     He80    10.0   .     S
Er79     S81    10.0   .     S
He80     S81    10.0   .     S
He80     He83    10.0   .     S
S81     H88    10.0   .     S
Er82     He83    10.0   .     S
Er82     S84    10.0   .     S
Er82     Ce207    10.0   .     S
He83     S84    10.0   .     S
H85     H86    9.999   1_556     S
H85     H87    10.001   .     S
H86     H85    9.999   1_554     S
H86     H88    10.001   .     S
H87     H88    9.999   1_556     S
H88     H87    9.999   1_554     S
H89     H90    9.999   1_556     S
H89     H91    10.001   .     S
H89     S116    10.0   .     S
H90     H89    9.999   1_554     S
H90     H92    10.001   .     S
H90     S95    10.0   .     S
H91     H92    9.999   1_556     S
H91     S110    10.0   .     S
H92     H91    9.999   1_554     S
H92     S101    10.0   .     S
Er93     He94    10.0   .     S
Er93     S95    10.0   .     S
He94     S95    10.0   .     S
He94     He97    10.0   .     S
Er96     He97    10.0   .     S
Er96     S98    10.0   .     S
Er96     Ce156    10.0   .     S
He97     S98    10.0   .     S
S98     H118    10.0   .     S
Er99     He100    10.0   .     S
Er99     S101    10.0   .     S
He100     S101    10.0   .     S
He100     He103    10.0   .     S
Er102     He103    10.0   .     S
Er102     S104    10.0   .     S
Er102     Ce154    10.0   .     S
He103     S104    10.0   .     S
S104     H119    10.0   .     S
Er105     He106    10.0   .     S
Er105     S107    10.0   .     S
Er105     Ce164    10.0   .     S
He106     S107    10.0   .     S
He106     He109    10.0   .     S
S107     H120    10.0   .     S
Er108     He109    10.0   .     S
Er108     S110    10.0   .     S
He109     S110    10.0   .     S
Er111     He112    10.0   .     S
Er111     S113    10.0   .     S
Er111     Ce162    10.0   .     S
He112     S113    10.0   .     S
He112     He115    10.0   .     S
S113     H117    10.0   .     S
Er114     He115    10.0   .     S
Er114     S116    10.0   .     S
He115     S116    10.0   .     S
H117     H118    9.999   .     S
H117     H120    10.001   .     S
H118     H119    10.001   .     S
H119     H120    9.999   .     S
Er121     He122    10.0   .     S
Er121     S123    10.0   .     S
He122     S123    10.0   .     S
He122     He125    10.0   .     S
S123     H130    10.0   .     S
Er124     He125    10.0   .     S
Er124     S126    10.0   .     S
Er124     Ce153    10.0   .     S
He125     S126    10.0   .     S
S126     H150    10.0   .     S
H127     H128    9.999   1_556     S
H127     H129    10.001   .     S
H127     S148    10.0   .     S
H128     H127    9.999   1_554     S
H128     H130    10.001   .     S
H128     S133    10.0   .     S
H129     H130    9.999   1_556     S
H129     S139    10.0   .     S
H130     H129    9.999   1_554     S
Er131     He132    10.0   .     S
Er131     S133    10.0   .     S
He132     S133    10.0   .     S
He132     He135    10.0   .     S
Er134     He135    10.0   .     S
Er134     S136    10.0   .     S
Er134     Ce166    10.0   .     S
He135     S136    10.0   .     S
S136     H152    10.0   .     S
Er137     He138    10.0   .     S
Er137     S139    10.0   .     S
He138     S139    10.0   .     S
He138     He141    10.0   .     S
Er140     He141    10.0   .     S
Er140     S142    10.0   .     S
Er140     Ce163    10.0   .     S
He141     S142    10.0   .     S
S142     H149    10.0   .     S
Er143     He144    10.0   .     S
Er143     S145    10.0   .     S
Er143     Ce160    10.0   .     S
He144     S145    10.0   .     S
He144     He147    10.0   .     S
S145     H151    10.0   .     S
Er146     He147    10.0   .     S
Er146     S148    10.0   .     S
He147     S148    10.0   .     S
H149     H150    9.999   .     S
H149     H151    10.001   .     S
H150     H152    10.001   .     S
H151     H152    9.999   .     S
Ce153     Ce154    10.001   1_455     S
Ce153     Ti174    10.001   .     S
Ce154     Ce153    10.001   1_655     S
Ce154     Ti176    10.001   .     S
Ce155     Er212    10.0   .     S
Ce155     Ce156    10.001   1_545     S
Ce155     Ti186    10.001   .     S
Ce156     Ce155    10.001   1_565     S
Ce156     Ti188    10.001   .     S
Ce157     Ce158    10.001   1_455     S
Ce157     Ti194    10.001   .     S
Ce158     Er231    10.0   .     S
Ce158     Ce157    10.001   1_655     S
Ce158     Ti196    10.001   .     S
Ce159     Ce160    10.001   1_545     S
Ce159     Ti198    10.001   .     S
Ce160     Ce159    10.001   1_565     S
Ce160     Ti200    10.001   .     S
Ce161     Er228    10.0   .     S
Ce161     Ce162    10.001   1_545     S
Ce161     Ti180    10.001   .     S
Ce162     Ce161    10.001   1_565     S
Ce162     Ti182    10.001   .     S
Ce163     Ce164    10.001   1_455     S
Ce163     Ti168    10.001   .     S
Ce164     Ce163    10.001   1_655     S
Ce164     Ti170    10.001   .     S
Ce165     Ce166    10.001   1_545     S
Ce165     Ti190    10.001   .     S
Ce166     Ce165    10.001   1_565     S
Ce166     Ti192    10.001   .     S
V167     Ti168    9.999   .     S
V167     Li171    10.0   .     S
V167     V199    10.001   .     S
Ti168     Ti170    10.001   1_455     S
V169     Ti170    9.999   .     S
V169     Li177    10.0   .     S
V169     V181    10.001   .     S
Ti170     Ti168    10.001   1_655     S
Li171     Li172    9.999   1_556     S
Li171     V199    10.0   .     S
Li172     Li171    9.999   1_554     S
Li172     V191    10.0   .     S
Li172     V173    10.0   .     S
V173     V191    10.001   .     S
V173     Ti174    9.999   .     S
Ti174     Ti176    10.001   1_455     S
V175     Ti176    9.999   .     S
V175     Li178    10.0   .     S
V175     V187    10.001   .     S
Ti176     Ti174    10.001   1_655     S
Li177     V181    10.0   .     S
Li177     Li178    9.999   1_556     S
Li178     Li177    9.999   1_554     S
Li178     V187    10.0   .     S
V179     Ti180    9.999   .     S
V179     Li183    10.0   .     S
V179     V195    10.001   .     S
Ti180     Ti182    10.001   1_545     S
V181     Ti182    9.999   .     S
Ti182     Ti180    10.001   1_565     S
Li183     Li184    9.999   1_556     S
Li183     V195    10.0   .     S
Li184     Li183    9.999   1_554     S
Li184     V185    10.0   .     S
Li184     V205    10.0   .     S
V185     V205    10.001   .     S
V185     Ti186    9.999   .     S
Ti186     Ti188    10.001   1_545     S
V187     Ti188    9.999   .     S
Ti188     Ti186    10.001   1_565     S
V189     Ti190    9.999   .     S
V189     Li202    10.0   .     S
V189     V203    10.001   .     S
Ti190     Ti192    10.001   1_545     S
V191     Ti192    9.999   .     S
Ti192     Ti190    10.001   1_565     S
V193     Ti194    9.999   .     S
V193     Li201    10.0   .     S
V193     V197    10.001   .     S
Ti194     Ti196    10.001   1_455     S
V195     Ti196    9.999   .     S
Ti196     Ti194    10.001   1_655     S
V197     Ti198    9.999   .     S
V197     Li201    10.0   .     S
Ti198     Ti200    10.001   1_545     S
V199     Ti200    9.999   .     S
Ti200     Ti198    10.001   1_565     S
Li201     Li202    9.999   1_556     S
Li202     Li201    9.999   1_554     S
Li202     V203    10.0   .     S
V203     Ti204    9.999   .     S
Ti204     Ti206    10.001   1_455     S
Ti204     Ce207    10.001   .     S
V205     Ti206    9.999   .     S
Ti206     Ti204    10.001   1_655     S
Ti206     Ce208    10.001   .     S
Ce207     Ce208    10.001   1_455     S
Ce208     Er222    10.0   .     S
Ce208     Ce207    10.001   1_655     S
Er209     He210    10.0   .     S
Er209     S211    10.0   .     S
He210     S211    10.0   .     S
He210     He213    10.0   .     S
S211     H218    10.0   .     S
Er212     He213    10.0   .     S
Er212     S214    10.0   .     S
He213     S214    10.0   .     S
S214     H237    10.0   .     S
H215     H216    9.999   1_556     S
H215     H217    10.001   .     S
H215     S236    10.0   .     S
H216     H215    9.999   1_554     S
H216     H218    10.001   .     S
H216     S221    10.0   .     S
H217     H218    9.999   1_556     S
H217     S227    10.0   .     S
H218     H217    9.999   1_554     S
Er219     He220    10.0   .     S
Er219     S221    10.0   .     S
He220     S221    10.0   .     S
He220     He223    10.0   .     S
Er222     He223    10.0   .     S
Er222     S224    10.0   .     S
He223     S224    10.0   .     S
S224     H240    10.0   .     S
Er225     He226    10.0   .     S
Er225     S227    10.0   .     S
He226     S227    10.0   .     S
He226     He229    10.0   .     S
Er228     He229    10.0   .     S
Er228     S230    10.0   .     S
He229     S230    10.0   .     S
S230     H238    10.0   .     S
Er231     He232    10.0   .     S
Er231     S233    10.0   .     S
He232     S233    10.0   .     S
He232     He235    10.0   .     S
S233     H239    10.0   .     S
Er234     He235    10.0   .     S
Er234     S236    10.0   .     S
He235     S236    10.0   .     S
H237     H238    9.999   .     S
H237     H240    10.001   .     S
H238     H239    10.001   .     S
H239     H240    9.999   .     S
