data_hboe
_audit_creation_date              2020-02-04
_audit_creation_method            'Pymatgen'
_symmetry_space_group_name_H-M    'P1'
_symmetry_Int_Tables_number       1
loop_
_symmetry_equiv_pos_as_xyz
  x,y,z
_cell_length_a                    39.7122
_cell_length_b                    39.7122
_cell_length_c                    39.7122
_cell_angle_alpha                 90.0
_cell_angle_beta                 90.0
_cell_angle_gamma                 90.0
loop_
_atom_site_label
_atom_site_type_symbol
_atom_site_fract_x
_atom_site_fract_y
_atom_site_fract_z
Er1     Er     0.25   0.1472   0.3528
Er2     Er     0.3528   0.25   0.1472
Er3     Er     0.1472   0.3528   0.25
V4     V     0.5   0.1454   0.3227
V5     V     0.5   0.8546   0.3227
V6     V     0.3546   0.0   0.1773
V7     V     0.6454   0.0   0.1773
Er8     Er     0.25   0.8528   0.3528
Er9     Er     0.3528   0.75   0.1472
Er10     Er     0.1472   0.6472   0.25
V11     V     0.3227   0.5   0.8546
V12     V     0.3227   0.5   0.1454
V13     V     0.1773   0.3546   0.0
V14     V     0.1773   0.6454   0.0
Er15     Er     0.25   0.1472   0.6472
Er16     Er     0.1472   0.3528   0.75
Er17     Er     0.3528   0.25   0.8528
V18     V     0.8546   0.3227   0.5
V19     V     0.1454   0.3227   0.5
V20     V     0.0   0.1773   0.3546
V21     V     0.0   0.1773   0.6454
Er22     Er     0.6472   0.25   0.1472
Er23     Er     0.75   0.1472   0.3528
Er24     Er     0.8528   0.3528   0.25
Er25     Er     0.75   0.8528   0.3528
Er26     Er     0.8528   0.6472   0.25
Er27     Er     0.6472   0.75   0.1472
Er28     Er     0.1472   0.6472   0.75
Er29     Er     0.3528   0.75   0.8528
Er30     Er     0.25   0.8528   0.6472
V31     V     0.6454   0.0   0.8227
V32     V     0.5   0.8546   0.6773
V33     V     0.3546   0.0   0.8227
V34     V     0.5   0.1454   0.6773
V35     V     0.8546   0.6773   0.5
V36     V     0.0   0.8227   0.3546
V37     V     0.1454   0.6773   0.5
V38     V     0.0   0.8227   0.6454
Er39     Er     0.75   0.8528   0.6472
Er40     Er     0.8528   0.6472   0.75
Er41     Er     0.6472   0.75   0.8528
V42     V     0.8227   0.6454   0.0
V43     V     0.6773   0.5   0.8546
V44     V     0.8227   0.3546   0.0
V45     V     0.6773   0.5   0.1454
Er46     Er     0.6472   0.25   0.8528
Er47     Er     0.8528   0.3528   0.75
Er48     Er     0.75   0.1472   0.6472
loop_
_geom_bond_atom_site_label_1
_geom_bond_atom_site_label_2
_geom_bond_distance
_geom_bond_site_symmetry_2
_ccdc_geom_bond_type
Er1     V6    10.0   .     S
Er1     V4    10.0   .     S
Er1     V19    10.0   .     S
Er1     V20    10.0   .     S
Er1     Er3    10.0   .     S
Er1     Er2    10.0   .     S
Er2     V13    10.0   .     S
Er2     V12    10.0   .     S
Er2     V4    10.0   .     S
Er2     V6    10.0   .     S
Er2     Er3    10.0   .     S
Er3     V20    10.0   .     S
Er3     V19    10.0   .     S
Er3     V12    10.0   .     S
Er3     V13    10.0   .     S
V4     V6    10.0   .     S
V4     V7    10.0   .     S
V4     Er22    10.0   .     S
V4     Er23    10.0   .     S
V5     V7    10.0   1_565     S
V5     V6    10.0   1_565     S
V5     Er8    10.0   .     S
V5     Er9    10.0   .     S
V5     Er25    10.0   .     S
V5     Er27    10.0   .     S
V6     V5    10.0   1_545     S
V6     Er8    10.0   1_545     S
V6     Er9    10.0   1_545     S
V7     V5    10.0   1_545     S
V7     Er22    10.0   .     S
V7     Er23    10.0   .     S
V7     Er25    10.0   1_545     S
V7     Er27    10.0   1_545     S
Er8     V6    10.0   1_565     S
Er8     V37    10.0   .     S
Er8     V36    10.0   .     S
Er8     Er10    10.0   .     S
Er8     Er9    10.0   .     S
Er9     V14    10.0   .     S
Er9     V12    10.0   .     S
Er9     V6    10.0   1_565     S
Er9     Er10    10.0   .     S
Er10     V12    10.0   .     S
Er10     V14    10.0   .     S
Er10     V36    10.0   .     S
Er10     V37    10.0   .     S
V11     V14    10.0   1_556     S
V11     V13    10.0   1_556     S
V11     Er16    10.0   .     S
V11     Er17    10.0   .     S
V11     Er28    10.0   .     S
V11     Er29    10.0   .     S
V12     V14    10.0   .     S
V12     V13    10.0   .     S
V13     V11    10.0   1_554     S
V13     Er16    10.0   1_554     S
V13     Er17    10.0   1_554     S
V14     V11    10.0   1_554     S
V14     Er28    10.0   1_554     S
V14     Er29    10.0   1_554     S
Er15     V19    10.0   .     S
Er15     V21    10.0   .     S
Er15     V33    10.0   .     S
Er15     V34    10.0   .     S
Er15     Er16    10.0   .     S
Er15     Er17    10.0   .     S
Er16     V21    10.0   .     S
Er16     V19    10.0   .     S
Er16     V13    10.0   1_556     S
Er16     Er17    10.0   .     S
Er17     V13    10.0   1_556     S
Er17     V34    10.0   .     S
Er17     V33    10.0   .     S
V18     V20    10.0   1_655     S
V18     V21    10.0   1_655     S
V18     Er23    10.0   .     S
V18     Er24    10.0   .     S
V18     Er47    10.0   .     S
V18     Er48    10.0   .     S
V19     V20    10.0   .     S
V19     V21    10.0   .     S
V20     V18    10.0   1_455     S
V20     Er23    10.0   1_455     S
V20     Er24    10.0   1_455     S
V21     V18    10.0   1_455     S
V21     Er47    10.0   1_455     S
V21     Er48    10.0   1_455     S
Er22     V44    10.0   .     S
Er22     V45    10.0   .     S
Er22     Er23    10.0   .     S
Er22     Er24    10.0   .     S
Er23     V20    10.0   1_655     S
Er23     Er24    10.0   .     S
Er24     V20    10.0   1_655     S
Er24     V45    10.0   .     S
Er24     V44    10.0   .     S
Er25     V7    10.0   1_565     S
Er25     V35    10.0   .     S
Er25     V36    10.0   1_655     S
Er25     Er26    10.0   .     S
Er25     Er27    10.0   .     S
Er26     V45    10.0   .     S
Er26     V42    10.0   .     S
Er26     V36    10.0   1_655     S
Er26     V35    10.0   .     S
Er26     Er27    10.0   .     S
Er27     V42    10.0   .     S
Er27     V45    10.0   .     S
Er27     V7    10.0   1_565     S
Er28     V38    10.0   .     S
Er28     V37    10.0   .     S
Er28     V14    10.0   1_556     S
Er28     Er29    10.0   .     S
Er28     Er30    10.0   .     S
Er29     V14    10.0   1_556     S
Er29     V32    10.0   .     S
Er29     V33    10.0   1_565     S
Er29     Er30    10.0   .     S
Er30     V37    10.0   .     S
Er30     V38    10.0   .     S
Er30     V33    10.0   1_565     S
Er30     V32    10.0   .     S
V31     V34    10.0   .     S
V31     V32    10.0   1_545     S
V31     Er39    10.0   1_545     S
V31     Er41    10.0   1_545     S
V31     Er46    10.0   .     S
V31     Er48    10.0   .     S
V32     V31    10.0   1_565     S
V32     V33    10.0   1_565     S
V32     Er39    10.0   .     S
V32     Er41    10.0   .     S
V33     Er29    10.0   1_545     S
V33     Er30    10.0   1_545     S
V33     V32    10.0   1_545     S
V33     V34    10.0   .     S
V34     Er46    10.0   .     S
V34     Er48    10.0   .     S
V35     V38    10.0   1_655     S
V35     V36    10.0   1_655     S
V35     Er39    10.0   .     S
V35     Er40    10.0   .     S
V36     Er25    10.0   1_455     S
V36     Er26    10.0   1_455     S
V36     V35    10.0   1_455     S
V36     V37    10.0   .     S
V37     V38    10.0   .     S
V38     V35    10.0   1_455     S
V38     Er39    10.0   1_455     S
V38     Er40    10.0   1_455     S
Er39     V31    10.0   1_565     S
Er39     V38    10.0   1_655     S
Er39     Er40    10.0   .     S
Er39     Er41    10.0   .     S
Er40     V38    10.0   1_655     S
Er40     V43    10.0   .     S
Er40     V42    10.0   1_556     S
Er40     Er41    10.0   .     S
Er41     V42    10.0   1_556     S
Er41     V43    10.0   .     S
Er41     V31    10.0   1_565     S
V42     Er40    10.0   1_554     S
V42     Er41    10.0   1_554     S
V42     V45    10.0   .     S
V42     V43    10.0   1_554     S
V43     V44    10.0   1_556     S
V43     V42    10.0   1_556     S
V43     Er46    10.0   .     S
V43     Er47    10.0   .     S
V44     V43    10.0   1_554     S
V44     V45    10.0   .     S
V44     Er46    10.0   1_554     S
V44     Er47    10.0   1_554     S
Er46     V44    10.0   1_556     S
Er46     Er48    10.0   .     S
Er46     Er47    10.0   .     S
Er47     V21    10.0   1_655     S
Er47     V44    10.0   1_556     S
Er47     Er48    10.0   .     S
Er48     V21    10.0   1_655     S
