data_hcza
_audit_creation_date              2020-02-04
_audit_creation_method            'Pymatgen'
_symmetry_space_group_name_H-M    'P1'
_symmetry_Int_Tables_number       1
loop_
_symmetry_equiv_pos_as_xyz
  x,y,z
_cell_length_a                    70.5667
_cell_length_b                    70.5667
_cell_length_c                    70.5667
_cell_angle_alpha                 90.0
_cell_angle_beta                 90.0
_cell_angle_gamma                 90.0
loop_
_atom_site_label
_atom_site_type_symbol
_atom_site_fract_x
_atom_site_fract_y
_atom_site_fract_z
Ti1     Ti     0.5526   0.4474   0.5526
Ti2     Ti     0.5526   0.5526   0.4474
Ti3     Ti     0.4474   0.5526   0.5526
Ti4     Ti     0.4474   0.4474   0.4474
Ti5     Ti     0.0526   0.9474   0.0526
Ti6     Ti     0.0526   0.0526   0.9474
Ti7     Ti     0.9474   0.0526   0.0526
Ti8     Ti     0.9474   0.9474   0.9474
V9     V     0.3929   0.2161   0.3038
V10     V     0.3929   0.3038   0.2161
V11     V     0.2161   0.3929   0.3038
V12     V     0.3038   0.3929   0.2161
V13     V     0.2161   0.3038   0.3929
V14     V     0.3038   0.2161   0.3929
Er15     Er     0.3461   0.3461   0.3461
Ce16     Ce     0.4569   0.2637   0.088
Ce17     Ce     0.412   0.2363   0.9569
Ce18     Ce     0.5431   0.2637   0.912
Ce19     Ce     0.588   0.2363   0.0431
Ce20     Ce     0.2637   0.4569   0.088
Ce21     Ce     0.2363   0.412   0.9569
Ce22     Ce     0.2637   0.5431   0.912
Ce23     Ce     0.2363   0.588   0.0431
Ce24     Ce     0.088   0.4569   0.2637
Ce25     Ce     0.9569   0.412   0.2363
Ce26     Ce     0.912   0.5431   0.2637
Ce27     Ce     0.0431   0.588   0.2363
Ce28     Ce     0.4569   0.088   0.2637
Ce29     Ce     0.412   0.9569   0.2363
Ce30     Ce     0.5431   0.912   0.2637
Ce31     Ce     0.588   0.0431   0.2363
Ce32     Ce     0.2637   0.912   0.5431
Ce33     Ce     0.2363   0.0431   0.588
Ce34     Ce     0.2637   0.088   0.4569
Ce35     Ce     0.2363   0.9569   0.412
V36     V     0.2839   0.1962   0.8929
V37     V     0.1962   0.2839   0.8929
V38     V     0.1962   0.1071   0.7161
V39     V     0.2839   0.1071   0.8038
V40     V     0.1071   0.1962   0.7161
V41     V     0.1071   0.2839   0.8038
Er42     Er     0.1539   0.1539   0.8461
V43     V     0.2839   0.8929   0.1962
V44     V     0.1962   0.8929   0.2839
V45     V     0.1071   0.7161   0.1962
V46     V     0.1071   0.8038   0.2839
V47     V     0.1962   0.7161   0.1071
V48     V     0.2839   0.8038   0.1071
Er49     Er     0.1539   0.8461   0.1539
V50     V     0.8929   0.2839   0.1962
V51     V     0.8929   0.1962   0.2839
V52     V     0.7161   0.1071   0.1962
V53     V     0.8038   0.1071   0.2839
V54     V     0.7161   0.1962   0.1071
V55     V     0.8038   0.2839   0.1071
Er56     Er     0.8461   0.1539   0.1539
Ce57     Ce     0.912   0.2637   0.5431
Ce58     Ce     0.0431   0.2363   0.588
Ce59     Ce     0.088   0.2637   0.4569
Ce60     Ce     0.9569   0.2363   0.412
Ce61     Ce     0.9569   0.7637   0.588
Ce62     Ce     0.088   0.7363   0.5431
Ce63     Ce     0.912   0.7363   0.4569
Ce64     Ce     0.0431   0.7637   0.412
V65     V     0.6071   0.7839   0.3038
V66     V     0.6071   0.6962   0.2161
V67     V     0.6962   0.7839   0.3929
V68     V     0.7839   0.6962   0.3929
V69     V     0.7839   0.6071   0.3038
V70     V     0.6962   0.6071   0.2161
Er71     Er     0.6539   0.6539   0.3461
Ce72     Ce     0.7637   0.9569   0.588
Ce73     Ce     0.7363   0.088   0.5431
Ce74     Ce     0.7363   0.912   0.4569
Ce75     Ce     0.7637   0.0431   0.412
Ce76     Ce     0.588   0.9569   0.7637
Ce77     Ce     0.5431   0.088   0.7363
Ce78     Ce     0.4569   0.912   0.7363
Ce79     Ce     0.412   0.0431   0.7637
V80     V     0.3038   0.6071   0.7839
V81     V     0.2161   0.6071   0.6962
V82     V     0.3929   0.6962   0.7839
V83     V     0.3929   0.7839   0.6962
V84     V     0.3038   0.7839   0.6071
V85     V     0.2161   0.6962   0.6071
Er86     Er     0.3461   0.6539   0.6539
Ce87     Ce     0.588   0.7637   0.9569
Ce88     Ce     0.5431   0.7363   0.088
Ce89     Ce     0.4569   0.7363   0.912
Ce90     Ce     0.412   0.7637   0.0431
V91     V     0.8929   0.7161   0.8038
V92     V     0.8929   0.8038   0.7161
V93     V     0.7161   0.8929   0.8038
V94     V     0.8038   0.8929   0.7161
V95     V     0.8038   0.7161   0.8929
V96     V     0.7161   0.8038   0.8929
Er97     Er     0.8461   0.8461   0.8461
Ce98     Ce     0.7637   0.588   0.9569
Ce99     Ce     0.7363   0.5431   0.088
Ce100     Ce     0.7363   0.4569   0.912
Ce101     Ce     0.7637   0.412   0.0431
V102     V     0.6071   0.3038   0.7839
V103     V     0.6071   0.2161   0.6962
V104     V     0.7839   0.3929   0.6962
V105     V     0.6962   0.3929   0.7839
V106     V     0.7839   0.3038   0.6071
V107     V     0.6962   0.2161   0.6071
Er108     Er     0.6539   0.3461   0.6539
Ce109     Ce     0.9569   0.588   0.7637
Ce110     Ce     0.088   0.5431   0.7363
Ce111     Ce     0.912   0.4569   0.7363
Ce112     Ce     0.0431   0.412   0.7637
loop_
_geom_bond_atom_site_label_1
_geom_bond_atom_site_label_2
_geom_bond_distance
_geom_bond_site_symmetry_2
_ccdc_geom_bond_type
Ti1     Ti4    10.497   .     S
Ti1     Ti2    10.497   .     S
Ti1     Ti3    10.497   .     S
Ti1     Er108    12.379   .     S
Ti2     Ti4    10.497   .     S
Ti2     Ti3    10.497   .     S
Ti2     Er71    12.379   .     S
Ti3     Ti4    10.497   .     S
Ti3     Er86    12.379   .     S
Ti4     Er15    12.379   .     S
Ti5     Ti8    10.497   1_454     S
Ti5     Ti6    10.497   1_564     S
Ti5     Ti7    10.497   1_465     S
Ti5     Er49    12.379   .     S
Ti6     Ti8    10.497   1_445     S
Ti6     Ti7    10.497   1_456     S
Ti6     Ti5    10.497   1_546     S
Ti6     Er42    12.379   .     S
Ti7     Ti8    10.497   1_544     S
Ti7     Ti6    10.497   1_654     S
Ti7     Ti5    10.497   1_645     S
Ti7     Er56    12.379   .     S
Ti8     Ti5    10.497   1_656     S
Ti8     Ti6    10.497   1_665     S
Ti8     Ti7    10.497   1_566     S
Ti8     Er97    12.379   .     S
V9     Er15    10.195   .     S
V9     Ce28    10.499   .     S
V9     V14    8.887   .     S
V9     V10    8.753   .     S
V10     Er15    10.195   .     S
V10     Ce16    10.499   .     S
V10     V12    8.887   .     S
V11     Er15    10.195   .     S
V11     Ce24    10.499   .     S
V11     V13    8.887   .     S
V11     V12    8.753   .     S
V12     Er15    10.195   .     S
V12     Ce20    10.499   .     S
V13     Er15    10.195   .     S
V13     Ce59    10.499   .     S
V13     V14    8.753   .     S
V14     Er15    10.195   .     S
V14     Ce34    10.499   .     S
Ce16     Ce19    9.965   .     S
Ce16     Ce17    9.965   1_554     S
Ce17     V36    10.499   .     S
Ce17     Ce16    9.965   1_556     S
Ce17     Ce18    9.965   .     S
Ce18     V102    10.499   .     S
Ce18     Ce19    9.965   1_556     S
Ce19     V54    10.499   .     S
Ce19     Ce18    9.965   1_554     S
Ce20     Ce23    9.965   .     S
Ce20     Ce21    9.965   1_554     S
Ce21     V37    10.499   .     S
Ce21     Ce20    9.965   1_556     S
Ce21     Ce22    9.965   .     S
Ce22     V80    10.499   .     S
Ce22     Ce23    9.965   1_556     S
Ce23     V47    10.499   .     S
Ce23     Ce22    9.965   1_554     S
Ce24     Ce27    9.965   .     S
Ce24     Ce25    9.965   1_455     S
Ce25     V50    10.499   .     S
Ce25     Ce24    9.965   1_655     S
Ce25     Ce26    9.965   .     S
Ce26     V69    10.499   .     S
Ce26     Ce27    9.965   1_655     S
Ce27     V45    10.499   .     S
Ce27     Ce26    9.965   1_455     S
Ce28     Ce31    9.965   .     S
Ce28     Ce29    9.965   1_545     S
Ce29     V43    10.499   .     S
Ce29     Ce28    9.965   1_565     S
Ce29     Ce30    9.965   .     S
Ce30     V65    10.499   .     S
Ce30     Ce31    9.965   1_565     S
Ce31     V52    10.499   .     S
Ce31     Ce30    9.965   1_545     S
Ce32     V84    10.499   .     S
Ce32     Ce35    9.965   .     S
Ce32     Ce33    9.965   1_565     S
Ce33     V38    10.499   .     S
Ce33     Ce32    9.965   1_545     S
Ce33     Ce34    9.965   .     S
Ce34     Ce35    9.965   1_545     S
Ce35     V44    10.499   .     S
Ce35     Ce34    9.965   1_565     S
V36     Er42    10.195   .     S
V36     V39    8.887   .     S
V36     V37    8.753   .     S
V37     Er42    10.195   .     S
V37     V41    8.887   .     S
V38     Er42    10.195   .     S
V38     V40    8.887   .     S
V38     V39    8.753   .     S
V39     Er42    10.195   .     S
V39     Ce79    10.499   .     S
V40     Er42    10.195   .     S
V40     Ce58    10.499   .     S
V40     V41    8.753   .     S
V41     Er42    10.195   .     S
V41     Ce112    10.499   .     S
V43     Er49    10.195   .     S
V43     V48    8.887   .     S
V43     V44    8.753   .     S
V44     Er49    10.195   .     S
V44     V46    8.887   .     S
V45     Er49    10.195   .     S
V45     V47    8.887   .     S
V45     V46    8.753   .     S
V46     Er49    10.195   .     S
V46     Ce64    10.499   .     S
V47     Er49    10.195   .     S
V47     V48    8.753   .     S
V48     Er49    10.195   .     S
V48     Ce90    10.499   .     S
V50     Er56    10.195   .     S
V50     V55    8.887   .     S
V50     V51    8.753   .     S
V51     Er56    10.195   .     S
V51     Ce60    10.499   .     S
V51     V53    8.887   .     S
V52     Er56    10.195   .     S
V52     V54    8.887   .     S
V52     V53    8.753   .     S
V53     Er56    10.195   .     S
V53     Ce75    10.499   .     S
V54     Er56    10.195   .     S
V54     V55    8.753   .     S
V55     Er56    10.195   .     S
V55     Ce101    10.499   .     S
Ce57     V106    10.499   .     S
Ce57     Ce60    9.965   .     S
Ce57     Ce58    9.965   1_655     S
Ce58     Ce57    9.965   1_455     S
Ce58     Ce59    9.965   .     S
Ce59     Ce60    9.965   1_455     S
Ce60     Ce59    9.965   1_655     S
Ce61     V92    10.499   .     S
Ce61     Ce62    9.965   1_655     S
Ce61     Ce63    9.965   .     S
Ce62     V85    10.499   .     S
Ce62     Ce61    9.965   1_455     S
Ce62     Ce64    9.965   .     S
Ce63     V68    10.499   .     S
Ce63     Ce64    9.965   1_655     S
Ce64     Ce63    9.965   1_455     S
V65     Er71    10.195   .     S
V65     V67    8.887   .     S
V65     V66    8.753   .     S
V66     Er71    10.195   .     S
V66     Ce88    10.499   .     S
V66     V70    8.887   .     S
V67     Er71    10.195   .     S
V67     Ce74    10.499   .     S
V67     V68    8.753   .     S
V68     Er71    10.195   .     S
V68     V69    8.887   .     S
V69     Er71    10.195   .     S
V69     V70    8.753   .     S
V70     Er71    10.195   .     S
V70     Ce99    10.499   .     S
Ce72     V94    10.499   .     S
Ce72     Ce73    9.965   1_565     S
Ce72     Ce74    9.965   .     S
Ce73     V107    10.499   .     S
Ce73     Ce72    9.965   1_545     S
Ce73     Ce75    9.965   .     S
Ce74     Ce75    9.965   1_565     S
Ce75     Ce74    9.965   1_545     S
Ce76     V93    10.499   .     S
Ce76     Ce77    9.965   1_565     S
Ce76     Ce78    9.965   .     S
Ce77     V103    10.499   .     S
Ce77     Ce76    9.965   1_545     S
Ce77     Ce79    9.965   .     S
Ce78     V83    10.499   .     S
Ce78     Ce79    9.965   1_565     S
Ce79     Ce78    9.965   1_545     S
V80     Er86    10.195   .     S
V80     V82    8.887   .     S
V80     V81    8.753   .     S
V81     Er86    10.195   .     S
V81     Ce110    10.499   .     S
V81     V85    8.887   .     S
V82     Er86    10.195   .     S
V82     Ce89    10.499   .     S
V82     V83    8.753   .     S
V83     Er86    10.195   .     S
V83     V84    8.887   .     S
V84     Er86    10.195   .     S
V84     V85    8.753   .     S
V85     Er86    10.195   .     S
Ce87     V96    10.499   .     S
Ce87     Ce88    9.965   1_556     S
Ce87     Ce89    9.965   .     S
Ce88     Ce87    9.965   1_554     S
Ce88     Ce90    9.965   .     S
Ce89     Ce90    9.965   1_556     S
Ce90     Ce89    9.965   1_554     S
V91     Er97    10.195   .     S
V91     Ce109    10.499   .     S
V91     V95    8.887   .     S
V91     V92    8.753   .     S
V92     Er97    10.195   .     S
V92     V94    8.887   .     S
V93     Er97    10.195   .     S
V93     V96    8.887   .     S
V93     V94    8.753   .     S
V94     Er97    10.195   .     S
V95     Er97    10.195   .     S
V95     Ce98    10.499   .     S
V95     V96    8.753   .     S
V96     Er97    10.195   .     S
Ce98     Ce99    9.965   1_556     S
Ce98     Ce100    9.965   .     S
Ce99     Ce98    9.965   1_554     S
Ce99     Ce101    9.965   .     S
Ce100     V105    10.499   .     S
Ce100     Ce101    9.965   1_556     S
Ce101     Ce100    9.965   1_554     S
V102     Er108    10.195   .     S
V102     V105    8.887   .     S
V102     V103    8.753   .     S
V103     Er108    10.195   .     S
V103     V107    8.887   .     S
V104     Er108    10.195   .     S
V104     Ce111    10.499   .     S
V104     V106    8.887   .     S
V104     V105    8.753   .     S
V105     Er108    10.195   .     S
V106     Er108    10.195   .     S
V106     V107    8.753   .     S
V107     Er108    10.195   .     S
Ce109     Ce110    9.965   1_655     S
Ce109     Ce111    9.965   .     S
Ce110     Ce109    9.965   1_455     S
Ce110     Ce112    9.965   .     S
Ce111     Ce112    9.965   1_655     S
Ce112     Ce111    9.965   1_455     S
