data_hee
_audit_creation_date              2020-02-04
_audit_creation_method            'Pymatgen'
_symmetry_space_group_name_H-M    'P1'
_symmetry_Int_Tables_number       1
loop_
_symmetry_equiv_pos_as_xyz
  x,y,z
_cell_length_a                    66.5682
_cell_length_b                    66.5682
_cell_length_c                    66.5682
_cell_angle_alpha                 90.0
_cell_angle_beta                 90.0
_cell_angle_gamma                 90.0
loop_
_atom_site_label
_atom_site_type_symbol
_atom_site_fract_x
_atom_site_fract_y
_atom_site_fract_z
V1     V     0.6818   0.788   0.8943
V2     V     0.788   0.6818   0.8943
V3     V     0.8943   0.6818   0.788
V4     V     0.8943   0.788   0.6818
V5     V     0.6818   0.8943   0.788
V6     V     0.788   0.8943   0.6818
Er7     Er     0.7884   0.4249   0.0
Er8     Er     0.7884   0.5751   0.0
V9     V     0.788   0.1057   0.6818
V10     V     0.6818   0.1057   0.788
V11     V     0.6818   0.212   0.8943
V12     V     0.788   0.3182   0.8943
V13     V     0.8943   0.212   0.6818
V14     V     0.8943   0.3182   0.788
Er15     Er     0.4249   0.7884   0.0
Er16     Er     0.5751   0.7884   0.0
V17     V     0.1057   0.6818   0.788
V18     V     0.1057   0.788   0.6818
V19     V     0.212   0.6818   0.8943
V20     V     0.3182   0.788   0.8943
V21     V     0.212   0.8943   0.6818
V22     V     0.3182   0.8943   0.788
Er23     Er     0.4249   0.2116   0.0
Er24     Er     0.5751   0.2116   0.0
Er25     Er     0.0   0.4249   0.7884
Er26     Er     0.0   0.5751   0.7884
Er27     Er     0.4249   0.0   0.7884
Er28     Er     0.5751   0.0   0.7884
Er29     Er     0.2116   0.4249   0.0
Er30     Er     0.2116   0.5751   0.0
V31     V     0.212   0.1057   0.6818
V32     V     0.3182   0.1057   0.788
V33     V     0.1057   0.212   0.6818
V34     V     0.1057   0.3182   0.788
V35     V     0.3182   0.212   0.8943
V36     V     0.212   0.3182   0.8943
Er37     Er     0.2116   0.0   0.4249
Er38     Er     0.2116   0.0   0.5751
V39     V     0.1057   0.6818   0.212
V40     V     0.1057   0.788   0.3182
V41     V     0.212   0.6818   0.1057
V42     V     0.3182   0.788   0.1057
V43     V     0.212   0.8943   0.3182
V44     V     0.3182   0.8943   0.212
Er45     Er     0.0   0.2116   0.4249
Er46     Er     0.0   0.2116   0.5751
V47     V     0.6818   0.212   0.1057
V48     V     0.788   0.3182   0.1057
V49     V     0.6818   0.1057   0.212
V50     V     0.788   0.1057   0.3182
V51     V     0.8943   0.212   0.3182
V52     V     0.8943   0.3182   0.212
Er53     Er     0.0   0.4249   0.2116
Er54     Er     0.0   0.5751   0.2116
Er55     Er     0.4249   0.0   0.2116
Er56     Er     0.5751   0.0   0.2116
V57     V     0.212   0.3182   0.1057
V58     V     0.3182   0.212   0.1057
V59     V     0.3182   0.1057   0.212
V60     V     0.212   0.1057   0.3182
V61     V     0.1057   0.3182   0.212
V62     V     0.1057   0.212   0.3182
Er63     Er     0.0   0.7884   0.4249
Er64     Er     0.0   0.7884   0.5751
Er65     Er     0.7884   0.0   0.4249
Er66     Er     0.7884   0.0   0.5751
V67     V     0.6818   0.788   0.1057
V68     V     0.788   0.6818   0.1057
V69     V     0.8943   0.6818   0.212
V70     V     0.8943   0.788   0.3182
V71     V     0.6818   0.8943   0.212
V72     V     0.788   0.8943   0.3182
loop_
_geom_bond_atom_site_label_1
_geom_bond_atom_site_label_2
_geom_bond_distance
_geom_bond_site_symmetry_2
_ccdc_geom_bond_type
V1     Er16    10.0   1_556     S
V1     V2    10.0   .     S
V1     V5    10.001   .     S
V2     Er8    10.0   1_556     S
V2     V3    10.001   .     S
V3     Er26    10.0   1_655     S
V3     V4    10.0   .     S
V4     Er64    10.0   1_655     S
V4     V6    10.001   .     S
V5     Er28    10.0   1_565     S
V5     V6    10.0   .     S
V6     Er66    10.0   1_565     S
Er7     Er8    10.0   .     S
Er7     V12    10.0   1_554     S
Er7     V48    10.0   .     S
Er8     V2    10.0   1_554     S
Er8     V68    10.0   .     S
V9     Er66    10.0   .     S
V9     V10    10.0   .     S
V9     V13    10.001   .     S
V10     Er28    10.0   .     S
V10     V11    10.001   .     S
V11     Er24    10.0   1_556     S
V11     V12    10.0   .     S
V12     Er7    10.0   1_556     S
V12     V14    10.001   .     S
V13     Er46    10.0   1_655     S
V13     V14    10.0   .     S
V14     Er25    10.0   1_655     S
Er15     Er16    10.0   .     S
Er15     V20    10.0   1_554     S
Er15     V42    10.0   .     S
Er16     V1    10.0   1_554     S
Er16     V67    10.0   .     S
V17     Er26    10.0   .     S
V17     V18    10.0   .     S
V17     V19    10.001   .     S
V18     Er64    10.0   .     S
V18     V21    10.001   .     S
V19     Er30    10.0   1_556     S
V19     V20    10.0   .     S
V20     Er15    10.0   1_556     S
V20     V22    10.001   .     S
V21     Er38    10.0   1_565     S
V21     V22    10.0   .     S
V22     Er27    10.0   1_565     S
Er23     Er24    10.0   .     S
Er23     V35    10.0   1_554     S
Er23     V58    10.0   .     S
Er24     V11    10.0   1_554     S
Er24     V47    10.0   .     S
Er25     V14    10.0   1_455     S
Er25     Er26    10.0   .     S
Er25     V34    10.0   .     S
Er26     V3    10.0   1_455     S
Er27     V22    10.0   1_545     S
Er27     Er28    10.0   .     S
Er27     V32    10.0   .     S
Er28     V5    10.0   1_545     S
Er29     Er30    10.0   .     S
Er29     V36    10.0   1_554     S
Er29     V57    10.0   .     S
Er30     V19    10.0   1_554     S
Er30     V41    10.0   .     S
V31     Er38    10.0   .     S
V31     V32    10.0   .     S
V31     V33    10.001   .     S
V32     V35    10.001   .     S
V33     Er46    10.0   .     S
V33     V34    10.0   .     S
V34     V36    10.001   .     S
V35     Er23    10.0   1_556     S
V35     V36    10.0   .     S
V36     Er29    10.0   1_556     S
Er37     Er38    10.0   .     S
Er37     V43    10.0   1_545     S
Er37     V60    10.0   .     S
Er38     V21    10.0   1_545     S
V39     Er54    10.0   .     S
V39     V40    10.0   .     S
V39     V41    10.001   .     S
V40     Er63    10.0   .     S
V40     V43    10.001   .     S
V41     V42    10.0   .     S
V42     V44    10.001   .     S
V43     Er37    10.0   1_565     S
V43     V44    10.0   .     S
V44     Er55    10.0   1_565     S
Er45     Er46    10.0   .     S
Er45     V51    10.0   1_455     S
Er45     V62    10.0   .     S
Er46     V13    10.0   1_455     S
V47     V48    10.0   .     S
V47     V49    10.001   .     S
V48     V52    10.001   .     S
V49     Er56    10.0   .     S
V49     V50    10.0   .     S
V50     Er65    10.0   .     S
V50     V51    10.001   .     S
V51     Er45    10.0   1_655     S
V51     V52    10.0   .     S
V52     Er53    10.0   1_655     S
Er53     V52    10.0   1_455     S
Er53     Er54    10.0   .     S
Er53     V61    10.0   .     S
Er54     V69    10.0   1_455     S
Er55     V44    10.0   1_545     S
Er55     Er56    10.0   .     S
Er55     V59    10.0   .     S
Er56     V71    10.0   1_545     S
V57     V58    10.0   .     S
V57     V61    10.001   .     S
V58     V59    10.001   .     S
V59     V60    10.0   .     S
V60     V62    10.001   .     S
V61     V62    10.0   .     S
Er63     Er64    10.0   .     S
Er63     V70    10.0   1_455     S
Er64     V4    10.0   1_455     S
Er65     Er66    10.0   .     S
Er65     V72    10.0   1_545     S
Er66     V6    10.0   1_545     S
V67     V68    10.0   .     S
V67     V71    10.001   .     S
V68     V69    10.001   .     S
V69     Er54    10.0   1_655     S
V69     V70    10.0   .     S
V70     Er63    10.0   1_655     S
V70     V72    10.001   .     S
V71     Er56    10.0   1_565     S
V71     V72    10.0   .     S
V72     Er65    10.0   1_565     S
