data_hhb
_audit_creation_date              2020-02-04
_audit_creation_method            'Pymatgen'
_symmetry_space_group_name_H-M    'P1'
_symmetry_Int_Tables_number       1
loop_
_symmetry_equiv_pos_as_xyz
  x,y,z
_cell_length_a                    80.5823
_cell_length_b                    80.5823
_cell_length_c                    66.623
_cell_angle_alpha                 90.0
_cell_angle_beta                 90.0
_cell_angle_gamma                 90.0
loop_
_atom_site_label
_atom_site_type_symbol
_atom_site_fract_x
_atom_site_fract_y
_atom_site_fract_z
Ti1     Ti     0.2738   0.2738   0.813
Ti2     Ti     0.2262   0.2262   0.687
Ti3     Ti     0.2262   0.2262   0.313
Ti4     Ti     0.2738   0.2738   0.187
Ti5     Ti     0.7262   0.7262   0.813
Ti6     Ti     0.7738   0.7738   0.687
Ti7     Ti     0.7262   0.2738   0.813
Ti8     Ti     0.7738   0.2262   0.687
Ti9     Ti     0.2738   0.7262   0.813
Ti10     Ti     0.2262   0.7738   0.687
Ti11     Ti     0.7738   0.2262   0.313
Ti12     Ti     0.7262   0.2738   0.187
Er13     Er     0.438   0.7807   0.0
Er14     Er     0.562   0.7807   0.0
Er15     Er     0.438   0.2193   0.0
Er16     Er     0.562   0.2193   0.0
Ce17     Ce     0.374   0.7812   0.1287
Ce18     Ce     0.626   0.7812   0.1287
Ce19     Ce     0.374   0.2188   0.1287
Ce20     Ce     0.626   0.2188   0.1287
Ce21     Ce     0.7188   0.126   0.3713
Ce22     Ce     0.7188   0.874   0.3713
Ce23     Ce     0.2812   0.126   0.3713
Ce24     Ce     0.2812   0.874   0.3713
V25     V     0.438   0.8624   0.2118
V26     V     0.3624   0.938   0.2882
V27     V     0.5621   0.8624   0.2118
V28     V     0.6376   0.938   0.2882
V29     V     0.438   0.1376   0.2118
V30     V     0.3624   0.062   0.2882
V31     V     0.6376   0.062   0.2882
V32     V     0.5621   0.1376   0.2118
Er33     Er     0.7193   0.938   0.5
Er34     Er     0.7193   0.062   0.5
Er35     Er     0.2807   0.938   0.5
Er36     Er     0.2807   0.062   0.5
Ce37     Ce     0.374   0.7812   0.8713
Ce38     Ce     0.626   0.7812   0.8713
Ce39     Ce     0.7188   0.126   0.6287
Ce40     Ce     0.374   0.2188   0.8713
Ce41     Ce     0.626   0.2188   0.8713
Ce42     Ce     0.2812   0.126   0.6287
Ce43     Ce     0.7188   0.874   0.6287
Ce44     Ce     0.2812   0.874   0.6287
V45     V     0.5621   0.8624   0.7882
V46     V     0.6376   0.938   0.7118
V47     V     0.438   0.8624   0.7882
V48     V     0.3624   0.938   0.7118
V49     V     0.6376   0.062   0.7118
V50     V     0.5621   0.1376   0.7882
V51     V     0.3624   0.062   0.7118
V52     V     0.438   0.1376   0.7882
Ti53     Ti     0.7738   0.7738   0.313
Ti54     Ti     0.7262   0.7262   0.187
Ti55     Ti     0.2262   0.7738   0.313
Ti56     Ti     0.2738   0.7262   0.187
Er57     Er     0.2193   0.438   0.0
Er58     Er     0.2193   0.562   0.0
Er59     Er     0.7807   0.438   0.0
Er60     Er     0.7807   0.562   0.0
Ce61     Ce     0.7812   0.374   0.1287
Ce62     Ce     0.7812   0.626   0.1287
Ce63     Ce     0.2188   0.374   0.1287
Ce64     Ce     0.2188   0.626   0.1287
Ce65     Ce     0.126   0.7188   0.3713
Ce66     Ce     0.126   0.2812   0.3713
Ce67     Ce     0.874   0.7188   0.3713
Ce68     Ce     0.874   0.2812   0.3713
V69     V     0.062   0.6376   0.2882
V70     V     0.1376   0.5621   0.2118
V71     V     0.1376   0.438   0.2118
V72     V     0.062   0.3624   0.2882
V73     V     0.8624   0.438   0.2118
V74     V     0.938   0.3624   0.2882
V75     V     0.8624   0.5621   0.2118
V76     V     0.938   0.6376   0.2882
Er77     Er     0.938   0.2807   0.5
Er78     Er     0.062   0.2807   0.5
Er79     Er     0.938   0.7193   0.5
Er80     Er     0.062   0.7193   0.5
Ce81     Ce     0.7812   0.374   0.8713
Ce82     Ce     0.7812   0.626   0.8713
Ce83     Ce     0.126   0.7188   0.6287
Ce84     Ce     0.2188   0.374   0.8713
Ce85     Ce     0.2188   0.626   0.8713
Ce86     Ce     0.126   0.2812   0.6287
Ce87     Ce     0.874   0.7188   0.6287
Ce88     Ce     0.874   0.2812   0.6287
V89     V     0.8624   0.438   0.7882
V90     V     0.938   0.3624   0.7118
V91     V     0.8624   0.5621   0.7882
V92     V     0.938   0.6376   0.7118
V93     V     0.062   0.3624   0.7118
V94     V     0.1376   0.438   0.7882
V95     V     0.062   0.6376   0.7118
V96     V     0.1376   0.5621   0.7882
loop_
_geom_bond_atom_site_label_1
_geom_bond_atom_site_label_2
_geom_bond_distance
_geom_bond_site_symmetry_2
_ccdc_geom_bond_type
Ti1     Ti2    9.999   .     S
Ti1     Ce40    10.0   .     S
Ti1     Ce84    10.0   .     S
Ti2     Ce42    10.0   .     S
Ti2     Ce86    10.0   .     S
Ti3     Ti4    9.999   .     S
Ti3     Ce23    10.0   .     S
Ti3     Ce66    10.0   .     S
Ti4     Ce19    10.0   .     S
Ti4     Ce63    10.0   .     S
Ti5     Ti6    9.999   .     S
Ti5     Ce38    10.0   .     S
Ti5     Ce82    10.0   .     S
Ti6     Ce43    10.0   .     S
Ti6     Ce87    10.0   .     S
Ti7     Ti8    9.999   .     S
Ti7     Ce41    10.0   .     S
Ti7     Ce81    10.0   .     S
Ti8     Ce39    10.0   .     S
Ti8     Ce88    10.0   .     S
Ti9     Ti10    9.999   .     S
Ti9     Ce37    10.0   .     S
Ti9     Ce85    10.0   .     S
Ti10     Ce44    10.0   .     S
Ti10     Ce83    10.0   .     S
Ti11     Ti12    9.999   .     S
Ti11     Ce21    10.0   .     S
Ti11     Ce68    10.0   .     S
Ti12     Ce20    10.0   .     S
Ti12     Ce61    10.0   .     S
Er13     Ce17    10.0   .     S
Er13     Ce37    10.0   1_554     S
Er13     Er14    10.0   .     S
Er14     Ce38    10.0   1_554     S
Er14     Ce18    10.0   .     S
Er15     Ce40    10.0   1_554     S
Er15     Ce19    10.0   .     S
Er15     Er16    10.0   .     S
Er16     Ce41    10.0   1_554     S
Er16     Ce20    10.0   .     S
Ce17     Ti56    10.0   .     S
Ce17     V25    10.0   .     S
Ce18     Ti54    10.0   .     S
Ce18     V27    10.0   .     S
Ce19     V29    10.0   .     S
Ce20     V32    10.0   .     S
Ce21     V31    10.0   .     S
Ce21     Er34    10.0   .     S
Ce22     Ti53    10.0   .     S
Ce22     V28    10.0   .     S
Ce22     Er33    10.0   .     S
Ce23     V30    10.0   .     S
Ce23     Er36    10.0   .     S
Ce24     Ti55    10.0   .     S
Ce24     V26    10.0   .     S
Ce24     Er35    10.0   .     S
V25     V26    10.0   .     S
V25     V27    10.0   .     S
V26     V30    10.0   1_565     S
V27     V28    10.0   .     S
V28     V31    10.0   1_565     S
V29     V30    10.0   .     S
V29     V32    10.0   .     S
V30     V26    10.0   1_545     S
V31     V32    10.0   .     S
V31     V28    10.0   1_545     S
Er33     Ce43    10.0   .     S
Er33     Er34    10.0   1_565     S
Er34     Ce39    10.0   .     S
Er34     Er33    10.0   1_545     S
Er35     Ce44    10.0   .     S
Er35     Er36    10.0   1_565     S
Er36     Ce42    10.0   .     S
Er36     Er35    10.0   1_545     S
Ce37     Er13    10.0   1_556     S
Ce37     V47    10.0   .     S
Ce38     Er14    10.0   1_556     S
Ce38     V45    10.0   .     S
Ce39     V49    10.0   .     S
Ce40     Er15    10.0   1_556     S
Ce40     V52    10.0   .     S
Ce41     Er16    10.0   1_556     S
Ce41     V50    10.0   .     S
Ce42     V51    10.0   .     S
Ce43     V46    10.0   .     S
Ce44     V48    10.0   .     S
V45     V46    10.0   .     S
V45     V47    10.0   .     S
V46     V49    10.0   1_565     S
V47     V48    10.0   .     S
V48     V51    10.0   1_565     S
V49     V50    10.0   .     S
V49     V46    10.0   1_545     S
V50     V52    10.0   .     S
V51     V52    10.0   .     S
V51     V48    10.0   1_545     S
Ti53     Ti54    9.999   .     S
Ti53     Ce67    10.0   .     S
Ti54     Ce62    10.0   .     S
Ti55     Ti56    9.999   .     S
Ti55     Ce65    10.0   .     S
Ti56     Ce64    10.0   .     S
Er57     Ce84    10.0   1_554     S
Er57     Ce63    10.0   .     S
Er57     Er58    10.0   .     S
Er58     Ce85    10.0   1_554     S
Er58     Ce64    10.0   .     S
Er59     Ce81    10.0   1_554     S
Er59     Ce61    10.0   .     S
Er59     Er60    10.0   .     S
Er60     Ce82    10.0   1_554     S
Er60     Ce62    10.0   .     S
Ce61     V73    10.0   .     S
Ce62     V75    10.0   .     S
Ce63     V71    10.0   .     S
Ce64     V70    10.0   .     S
Ce65     V69    10.0   .     S
Ce65     Er80    10.0   .     S
Ce66     V72    10.0   .     S
Ce66     Er78    10.0   .     S
Ce67     V76    10.0   .     S
Ce67     Er79    10.0   .     S
Ce68     V74    10.0   .     S
Ce68     Er77    10.0   .     S
V69     V70    10.0   .     S
V69     V76    10.0   1_455     S
V70     V71    10.0   .     S
V71     V72    10.0   .     S
V72     V74    10.0   1_455     S
V73     V74    10.0   .     S
V73     V75    10.0   .     S
V74     V72    10.0   1_655     S
V75     V76    10.0   .     S
V76     V69    10.0   1_655     S
Er77     Ce88    10.0   .     S
Er77     Er78    10.0   1_655     S
Er78     Ce86    10.0   .     S
Er78     Er77    10.0   1_455     S
Er79     Ce87    10.0   .     S
Er79     Er80    10.0   1_655     S
Er80     Ce83    10.0   .     S
Er80     Er79    10.0   1_455     S
Ce81     Er59    10.0   1_556     S
Ce81     V89    10.0   .     S
Ce82     Er60    10.0   1_556     S
Ce82     V91    10.0   .     S
Ce83     V95    10.0   .     S
Ce84     Er57    10.0   1_556     S
Ce84     V94    10.0   .     S
Ce85     Er58    10.0   1_556     S
Ce85     V96    10.0   .     S
Ce86     V93    10.0   .     S
Ce87     V92    10.0   .     S
Ce88     V90    10.0   .     S
V89     V90    10.0   .     S
V89     V91    10.0   .     S
V90     V93    10.0   1_655     S
V91     V92    10.0   .     S
V92     V95    10.0   1_655     S
V93     V94    10.0   .     S
V93     V90    10.0   1_455     S
V94     V96    10.0   .     S
V95     V96    10.0   .     S
V95     V92    10.0   1_455     S
