data_hmst
_audit_creation_date              2020-02-04
_audit_creation_method            'Pymatgen'
_symmetry_space_group_name_H-M    'P1'
_symmetry_Int_Tables_number       1
loop_
_symmetry_equiv_pos_as_xyz
  x,y,z
_cell_length_a                    74.023
_cell_length_b                    74.023
_cell_length_c                    54.3079
_cell_angle_alpha                 90.0
_cell_angle_beta                 90.0
_cell_angle_gamma                 120.0
loop_
_atom_site_label
_atom_site_type_symbol
_atom_site_fract_x
_atom_site_fract_y
_atom_site_fract_z
Ti1     Ti     0.6325   0.6325   0.5
Ti2     Ti     0.0   0.3675   0.5
Ti3     Ti     0.3675   0.0   0.5
Ti4     Ti     0.3675   0.3675   0.5
Ti5     Ti     0.0   0.3675   0.0
Ti6     Ti     0.6325   0.0   0.0
Ti7     Ti     0.0   0.6325   0.5
Ti8     Ti     0.6325   0.0   0.5
Ti9     Ti     0.3675   0.3675   0.0
Ti10     Ti     0.3675   0.0   0.0
Ti11     Ti     0.6325   0.6325   0.0
Ti12     Ti     0.0   0.6325   0.0
V13     V     0.5533   0.5818   0.3421
S14     S     0.6053   0.7351   0.3421
S15     S     0.6053   0.8702   0.3421
V16     V     0.5533   0.9716   0.3421
Er17     Er     0.71   0.7874   0.4786
Er18     Er     0.71   0.9225   0.4786
Ce19     Ce     0.8649   0.8649   0.5
V20     V     0.5818   0.5533   0.6579
S21     S     0.7351   0.6053   0.6579
S22     S     0.8702   0.6053   0.6579
V23     V     0.9716   0.5533   0.6579
Er24     Er     0.9225   0.71   0.5214
Er25     Er     0.7874   0.71   0.5214
Er26     Er     0.9225   0.2126   0.5214
Er27     Er     0.7874   0.0775   0.5214
V28     V     0.5818   0.0284   0.6579
S29     S     0.8702   0.2649   0.6579
S30     S     0.7351   0.1298   0.6579
V31     V     0.9716   0.4182   0.6579
Ce32     Ce     0.8649   0.0   0.5
Ce33     Ce     0.0   0.1351   0.5
S34     S     0.2649   0.3947   0.3421
V35     V     0.4182   0.4467   0.3421
Er36     Er     0.2126   0.29   0.4786
Er37     Er     0.0775   0.29   0.4786
V38     V     0.0284   0.4467   0.3421
S39     S     0.1298   0.3947   0.3421
V40     V     0.4182   0.9716   0.3421
S41     S     0.2649   0.8702   0.3421
S42     S     0.1298   0.7351   0.3421
V43     V     0.0284   0.5818   0.3421
Er44     Er     0.0775   0.7874   0.4786
Er45     Er     0.2126   0.9225   0.4786
Ce46     Ce     0.1351   0.0   0.5
Ce47     Ce     0.0   0.8649   0.5
V48     V     0.4467   0.0284   0.6579
S49     S     0.3947   0.1298   0.6579
S50     S     0.3947   0.2649   0.6579
V51     V     0.4467   0.4182   0.6579
Er52     Er     0.29   0.2126   0.5214
Er53     Er     0.29   0.0775   0.5214
Ce54     Ce     0.1351   0.1351   0.5
S55     S     0.6053   0.7351   0.1579
V56     V     0.5533   0.5818   0.1579
V57     V     0.5533   0.9716   0.1579
S58     S     0.6053   0.8702   0.1579
Er59     Er     0.71   0.7874   0.0214
Er60     Er     0.71   0.9225   0.0214
Ce61     Ce     0.8649   0.8649   0.0
V62     V     0.9716   0.5533   0.8421
S63     S     0.8702   0.6053   0.8421
S64     S     0.7351   0.6053   0.8421
V65     V     0.5818   0.5533   0.8421
Er66     Er     0.9225   0.71   0.9786
Er67     Er     0.7874   0.71   0.9786
Er68     Er     0.0775   0.7874   0.0214
Er69     Er     0.2126   0.9225   0.0214
V70     V     0.4182   0.9716   0.1579
S71     S     0.2649   0.8702   0.1579
S72     S     0.1298   0.7351   0.1579
V73     V     0.0284   0.5818   0.1579
Ce74     Ce     0.0   0.8649   0.0
Ce75     Ce     0.1351   0.0   0.0
S76     S     0.3947   0.1298   0.8421
V77     V     0.4467   0.0284   0.8421
V78     V     0.4467   0.4182   0.8421
S79     S     0.3947   0.2649   0.8421
Er80     Er     0.29   0.2126   0.9786
Er81     Er     0.29   0.0775   0.9786
Ce82     Ce     0.1351   0.1351   0.0
V83     V     0.4182   0.4467   0.1579
S84     S     0.2649   0.3947   0.1579
S85     S     0.1298   0.3947   0.1579
V86     V     0.0284   0.4467   0.1579
Er87     Er     0.2126   0.29   0.0214
Er88     Er     0.0775   0.29   0.0214
Er89     Er     0.9225   0.2126   0.9786
Er90     Er     0.7874   0.0775   0.9786
V91     V     0.5818   0.0284   0.8421
S92     S     0.8702   0.2649   0.8421
S93     S     0.7351   0.1298   0.8421
V94     V     0.9716   0.4182   0.8421
Ce95     Ce     0.8649   0.0   0.0
Ce96     Ce     0.0   0.1351   0.0
loop_
_geom_bond_atom_site_label_1
_geom_bond_atom_site_label_2
_geom_bond_distance
_geom_bond_site_symmetry_2
_ccdc_geom_bond_type
Ti1     Er25    10.0   .     S
Ti1     Er17    10.0   .     S
Ti1     V13    10.0   .     S
Ti1     V20    10.0   .     S
Ti2     Er26    10.0   1_455     S
Ti2     Er37    10.0   .     S
Ti2     V31    10.0   1_455     S
Ti2     V38    10.0   .     S
Ti3     Er45    10.0   1_545     S
Ti3     Er53    10.0   .     S
Ti3     V40    10.0   1_545     S
Ti3     V48    10.0   .     S
Ti4     Er52    10.0   .     S
Ti4     Er36    10.0   .     S
Ti4     V35    10.0   .     S
Ti4     V51    10.0   .     S
Ti5     Er89    10.0   1_454     S
Ti5     Er88    10.0   .     S
Ti5     V86    10.0   .     S
Ti5     V94    10.0   1_454     S
Ti6     Er90    10.0   1_554     S
Ti6     Er60    10.0   1_545     S
Ti6     V57    10.0   1_545     S
Ti6     V91    10.0   1_554     S
Ti7     Er44    10.0   .     S
Ti7     Er24    10.0   1_455     S
Ti7     V23    10.0   1_455     S
Ti7     V43    10.0   .     S
Ti8     Er27    10.0   .     S
Ti8     Er18    10.0   1_545     S
Ti8     V16    10.0   1_545     S
Ti8     V28    10.0   .     S
Ti9     Er80    10.0   1_554     S
Ti9     Er87    10.0   .     S
Ti9     V78    10.0   1_554     S
Ti9     V83    10.0   .     S
Ti10     Er69    10.0   1_545     S
Ti10     Er81    10.0   1_554     S
Ti10     V70    10.0   1_545     S
Ti10     V77    10.0   1_554     S
Ti11     Er67    10.0   1_554     S
Ti11     Er59    10.0   .     S
Ti11     V56    10.0   .     S
Ti11     V65    10.0   1_554     S
Ti12     Er68    10.0   .     S
Ti12     Er66    10.0   1_454     S
Ti12     V62    10.0   1_454     S
Ti12     V73    10.0   .     S
V13     S14    10.0   .     S
V13     V56    10.0   .     S
V13     V35    10.001   .     S
S14     S15    10.0   .     S
S14     Er17    10.0   .     S
S14     S55    10.0   .     S
S15     V16    10.0   .     S
S15     Er18    10.0   .     S
S15     S58    10.0   .     S
V16     Ti8    10.0   1_565     S
V16     V57    10.0   .     S
V16     V40    10.001   .     S
Er17     Er18    10.0   .     S
Er17     Ce19    10.0   .     S
Er18     Ti8    10.0   1_565     S
Er18     Ce32    10.0   1_565     S
Ce19     Ce47    10.0   1_655     S
Ce19     Ce32    10.0   1_565     S
Ce19     Er25    10.0   .     S
V20     S21    10.0   .     S
V20     V65    10.0   .     S
V20     V51    10.001   .     S
S21     S22    10.0   .     S
S21     Er25    10.0   .     S
S21     S64    10.0   .     S
S22     V23    10.0   .     S
S22     Er24    10.0   .     S
S22     S63    10.0   .     S
V23     Ti7    10.0   1_655     S
V23     V62    10.0   .     S
V23     V31    10.001   .     S
Er24     Ti7    10.0   1_655     S
Er24     Er25    10.0   .     S
Er24     Ce47    10.0   1_655     S
Er26     Ti2    10.0   1_655     S
Er26     Er27    10.0   .     S
Er26     S29    10.0   .     S
Er26     Ce33    10.0   1_655     S
Er27     S30    10.0   .     S
Er27     Ce32    10.0   .     S
V28     S30    10.0   .     S
V28     V91    10.0   .     S
V28     V48    10.001   .     S
S29     S30    10.0   .     S
S29     V31    10.0   .     S
S29     S92    10.0   .     S
S30     S93    10.0   .     S
V31     Ti2    10.0   1_655     S
V31     V94    10.0   .     S
Ce32     Ce19    10.0   1_545     S
Ce32     Ce33    10.0   1_655     S
Ce32     Er18    10.0   1_545     S
Ce33     Ce32    10.0   1_455     S
Ce33     Ce54    10.0   .     S
Ce33     Er37    10.0   .     S
Ce33     Er26    10.0   1_455     S
S34     S39    10.0   .     S
S34     V35    10.0   .     S
S34     Er36    10.0   .     S
S34     S84    10.0   .     S
V35     V83    10.0   .     S
Er36     Er37    10.0   .     S
Er36     Ce54    10.0   .     S
Er37     S39    10.0   .     S
V38     S39    10.0   .     S
V38     V86    10.0   .     S
V38     V43    10.001   .     S
S39     S85    10.0   .     S
V40     Ti3    10.0   1_565     S
V40     S41    10.0   .     S
V40     V70    10.0   .     S
S41     S42    10.0   .     S
S41     Er45    10.0   .     S
S41     S71    10.0   .     S
S42     V43    10.0   .     S
S42     Er44    10.0   .     S
S42     S72    10.0   .     S
V43     V73    10.0   .     S
Er44     Er45    10.0   .     S
Er44     Ce47    10.0   .     S
Er45     Ti3    10.0   1_565     S
Er45     Ce46    10.0   1_565     S
Ce46     Ce54    10.0   .     S
Ce46     Ce47    10.0   1_545     S
Ce46     Er53    10.0   .     S
Ce46     Er45    10.0   1_545     S
Ce47     Ce19    10.0   1_455     S
Ce47     Ce46    10.0   1_565     S
Ce47     Er24    10.0   1_455     S
V48     S49    10.0   .     S
V48     V77    10.0   .     S
S49     S50    10.0   .     S
S49     Er53    10.0   .     S
S49     S76    10.0   .     S
S50     V51    10.0   .     S
S50     Er52    10.0   .     S
S50     S79    10.0   .     S
V51     V78    10.0   .     S
Er52     Er53    10.0   .     S
Er52     Ce54    10.0   .     S
S55     S58    10.0   .     S
S55     V56    10.0   .     S
S55     Er59    10.0   .     S
V56     V83    10.001   .     S
V57     Ti6    10.0   1_565     S
V57     S58    10.0   .     S
V57     V70    10.001   .     S
S58     Er60    10.0   .     S
Er59     Er60    10.0   .     S
Er59     Ce61    10.0   .     S
Er60     Ti6    10.0   1_565     S
Er60     Ce95    10.0   1_565     S
Ce61     Er67    10.0   1_554     S
Ce61     Ce74    10.0   1_655     S
Ce61     Ce95    10.0   1_565     S
V62     Ti12    10.0   1_656     S
V62     S63    10.0   .     S
V62     V94    10.001   .     S
S63     S64    10.0   .     S
S63     Er66    10.0   .     S
S64     V65    10.0   .     S
S64     Er67    10.0   .     S
V65     Ti11    10.0   1_556     S
V65     V78    10.001   .     S
Er66     Ti12    10.0   1_656     S
Er66     Er67    10.0   .     S
Er66     Ce74    10.0   1_656     S
Er67     Ti11    10.0   1_556     S
Er67     Ce61    10.0   1_556     S
Er68     Er69    10.0   .     S
Er68     S72    10.0   .     S
Er68     Ce74    10.0   .     S
Er69     Ti10    10.0   1_565     S
Er69     S71    10.0   .     S
Er69     Ce75    10.0   1_565     S
V70     Ti10    10.0   1_565     S
V70     S71    10.0   .     S
S71     S72    10.0   .     S
S72     V73    10.0   .     S
V73     V86    10.001   .     S
Ce74     Ce75    10.0   1_565     S
Ce74     Ce61    10.0   1_455     S
Ce74     Er66    10.0   1_454     S
Ce75     Ce74    10.0   1_545     S
Ce75     Er81    10.0   1_554     S
Ce75     Er69    10.0   1_545     S
Ce75     Ce82    10.0   .     S
S76     S79    10.0   .     S
S76     V77    10.0   .     S
S76     Er81    10.0   .     S
V77     Ti10    10.0   1_556     S
V77     V91    10.001   .     S
V78     Ti9    10.0   1_556     S
V78     S79    10.0   .     S
S79     Er80    10.0   .     S
Er80     Ti9    10.0   1_556     S
Er80     Er81    10.0   .     S
Er80     Ce82    10.0   1_556     S
Er81     Ti10    10.0   1_556     S
Er81     Ce75    10.0   1_556     S
Ce82     Ce96    10.0   .     S
Ce82     Er87    10.0   .     S
Ce82     Er80    10.0   1_554     S
V83     S84    10.0   .     S
S84     S85    10.0   .     S
S84     Er87    10.0   .     S
S85     V86    10.0   .     S
S85     Er88    10.0   .     S
Er87     Er88    10.0   .     S
Er88     Ce96    10.0   .     S
Er89     Ti5    10.0   1_656     S
Er89     Er90    10.0   .     S
Er89     S92    10.0   .     S
Er89     Ce96    10.0   1_656     S
Er90     Ti6    10.0   1_556     S
Er90     S93    10.0   .     S
Er90     Ce95    10.0   1_556     S
V91     Ti6    10.0   1_556     S
V91     S93    10.0   .     S
S92     S93    10.0   .     S
S92     V94    10.0   .     S
V94     Ti5    10.0   1_656     S
Ce95     Ce96    10.0   1_655     S
Ce95     Ce61    10.0   1_545     S
Ce95     Er90    10.0   1_554     S
Ce95     Er60    10.0   1_545     S
Ce96     Ce95    10.0   1_455     S
Ce96     Er89    10.0   1_454     S
