data_hqx
_audit_creation_date              2020-02-04
_audit_creation_method            'Pymatgen'
_symmetry_space_group_name_H-M    'P1'
_symmetry_Int_Tables_number       1
loop_
_symmetry_equiv_pos_as_xyz
  x,y,z
_cell_length_a                    80.6741
_cell_length_b                    80.6741
_cell_length_c                    24.8124
_cell_angle_alpha                 90.0
_cell_angle_beta                 90.0
_cell_angle_gamma                 90.0
loop_
_atom_site_label
_atom_site_type_symbol
_atom_site_fract_x
_atom_site_fract_y
_atom_site_fract_z
Er1     Er     0.3101   0.2251   0.4375
Er2     Er     0.2251   0.1899   0.6875
Er3     Er     0.1899   0.2749   0.9375
Er4     Er     0.2749   0.3101   0.1875
Er5     Er     0.1899   0.2251   0.3125
Er6     Er     0.2749   0.1899   0.0625
Er7     Er     0.2251   0.3101   0.5625
Er8     Er     0.3101   0.2749   0.8125
Ti9     Ti     0.0438   0.4562   0.75
Ti10     Ti     0.9562   0.5438   0.75
V11     V     0.8627   0.6024   0.565
V12     V     0.8976   0.6373   0.935
V13     V     0.1024   0.3627   0.935
V14     V     0.1373   0.3976   0.565
V15     V     0.3976   0.3627   0.815
V16     V     0.3627   0.3976   0.185
Ti17     Ti     0.5438   0.5438   0.0
Ti18     Ti     0.4562   0.4562   0.0
V19     V     0.6024   0.6373   0.815
V20     V     0.6373   0.6024   0.185
Er21     Er     0.7251   0.8101   0.0625
Er22     Er     0.8101   0.7749   0.3125
Er23     Er     0.7749   0.6899   0.5625
Er24     Er     0.6899   0.7251   0.8125
V25     V     0.1373   0.1024   0.685
V26     V     0.1024   0.1373   0.315
V27     V     0.8627   0.8976   0.685
V28     V     0.8976   0.8627   0.315
Ti29     Ti     0.0438   0.0438   0.5
Ti30     Ti     0.9562   0.9562   0.5
Er31     Er     0.7749   0.8101   0.6875
Er32     Er     0.6899   0.7749   0.4375
Er33     Er     0.7251   0.6899   0.1875
Er34     Er     0.8101   0.7251   0.9375
V35     V     0.6373   0.8976   0.065
V36     V     0.6024   0.8627   0.435
Ti37     Ti     0.4562   0.0438   0.25
Ti38     Ti     0.5438   0.9562   0.25
V39     V     0.3627   0.1024   0.065
V40     V     0.3976   0.1373   0.435
loop_
_geom_bond_atom_site_label_1
_geom_bond_atom_site_label_2
_geom_bond_distance
_geom_bond_site_symmetry_2
_ccdc_geom_bond_type
Er1     V40    10.007   .     S
Er1     Er5    10.178   .     S
Er1     Er7    10.177   .     S
Er1     Er6    10.134   .     S
Er1     Er8    10.134   .     S
Er1     Er4    9.671   .     S
Er1     Er2    9.671   .     S
Er2     V25    10.007   .     S
Er2     Er8    10.177   .     S
Er2     Er7    10.178   .     S
Er2     Er5    10.134   .     S
Er2     Er6    10.134   1_556     S
Er2     Er3    9.671   .     S
Er3     V13    10.007   .     S
Er3     Er6    10.177   1_556     S
Er3     Er8    10.178   .     S
Er3     Er5    10.134   1_556     S
Er3     Er7    10.134   .     S
Er3     Er4    9.671   1_556     S
Er4     V16    10.007   .     S
Er4     Er5    10.177   .     S
Er4     Er6    10.178   .     S
Er4     Er7    10.134   .     S
Er4     Er8    10.134   1_554     S
Er4     Er3    9.671   1_554     S
Er5     V26    10.007   .     S
Er5     Er3    10.134   1_554     S
Er5     Er6    9.671   .     S
Er5     Er7    9.671   .     S
Er6     V39    10.007   .     S
Er6     Er3    10.177   1_554     S
Er6     Er2    10.134   1_554     S
Er6     Er8    9.671   1_554     S
Er7     V14    10.007   .     S
Er7     Er8    9.671   .     S
Er8     V15    10.007   .     S
Er8     Er4    10.134   1_556     S
Er8     Er6    9.671   1_556     S
Ti9     Ti10    10.006   1_455     S
Ti9     V14    10.007   .     S
Ti9     V13    10.007   .     S
Ti10     Ti9    10.006   1_655     S
Ti10     V12    10.007   .     S
Ti10     V11    10.007   .     S
V11     V12    10.007   .     S
V11     Er23    10.007   .     S
V12     Er34    10.007   .     S
V13     V14    10.007   .     S
V15     V16    10.007   1_556     S
V15     Ti18    10.007   1_556     S
V16     V15    10.007   1_554     S
V16     Ti18    10.007   .     S
Ti17     Ti18    10.006   .     S
Ti17     V19    10.007   1_554     S
Ti17     V20    10.007   .     S
Ti18     V15    10.007   1_554     S
V19     V20    10.007   1_556     S
V19     Ti17    10.007   1_556     S
V19     Er24    10.007   .     S
V20     V19    10.007   1_554     S
V20     Er33    10.007   .     S
Er21     V35    10.007   .     S
Er21     Er33    10.178   .     S
Er21     Er34    10.177   1_554     S
Er21     Er31    10.134   1_554     S
Er21     Er32    10.134   .     S
Er21     Er22    9.671   .     S
Er21     Er24    9.671   1_554     S
Er22     V28    10.007   .     S
Er22     Er33    10.177   .     S
Er22     Er32    10.178   .     S
Er22     Er34    10.134   1_554     S
Er22     Er31    10.134   .     S
Er22     Er23    9.671   .     S
Er23     Er31    10.178   .     S
Er23     Er32    10.177   .     S
Er23     Er34    10.134   .     S
Er23     Er33    10.134   .     S
Er23     Er24    9.671   .     S
Er24     Er31    10.177   .     S
Er24     Er34    10.178   .     S
Er24     Er33    10.134   1_556     S
Er24     Er32    10.134   .     S
Er24     Er21    9.671   1_556     S
V25     V26    10.007   .     S
V25     Ti29    10.007   .     S
V26     Ti29    10.007   .     S
V27     V28    10.007   .     S
V27     Ti30    10.007   .     S
V27     Er31    10.007   .     S
V28     Ti30    10.007   .     S
Ti29     Ti30    10.006   1_445     S
Ti30     Ti29    10.006   1_665     S
Er31     Er21    10.134   1_556     S
Er31     Er34    9.671   .     S
Er31     Er32    9.671   .     S
Er32     V36    10.007   .     S
Er32     Er33    9.671   .     S
Er33     Er24    10.134   1_554     S
Er33     Er34    9.671   1_554     S
Er34     Er21    10.177   1_556     S
Er34     Er22    10.134   1_556     S
Er34     Er33    9.671   1_556     S
V35     V36    10.007   .     S
V35     Ti38    10.007   .     S
V36     Ti38    10.007   .     S
Ti37     Ti38    10.006   1_545     S
Ti37     V39    10.007   .     S
Ti37     V40    10.007   .     S
Ti38     Ti37    10.006   1_565     S
V39     V40    10.007   .     S
