data_hwxa
_audit_creation_date              2020-02-04
_audit_creation_method            'Pymatgen'
_symmetry_space_group_name_H-M    'P1'
_symmetry_Int_Tables_number       1
loop_
_symmetry_equiv_pos_as_xyz
  x,y,z
_cell_length_a                    77.0016
_cell_length_b                    77.0016
_cell_length_c                    34.9421
_cell_angle_alpha                 90.0
_cell_angle_beta                 90.0
_cell_angle_gamma                 90.0
loop_
_atom_site_label
_atom_site_type_symbol
_atom_site_fract_x
_atom_site_fract_y
_atom_site_fract_z
Ce1     Ce     0.1656   0.2574   0.0
Ce2     Ce     0.2574   0.1656   0.0
V3     V     0.2434   0.5357   0.5
V4     V     0.5357   0.2434   0.5
Er5     Er     0.4233   0.2452   0.6431
Er6     Er     0.4233   0.2452   0.3569
Ti7     Ti     0.337   0.2451   0.8569
Ti8     Ti     0.337   0.2451   0.1431
Ti9     Ti     0.2451   0.337   0.8569
Ti10     Ti     0.2451   0.337   0.1431
Er11     Er     0.2452   0.4233   0.6431
Er12     Er     0.2452   0.4233   0.3569
Ce13     Ce     0.2426   0.6656   0.5
Ce14     Ce     0.3344   0.7574   0.5
V15     V     0.9643   0.7434   0.0
V16     V     0.2566   0.0357   0.0
Ti17     Ti     0.163   0.7451   0.6431
Ti18     Ti     0.163   0.7451   0.3569
Ti19     Ti     0.2549   0.837   0.6431
Ti20     Ti     0.2549   0.837   0.3569
Er21     Er     0.0767   0.7452   0.8569
Er22     Er     0.0767   0.7452   0.1431
Er23     Er     0.2548   0.9233   0.8569
Er24     Er     0.2548   0.9233   0.1431
Ce25     Ce     0.8344   0.7426   0.0
Ce26     Ce     0.7426   0.8344   0.0
V27     V     0.4643   0.7566   0.5
V28     V     0.7566   0.4643   0.5
Er29     Er     0.5767   0.7548   0.6431
Er30     Er     0.5767   0.7548   0.3569
Ti31     Ti     0.7549   0.663   0.8569
Ti32     Ti     0.7549   0.663   0.1431
Ti33     Ti     0.663   0.7549   0.8569
Ti34     Ti     0.663   0.7549   0.1431
Er35     Er     0.7548   0.5767   0.6431
Er36     Er     0.7548   0.5767   0.3569
Ce37     Ce     0.6656   0.2426   0.5
Ce38     Ce     0.7574   0.3344   0.5
V39     V     0.7434   0.9643   0.0
V40     V     0.0357   0.2566   0.0
Er41     Er     0.9233   0.2548   0.8569
Er42     Er     0.9233   0.2548   0.1431
Er43     Er     0.7452   0.0767   0.8569
Er44     Er     0.7452   0.0767   0.1431
Ti45     Ti     0.7451   0.163   0.6431
Ti46     Ti     0.7451   0.163   0.3569
Ti47     Ti     0.837   0.2549   0.6431
Ti48     Ti     0.837   0.2549   0.3569
loop_
_geom_bond_atom_site_label_1
_geom_bond_atom_site_label_2
_geom_bond_distance
_geom_bond_site_symmetry_2
_ccdc_geom_bond_type
Ce1     Ti10    10.0   .     S
Ce1     Ti9    10.0   1_554     S
Ce1     V40    10.0   .     S
Ce1     Ce2    10.0   .     S
Ce2     Ti8    10.0   .     S
Ce2     Ti7    10.0   1_554     S
Ce2     V16    10.0   .     S
V3     Er11    10.0   .     S
V3     Er12    10.0   .     S
V3     Ce13    10.0   .     S
V4     Er6    10.0   .     S
V4     Er5    10.0   .     S
V4     Ce37    10.0   .     S
Er5     Er6    10.0   .     S
Er5     Ti7    10.0   .     S
Er6     Ti8    10.0   .     S
Ti7     Ce2    10.0   1_556     S
Ti7     Ti8    10.0   1_556     S
Ti7     Ti9    10.0   .     S
Ti8     Ti7    10.0   1_554     S
Ti8     Ti10    10.0   .     S
Ti9     Ce1    10.0   1_556     S
Ti9     Ti10    10.0   1_556     S
Ti9     Er11    10.0   .     S
Ti10     Ti9    10.0   1_554     S
Ti10     Er12    10.0   .     S
Er11     Er12    10.0   .     S
Ce13     Ti17    10.0   .     S
Ce13     Ti18    10.0   .     S
Ce13     Ce14    10.0   .     S
Ce14     Ti20    10.0   .     S
Ce14     Ti19    10.0   .     S
Ce14     V27    10.0   .     S
V15     Er22    10.0   1_655     S
V15     Er21    10.0   1_654     S
V15     Ce25    10.0   .     S
V16     Er24    10.0   1_545     S
V16     Er23    10.0   1_544     S
Ti17     Ti18    10.0   .     S
Ti17     Ti19    10.0   .     S
Ti17     Er21    10.0   .     S
Ti18     Ti20    10.0   .     S
Ti18     Er22    10.0   .     S
Ti19     Ti20    10.0   .     S
Ti19     Er23    10.0   .     S
Ti20     Er24    10.0   .     S
Er21     V15    10.0   1_456     S
Er21     Er22    10.0   1_556     S
Er22     V15    10.0   1_455     S
Er22     Er21    10.0   1_554     S
Er23     V16    10.0   1_566     S
Er23     Er24    10.0   1_556     S
Er24     V16    10.0   1_565     S
Er24     Er23    10.0   1_554     S
Ce25     Ti32    10.0   .     S
Ce25     Ti31    10.0   1_554     S
Ce25     Ce26    10.0   .     S
Ce26     Ti34    10.0   .     S
Ce26     Ti33    10.0   1_554     S
Ce26     V39    10.0   .     S
V27     Er29    10.0   .     S
V27     Er30    10.0   .     S
V28     Er35    10.0   .     S
V28     Er36    10.0   .     S
V28     Ce38    10.0   .     S
Er29     Er30    10.0   .     S
Er29     Ti33    10.0   .     S
Er30     Ti34    10.0   .     S
Ti31     Ce25    10.0   1_556     S
Ti31     Ti32    10.0   1_556     S
Ti31     Ti33    10.0   .     S
Ti31     Er35    10.0   .     S
Ti32     Ti31    10.0   1_554     S
Ti32     Ti34    10.0   .     S
Ti32     Er36    10.0   .     S
Ti33     Ce26    10.0   1_556     S
Ti33     Ti34    10.0   1_556     S
Ti34     Ti33    10.0   1_554     S
Er35     Er36    10.0   .     S
Ce37     Ti46    10.0   .     S
Ce37     Ti45    10.0   .     S
Ce37     Ce38    10.0   .     S
Ce38     Ti47    10.0   .     S
Ce38     Ti48    10.0   .     S
V39     Er44    10.0   1_565     S
V39     Er43    10.0   1_564     S
V40     Er42    10.0   1_455     S
V40     Er41    10.0   1_454     S
Er41     V40    10.0   1_656     S
Er41     Er42    10.0   1_556     S
Er41     Ti47    10.0   .     S
Er42     V40    10.0   1_655     S
Er42     Er41    10.0   1_554     S
Er42     Ti48    10.0   .     S
Er43     V39    10.0   1_546     S
Er43     Er44    10.0   1_556     S
Er43     Ti45    10.0   .     S
Er44     V39    10.0   1_545     S
Er44     Er43    10.0   1_554     S
Er44     Ti46    10.0   .     S
Ti45     Ti46    10.0   .     S
Ti45     Ti47    10.0   .     S
Ti46     Ti48    10.0   .     S
Ti47     Ti48    10.0   .     S
