data_hyc
_audit_creation_date              2020-02-04
_audit_creation_method            'Pymatgen'
_symmetry_space_group_name_H-M    'P1'
_symmetry_Int_Tables_number       1
loop_
_symmetry_equiv_pos_as_xyz
  x,y,z
_cell_length_a                    30.3902
_cell_length_b                    42.2034
_cell_length_c                    16.236
_cell_angle_alpha                 90.0
_cell_angle_beta                 90.0
_cell_angle_gamma                 90.0
loop_
_atom_site_label
_atom_site_type_symbol
_atom_site_fract_x
_atom_site_fract_y
_atom_site_fract_z
Ti1     Ti     0.0857   0.4138   0.5334
Ti2     Ti     0.4143   0.4138   0.5334
Er3     Er     0.25   0.5078   0.0571
Ti4     Ti     0.0857   0.0862   0.0334
Ti5     Ti     0.4143   0.0862   0.0334
Er6     Er     0.25   0.9922   0.5571
V7     V     0.5853   0.3185   0.0
V8     V     0.9148   0.3185   0.0
Ce9     Ce     0.75   0.3871   0.5013
V10     V     0.9148   0.1815   0.5
V11     V     0.5853   0.1815   0.5
Ce12     Ce     0.75   0.1129   0.0013
Ti13     Ti     0.9143   0.5862   0.5334
Ti14     Ti     0.5857   0.5862   0.5334
Er15     Er     0.75   0.4922   0.0571
Ti16     Ti     0.9143   0.9138   0.0334
Ti17     Ti     0.5857   0.9138   0.0334
Er18     Er     0.75   0.0078   0.5571
V19     V     0.4148   0.8185   0.5
V20     V     0.0853   0.8185   0.5
Ce21     Ce     0.25   0.8871   0.0013
V22     V     0.4147   0.6815   0.0
V23     V     0.0853   0.6815   0.0
Ce24     Ce     0.25   0.6129   0.5013
loop_
_geom_bond_atom_site_label_1
_geom_bond_atom_site_label_2
_geom_bond_distance
_geom_bond_site_symmetry_2
_ccdc_geom_bond_type
Ti1     Er3    10.025   .     S
Ti1     V8    10.027   1_456     S
Ti1     Ti2    9.987   .     S
Ti2     Er3    10.025   .     S
Ti2     V7    10.027   1_556     S
Er3     Ce24    10.054   1_554     S
Ti4     Er6    10.025   1_544     S
Ti4     V10    10.027   1_455     S
Ti4     Ti5    9.987   .     S
Ti5     Er6    10.025   1_544     S
Ti5     V11    10.027   .     S
Er6     Ce21    10.054   .     S
Er6     Ti4    10.025   1_566     S
Er6     Ti5    10.025   1_566     S
V7     Ce12    10.019   .     S
V7     V8    10.014   .     S
V7     Ti2    10.027   1_554     S
V7     V11    9.968   .     S
V7     Ce9    9.949   1_554     S
V7     V11    9.968   1_554     S
V7     Ce9    9.985   .     S
V8     Ce12    10.019   .     S
V8     Ti1    10.027   1_654     S
V8     V10    9.968   .     S
V8     Ce9    9.949   1_554     S
V8     V10    9.968   1_554     S
V8     Ce9    9.985   .     S
Ce9     Er15    10.054   1_556     S
Ce9     V11    10.019   .     S
Ce9     V10    10.019   .     S
Ce9     V8    9.949   1_556     S
Ce9     V7    9.949   1_556     S
V10     V11    10.014   .     S
V10     Ti4    10.027   1_655     S
V10     V8    9.968   1_556     S
V10     Ce12    9.949   .     S
V10     Ce12    9.985   1_556     S
V11     V7    9.968   1_556     S
V11     Ce12    9.949   .     S
V11     Ce12    9.985   1_556     S
Ce12     Er18    10.054   .     S
Ce12     V10    9.985   1_554     S
Ce12     V11    9.985   1_554     S
Ti13     Er15    10.025   .     S
Ti13     V23    10.027   1_656     S
Ti13     Ti14    9.987   .     S
Ti14     Er15    10.025   .     S
Ti14     V22    10.027   1_556     S
Er15     Ce9    10.054   1_554     S
Ti16     Er18    10.025   1_564     S
Ti16     V20    10.027   1_655     S
Ti16     Ti17    9.987   .     S
Ti17     Er18    10.025   1_564     S
Ti17     V19    10.027   .     S
Er18     Ti16    10.025   1_546     S
Er18     Ti17    10.025   1_546     S
V19     Ce24    10.019   .     S
V19     V20    10.014   .     S
V19     V22    9.968   1_556     S
V19     Ce21    9.949   .     S
V19     V22    9.968   .     S
V19     Ce21    9.985   1_556     S
V20     Ce24    10.019   .     S
V20     Ti16    10.027   1_455     S
V20     V23    9.968   1_556     S
V20     Ce21    9.949   .     S
V20     V23    9.968   .     S
V20     Ce21    9.985   1_556     S
Ce21     V23    10.019   .     S
Ce21     V22    10.019   .     S
Ce21     V20    9.985   1_554     S
Ce21     V19    9.985   1_554     S
V22     V23    10.014   .     S
V22     Ti14    10.027   1_554     S
V22     V19    9.968   1_554     S
V22     Ce24    9.949   1_554     S
V22     Ce24    9.985   .     S
V23     Ti13    10.027   1_454     S
V23     V20    9.968   1_554     S
V23     Ce24    9.949   1_554     S
V23     Ce24    9.985   .     S
Ce24     Er3    10.054   1_556     S
Ce24     V23    9.949   1_556     S
Ce24     V22    9.949   1_556     S
