data_hyka
_audit_creation_date              2020-02-04
_audit_creation_method            'Pymatgen'
_symmetry_space_group_name_H-M    'P1'
_symmetry_Int_Tables_number       1
loop_
_symmetry_equiv_pos_as_xyz
  x,y,z
_cell_length_a                    65.6248
_cell_length_b                    65.6248
_cell_length_c                    166.4848
_cell_angle_alpha                 90.0
_cell_angle_beta                 90.0
_cell_angle_gamma                 120.0
loop_
_atom_site_label
_atom_site_type_symbol
_atom_site_fract_x
_atom_site_fract_y
_atom_site_fract_z
V1     V     0.2691   0.1345   0.0994
Ti2     Ti     0.3828   0.2676   0.0648
Ti3     Ti     0.3828   0.1152   0.0648
Er4     Er     0.4405   0.2202   0.113
S5     S     0.1016   0.0508   0.1179
V6     V     0.8655   0.7309   0.0994
Ti7     Ti     0.8848   0.6172   0.0648
Ti8     Ti     0.7324   0.6172   0.0648
Er9     Er     0.7798   0.5595   0.113
S10     S     0.9492   0.8984   0.1179
H11     H     0.7175   0.2825   0.1554
H12     H     0.7175   0.4349   0.1554
H13     H     0.5651   0.2825   0.1554
V14     V     0.8655   0.1345   0.0994
Ti15     Ti     0.7324   0.1152   0.0648
Ti16     Ti     0.8848   0.2676   0.0648
Er17     Er     0.7798   0.2202   0.113
S18     S     0.9492   0.0508   0.1179
Ce19     Ce     0.9543   0.5533   0.0257
Ce20     Ce     0.0457   0.599   0.9743
Ce21     Ce     0.9543   0.401   0.0257
Ce22     Ce     0.0457   0.4467   0.9743
Ce23     Ce     0.599   0.5533   0.0257
Ce24     Ce     0.5533   0.599   0.9743
Ce25     Ce     0.4467   0.401   0.0257
Ce26     Ce     0.401   0.4467   0.9743
Ce27     Ce     0.599   0.0457   0.0257
Ce28     Ce     0.5533   0.9543   0.9743
Ce29     Ce     0.4467   0.0457   0.0257
Ce30     Ce     0.401   0.9543   0.9743
V31     V     0.1345   0.2691   0.9006
Ti32     Ti     0.1152   0.3828   0.9352
Ti33     Ti     0.2676   0.3828   0.9352
Er34     Er     0.2202   0.4405   0.887
S35     S     0.0508   0.1016   0.8821
V36     V     0.7309   0.8655   0.9006
Ti37     Ti     0.6172   0.7324   0.9352
Ti38     Ti     0.6172   0.8848   0.9352
Er39     Er     0.5595   0.7798   0.887
S40     S     0.8984   0.9492   0.8821
H41     H     0.2825   0.7175   0.8446
H42     H     0.4349   0.7175   0.8446
H43     H     0.2825   0.5651   0.8446
S44     S     0.0508   0.9492   0.8821
V45     V     0.1345   0.8655   0.9006
Ti46     Ti     0.1152   0.7324   0.9352
Ti47     Ti     0.2676   0.8848   0.9352
Er48     Er     0.2202   0.7798   0.887
Ce49     Ce     0.1133   0.379   0.359
Ce50     Ce     0.0676   0.2876   0.3077
Ce51     Ce     0.2657   0.379   0.359
Ce52     Ce     0.22   0.2876   0.3077
Ce53     Ce     0.621   0.8867   0.359
Ce54     Ce     0.7124   0.9324   0.3077
Ce55     Ce     0.7124   0.78   0.3077
Ce56     Ce     0.621   0.7343   0.359
V57     V     0.9357   0.4679   0.4328
Ti58     Ti     0.0495   0.6009   0.3982
Ti59     Ti     0.0495   0.4485   0.3982
Er60     Er     0.1072   0.5536   0.4463
S61     S     0.7683   0.3841   0.4512
S62     S     0.6159   0.3841   0.4512
V63     V     0.5321   0.4679   0.4328
Ti64     Ti     0.5515   0.6009   0.3982
Ti65     Ti     0.3991   0.4485   0.3982
Er66     Er     0.4464   0.5536   0.4463
H67     H     0.3841   0.7682   0.4887
H68     H     0.2318   0.6159   0.4887
H69     H     0.3841   0.6159   0.4887
S70     S     0.6159   0.2317   0.4512
V71     V     0.5321   0.0643   0.4328
Ti72     Ti     0.5515   0.9505   0.3982
Ti73     Ti     0.3991   0.9505   0.3982
Er74     Er     0.4464   0.8928   0.4463
Ce75     Ce     0.1133   0.7343   0.359
Ce76     Ce     0.0676   0.78   0.3077
Ce77     Ce     0.2657   0.8867   0.359
Ce78     Ce     0.22   0.9324   0.3077
V79     V     0.3976   0.1988   0.2339
Ti80     Ti     0.2839   0.0657   0.2685
Ti81     Ti     0.2839   0.2181   0.2685
Er82     Er     0.2262   0.1131   0.2204
S83     S     0.5651   0.2825   0.2155
V84     V     0.8012   0.1988   0.2339
Ti85     Ti     0.9343   0.2181   0.2685
Ti86     Ti     0.7819   0.0657   0.2685
Er87     Er     0.8869   0.1131   0.2204
S88     S     0.7175   0.2825   0.2155
H89     H     0.1016   0.0508   0.178
H90     H     0.9492   0.8984   0.178
H91     H     0.9492   0.0508   0.178
S92     S     0.7175   0.4349   0.2155
V93     V     0.8012   0.6024   0.2339
Ti94     Ti     0.7819   0.7161   0.2685
Ti95     Ti     0.9343   0.7161   0.2685
Er96     Er     0.8869   0.7738   0.2204
S97     S     0.4349   0.7175   0.7845
V98     V     0.6024   0.8012   0.7661
Ti99     Ti     0.7161   0.9343   0.7315
Ti100     Ti     0.7161   0.7819   0.7315
Er101     Er     0.7738   0.8869   0.7796
S102     S     0.2825   0.5651   0.7845
V103     V     0.1988   0.3976   0.7661
Ti104     Ti     0.0657   0.2839   0.7315
Ti105     Ti     0.2181   0.2839   0.7315
Er106     Er     0.1131   0.2262   0.7796
H107     H     0.0508   0.9492   0.822
H108     H     0.0508   0.1016   0.822
H109     H     0.8984   0.9492   0.822
S110     S     0.2825   0.7175   0.7845
V111     V     0.1988   0.8012   0.7661
Ti112     Ti     0.2181   0.9343   0.7315
Ti113     Ti     0.0657   0.7819   0.7315
Er114     Er     0.1131   0.8869   0.7796
Ce115     Ce     0.7343   0.1133   0.641
Ce116     Ce     0.78   0.0676   0.6923
Ce117     Ce     0.8867   0.2657   0.641
Ce118     Ce     0.9324   0.22   0.6923
Ce119     Ce     0.7343   0.621   0.641
Ce120     Ce     0.78   0.7124   0.6923
Ce121     Ce     0.8867   0.621   0.641
Ce122     Ce     0.9324   0.7124   0.6923
Ce123     Ce     0.379   0.2657   0.641
Ce124     Ce     0.2876   0.22   0.6923
Ce125     Ce     0.2876   0.0676   0.6923
Ce126     Ce     0.379   0.1133   0.641
S127     S     0.2317   0.6159   0.5488
V128     V     0.0643   0.5321   0.5672
Ti129     Ti     0.9505   0.5515   0.6018
Ti130     Ti     0.9505   0.3991   0.6018
Er131     Er     0.8928   0.4464   0.5537
V132     V     0.4679   0.9357   0.5672
Ti133     Ti     0.4485   0.0495   0.6018
Ti134     Ti     0.6009   0.0495   0.6018
Er135     Er     0.5536   0.1072   0.5537
S136     S     0.3841   0.7683   0.5488
H137     H     0.7682   0.3841   0.5113
H138     H     0.6159   0.3841   0.5113
H139     H     0.6159   0.2318   0.5113
S140     S     0.3841   0.6159   0.5488
V141     V     0.4679   0.5321   0.5672
Ti142     Ti     0.4485   0.3991   0.6018
Ti143     Ti     0.6009   0.5515   0.6018
Er144     Er     0.5536   0.4464   0.5537
loop_
_geom_bond_atom_site_label_1
_geom_bond_atom_site_label_2
_geom_bond_distance
_geom_bond_site_symmetry_2
_ccdc_geom_bond_type
V1     Ti3    9.999   .     S
V1     Ti2    9.999   .     S
V1     Er4    10.0   .     S
V1     S5    10.0   .     S
Ti2     Er4    9.999   .     S
Ti2     Ti3    10.0   .     S
Ti2     Ce25    10.001   .     S
Ti3     Er4    9.999   .     S
Ti3     Ce29    10.001   .     S
Er4     H13    10.0   .     S
S5     H89    10.001   .     S
S5     S18    10.001   1_455     S
S5     S10    10.001   1_445     S
V6     Ti7    9.999   .     S
V6     Ti8    9.999   .     S
V6     Er9    10.0   .     S
V6     S10    10.0   .     S
Ti7     Er9    9.999   .     S
Ti7     Ti8    10.0   .     S
Ti7     Ce19    10.001   .     S
Ti8     Er9    9.999   .     S
Ti8     Ce23    10.001   .     S
Er9     H12    10.0   .     S
S10     H90    10.001   .     S
S10     S18    10.001   1_565     S
S10     S5    10.001   1_665     S
H11     H13    9.999   .     S
H11     H12    9.999   .     S
H11     Er17    10.0   .     S
H11     S88    10.001   .     S
H12     H13    9.999   .     S
H12     S92    10.001   .     S
H13     S83    10.001   .     S
V14     Er17    10.0   .     S
V14     Ti16    9.999   .     S
V14     Ti15    9.999   .     S
V14     S18    10.0   .     S
Ti15     Er17    9.999   .     S
Ti15     Ti16    10.0   .     S
Ti15     Ce27    10.001   .     S
Ti16     Er17    9.999   .     S
Ti16     Ce21    10.001   .     S
S18     H91    10.001   .     S
S18     S5    10.001   1_655     S
S18     S10    10.001   1_545     S
Ce19     Ce20    10.0   1_654     S
Ce19     Ce21    10.0   .     S
Ce20     Ce19    10.0   1_456     S
Ce20     Ti46    10.001   .     S
Ce20     Ce22    10.0   .     S
Ce21     Ce22    10.0   1_654     S
Ce22     Ce21    10.0   1_456     S
Ce22     Ti32    10.001   .     S
Ce23     Ce24    10.0   1_554     S
Ce23     Ce25    10.0   .     S
Ce24     Ce23    10.0   1_556     S
Ce24     Ti37    10.001   .     S
Ce24     Ce26    10.0   .     S
Ce25     Ce26    10.0   1_554     S
Ce26     Ce25    10.0   1_556     S
Ce26     Ti33    10.001   .     S
Ce27     Ce28    10.0   1_544     S
Ce27     Ce29    10.0   .     S
Ce28     Ce27    10.0   1_566     S
Ce28     Ti38    10.001   .     S
Ce28     Ce30    10.0   .     S
Ce29     Ce30    10.0   1_544     S
Ce30     Ce29    10.0   1_566     S
Ce30     Ti47    10.001   .     S
V31     Ti33    9.999   .     S
V31     Ti32    9.999   .     S
V31     Er34    10.0   .     S
V31     S35    10.0   .     S
Ti32     Er34    9.999   .     S
Ti32     Ti33    10.0   .     S
Ti33     Er34    9.999   .     S
Er34     H43    10.0   .     S
S35     H108    10.001   .     S
S35     S44    10.001   1_545     S
S35     S40    10.001   1_445     S
V36     Ti37    9.999   .     S
V36     Ti38    9.999   .     S
V36     Er39    10.0   .     S
V36     S40    10.0   .     S
Ti37     Er39    9.999   .     S
Ti37     Ti38    10.0   .     S
Ti38     Er39    9.999   .     S
Er39     H42    10.0   .     S
S40     H109    10.001   .     S
S40     S35    10.001   1_665     S
S40     S44    10.001   1_655     S
H41     H43    9.999   .     S
H41     H42    9.999   .     S
H41     Er48    10.0   .     S
H41     S110    10.001   .     S
H42     H43    9.999   .     S
H42     S97    10.001   .     S
H43     S102    10.001   .     S
S44     H107    10.001   .     S
S44     V45    10.0   .     S
S44     S35    10.001   1_565     S
S44     S40    10.001   1_455     S
V45     Er48    10.0   .     S
V45     Ti46    9.999   .     S
V45     Ti47    9.999   .     S
Ti46     Er48    9.999   .     S
Ti46     Ti47    10.0   .     S
Ti47     Er48    9.999   .     S
Ce49     Ce50    10.0   .     S
Ce49     Ti59    10.001   .     S
Ce49     Ce51    10.0   .     S
Ce50     Ti85    10.001   1_455     S
Ce50     Ce52    10.0   .     S
Ce51     Ce52    10.0   .     S
Ce51     Ti65    10.001   .     S
Ce52     Ti81    10.001   .     S
Ce53     Ce54    10.0   .     S
Ce53     Ti72    10.001   .     S
Ce53     Ce56    10.0   .     S
Ce54     Ti86    10.001   1_565     S
Ce54     Ce55    10.0   .     S
Ce55     Ce56    10.0   .     S
Ce55     Ti94    10.001   .     S
Ce56     Ti64    10.001   .     S
V57     Ti59    9.999   1_655     S
V57     Ti58    9.999   1_655     S
V57     Er60    10.0   1_655     S
V57     S61    10.0   .     S
Ti58     V57    9.999   1_455     S
Ti58     Er60    9.999   .     S
Ti58     Ti59    10.0   .     S
Ti58     Ce75    10.001   .     S
Ti59     V57    9.999   1_455     S
Ti59     Er60    9.999   .     S
Er60     V57    10.0   1_455     S
Er60     H68    10.0   .     S
S61     H137    10.001   .     S
S61     S62    10.001   .     S
S61     S70    10.001   .     S
S62     H138    10.001   .     S
S62     V63    10.0   .     S
S62     S70    10.001   .     S
V63     Er66    10.0   .     S
V63     Ti65    9.999   .     S
V63     Ti64    9.999   .     S
Ti64     Er66    9.999   .     S
Ti64     Ti65    10.0   .     S
Ti65     Er66    9.999   .     S
Er66     H69    10.0   .     S
H67     H68    9.999   .     S
H67     H69    9.999   .     S
H67     Er74    10.0   .     S
H67     S136    10.001   .     S
H68     H69    9.999   .     S
H68     S127    10.001   .     S
H69     S140    10.001   .     S
S70     H139    10.001   .     S
S70     V71    10.0   .     S
V71     Er74    10.0   1_545     S
V71     Ti72    9.999   1_545     S
V71     Ti73    9.999   1_545     S
Ti72     V71    9.999   1_565     S
Ti72     Er74    9.999   .     S
Ti72     Ti73    10.0   .     S
Ti73     V71    9.999   1_565     S
Ti73     Er74    9.999   .     S
Ti73     Ce77    10.001   .     S
Er74     V71    10.0   1_565     S
Ce75     Ce76    10.0   .     S
Ce75     Ce77    10.0   .     S
Ce76     Ti95    10.001   1_455     S
Ce76     Ce78    10.0   .     S
Ce77     Ce78    10.0   .     S
Ce78     Ti80    10.001   1_565     S
V79     Er82    10.0   .     S
V79     Ti81    9.999   .     S
V79     Ti80    9.999   .     S
V79     S83    10.0   .     S
Ti80     Ce78    10.001   1_545     S
Ti80     Er82    9.999   .     S
Ti80     Ti81    10.0   .     S
Ti81     Er82    9.999   .     S
Er82     H89    10.0   .     S
S83     S88    10.001   .     S
S83     S92    10.001   .     S
V84     Er87    10.0   .     S
V84     Ti86    9.999   .     S
V84     Ti85    9.999   .     S
V84     S88    10.0   .     S
Ti85     Ce50    10.001   1_655     S
Ti85     Er87    9.999   .     S
Ti85     Ti86    10.0   .     S
Ti86     Ce54    10.001   1_545     S
Ti86     Er87    9.999   .     S
Er87     H91    10.0   .     S
S88     S92    10.001   .     S
H89     H90    9.999   1_445     S
H89     H91    9.999   1_455     S
H90     H89    9.999   1_665     S
H90     Er96    10.0   .     S
H90     H91    9.999   1_565     S
H91     H89    9.999   1_655     S
H91     H90    9.999   1_545     S
S92     V93    10.0   .     S
V93     Er96    10.0   .     S
V93     Ti94    9.999   .     S
V93     Ti95    9.999   .     S
Ti94     Er96    9.999   .     S
Ti94     Ti95    10.0   .     S
Ti95     Ce76    10.001   1_655     S
Ti95     Er96    9.999   .     S
S97     V98    10.0   .     S
S97     S110    10.001   .     S
S97     S102    10.001   .     S
V98     Er101    10.0   .     S
V98     Ti99    9.999   .     S
V98     Ti100    9.999   .     S
Ti99     Er101    9.999   .     S
Ti99     Ti100    10.0   .     S
Ti99     Ce116    10.001   1_565     S
Ti100     Er101    9.999   .     S
Ti100     Ce120    10.001   .     S
Er101     H109    10.0   .     S
S102     V103    10.0   .     S
S102     S110    10.001   .     S
V103     Er106    10.0   .     S
V103     Ti105    9.999   .     S
V103     Ti104    9.999   .     S
Ti104     Er106    9.999   .     S
Ti104     Ti105    10.0   .     S
Ti104     Ce118    10.001   1_455     S
Ti105     Er106    9.999   .     S
Ti105     Ce124    10.001   .     S
Er106     H108    10.0   .     S
H107     H109    9.999   1_455     S
H107     Er114    10.0   .     S
H107     H108    9.999   1_565     S
H108     H109    9.999   1_445     S
H108     H107    9.999   1_545     S
H109     H107    9.999   1_655     S
H109     H108    9.999   1_665     S
S110     V111    10.0   .     S
V111     Er114    10.0   .     S
V111     Ti112    9.999   .     S
V111     Ti113    9.999   .     S
Ti112     Er114    9.999   .     S
Ti112     Ti113    10.0   .     S
Ti112     Ce125    10.001   1_565     S
Ti113     Er114    9.999   .     S
Ti113     Ce122    10.001   1_455     S
Ce115     Ce116    10.0   .     S
Ce115     Ti134    10.001   .     S
Ce115     Ce117    10.0   .     S
Ce116     Ti99    10.001   1_545     S
Ce116     Ce118    10.0   .     S
Ce117     Ce118    10.0   .     S
Ce117     Ti130    10.001   .     S
Ce118     Ti104    10.001   1_655     S
Ce119     Ce120    10.0   .     S
Ce119     Ti143    10.001   .     S
Ce119     Ce121    10.0   .     S
Ce120     Ce122    10.0   .     S
Ce121     Ce122    10.0   .     S
Ce121     Ti129    10.001   .     S
Ce122     Ti113    10.001   1_655     S
Ce123     Ce124    10.0   .     S
Ce123     Ti142    10.001   .     S
Ce123     Ce126    10.0   .     S
Ce124     Ce125    10.0   .     S
Ce125     Ce126    10.0   .     S
Ce125     Ti112    10.001   1_545     S
Ce126     Ti133    10.001   .     S
S127     V128    10.0   .     S
S127     S136    10.001   .     S
S127     S140    10.001   .     S
V128     Er131    10.0   1_455     S
V128     Ti129    9.999   1_455     S
V128     Ti130    9.999   1_455     S
Ti129     V128    9.999   1_655     S
Ti129     Er131    9.999   .     S
Ti129     Ti130    10.0   .     S
Ti130     V128    9.999   1_655     S
Ti130     Er131    9.999   .     S
Er131     V128    10.0   1_655     S
Er131     H137    10.0   .     S
V132     Ti133    9.999   1_565     S
V132     Ti134    9.999   1_565     S
V132     Er135    10.0   1_565     S
V132     S136    10.0   .     S
Ti133     V132    9.999   1_545     S
Ti133     Er135    9.999   .     S
Ti133     Ti134    10.0   .     S
Ti134     V132    9.999   1_545     S
Ti134     Er135    9.999   .     S
Er135     V132    10.0   1_545     S
Er135     H139    10.0   .     S
S136     S140    10.001   .     S
H137     H138    9.999   .     S
H137     H139    9.999   .     S
H138     H139    9.999   .     S
H138     Er144    10.0   .     S
S140     V141    10.0   .     S
V141     Er144    10.0   .     S
V141     Ti142    9.999   .     S
V141     Ti143    9.999   .     S
Ti142     Er144    9.999   .     S
Ti142     Ti143    10.0   .     S
Ti143     Er144    9.999   .     S
