data_hyla
_audit_creation_date              2020-02-04
_audit_creation_method            'Pymatgen'
_symmetry_space_group_name_H-M    'P1'
_symmetry_Int_Tables_number       1
loop_
_symmetry_equiv_pos_as_xyz
  x,y,z
_cell_length_a                    69.9627
_cell_length_b                    69.9627
_cell_length_c                    173.9567
_cell_angle_alpha                 90.0
_cell_angle_beta                 90.0
_cell_angle_gamma                 120.0
loop_
_atom_site_label
_atom_site_type_symbol
_atom_site_fract_x
_atom_site_fract_y
_atom_site_fract_z
Er1     Er     0.3333   0.2381   0.1667
Er2     Er     0.3333   0.0952   0.1667
Er3     Er     0.9048   0.6667   0.1667
Er4     Er     0.7619   0.6667   0.1667
Er5     Er     0.9048   0.2381   0.1667
Er6     Er     0.7619   0.0952   0.1667
H7     H     0.0476   0.9524   0.3061
H8     H     0.0476   0.0953   0.3061
H9     H     0.9047   0.9524   0.3061
Ce10     Ce     0.7488   0.8744   0.2873
Ce11     Ce     0.1256   0.2512   0.2873
Ce12     Ce     0.1256   0.8744   0.2873
Ti13     Ti     0.208   0.416   0.2837
Ti14     Ti     0.208   0.792   0.2837
He15     He     0.4286   0.7143   0.3031
He16     He     0.2857   0.7143   0.3031
He17     He     0.2857   0.5714   0.3031
Ti18     Ti     0.584   0.792   0.2837
S19     S     0.6735   0.9082   0.2449
S20     S     0.5749   0.0069   0.0884
V21     V     0.6602   0.9493   0.191
V22     V     0.616   0.9935   0.1424
S23     S     0.2347   0.9082   0.2449
S24     S     0.432   0.0069   0.0884
V25     V     0.2892   0.9493   0.191
V26     V     0.3775   0.9935   0.1424
S27     S     0.0918   0.7653   0.2449
S28     S     0.9931   0.568   0.0884
V29     V     0.0065   0.6225   0.1424
V30     V     0.0507   0.7108   0.191
S31     S     0.0918   0.3265   0.2449
S32     S     0.9931   0.4251   0.0884
V33     V     0.0507   0.3398   0.191
V34     V     0.0065   0.384   0.1424
S35     S     0.2347   0.3265   0.2449
S36     S     0.432   0.4251   0.0884
V37     V     0.2892   0.3398   0.191
V38     V     0.3775   0.384   0.1424
S39     S     0.6735   0.7653   0.2449
S40     S     0.5749   0.568   0.0884
V41     V     0.616   0.6225   0.1424
V42     V     0.6602   0.7108   0.191
Ce43     Ce     0.541   0.459   0.0461
Ce44     Ce     0.9179   0.459   0.0461
Ce45     Ce     0.541   0.0821   0.0461
Ti46     Ti     0.4587   0.5413   0.0496
Ti47     Ti     0.0826   0.5413   0.0496
He48     He     0.238   0.619   0.0302
He49     He     0.381   0.619   0.0302
He50     He     0.381   0.762   0.0302
Ti51     Ti     0.4587   0.9174   0.0496
H52     H     0.619   0.381   0.0273
H53     H     0.762   0.381   0.0273
H54     H     0.619   0.238   0.0273
Er55     Er     0.4285   0.0   0.5
Er56     Er     0.5715   0.0   0.5
Er57     Er     0.4285   0.4285   0.5
Er58     Er     0.5715   0.5715   0.5
Er59     Er     0.0   0.4285   0.5
Er60     Er     0.0   0.5715   0.5
Ce61     Ce     0.5846   0.7923   0.3794
Ce62     Ce     0.2077   0.4154   0.3794
Ce63     Ce     0.2077   0.7923   0.3794
Ti64     Ti     0.7493   0.8746   0.3829
Ti65     Ti     0.1253   0.2507   0.3829
He66     He     0.9047   0.9524   0.3636
He67     He     0.0476   0.0953   0.3636
He68     He     0.0476   0.9524   0.3636
Ti69     Ti     0.1253   0.8747   0.3829
H70     H     0.4286   0.7143   0.3606
H71     H     0.2857   0.7143   0.3606
H72     H     0.2857   0.5714   0.3606
S73     S     0.0986   0.7584   0.4217
S74     S     0.9014   0.6598   0.5783
V75     V     0.0442   0.7173   0.4757
V76     V     0.9558   0.6732   0.5243
S77     S     0.2416   0.3402   0.4217
S78     S     0.3402   0.2416   0.5783
V79     V     0.3268   0.2827   0.5243
V80     V     0.2827   0.3268   0.4757
S81     S     0.2416   0.9014   0.4217
S82     S     0.3402   0.0986   0.5783
V83     V     0.3268   0.0442   0.5243
V84     V     0.2827   0.9558   0.4757
S85     S     0.6598   0.7584   0.4217
S86     S     0.7584   0.6598   0.5783
V87     V     0.7173   0.6732   0.5243
V88     V     0.6732   0.7173   0.4757
S89     S     0.0986   0.3402   0.4217
S90     S     0.9014   0.2416   0.5783
V91     V     0.9558   0.2827   0.5243
V92     V     0.0442   0.3268   0.4757
S93     S     0.6598   0.9014   0.4217
S94     S     0.7584   0.0986   0.5783
V95     V     0.7173   0.0442   0.5243
V96     V     0.6732   0.9558   0.4757
Ce97     Ce     0.7923   0.5846   0.6206
Ce98     Ce     0.4154   0.2077   0.6206
Ce99     Ce     0.7923   0.2077   0.6206
Ti100     Ti     0.2507   0.1253   0.6171
He101     He     0.9524   0.9047   0.6364
He102     He     0.0953   0.0476   0.6364
He103     He     0.9524   0.0476   0.6364
Ti104     Ti     0.8747   0.1253   0.6171
Ti105     Ti     0.8746   0.7493   0.6171
H106     H     0.7143   0.2857   0.6394
H107     H     0.7143   0.4286   0.6394
H108     H     0.5714   0.2857   0.6394
Er109     Er     0.2381   0.3333   0.8333
Er110     Er     0.0952   0.3333   0.8333
Er111     Er     0.6667   0.9048   0.8333
Er112     Er     0.6667   0.7619   0.8333
Er113     Er     0.2381   0.9048   0.8333
Er114     Er     0.0952   0.7619   0.8333
H115     H     0.381   0.619   0.9727
H116     H     0.381   0.762   0.9727
H117     H     0.238   0.619   0.9727
Ce118     Ce     0.459   0.541   0.9539
Ce119     Ce     0.459   0.9179   0.9539
Ce120     Ce     0.0821   0.541   0.9539
Ti121     Ti     0.9174   0.4587   0.9504
Ti122     Ti     0.5413   0.0826   0.9504
He123     He     0.619   0.238   0.9698
He124     He     0.619   0.381   0.9698
He125     He     0.762   0.381   0.9698
Ti126     Ti     0.5413   0.4587   0.9504
S127     S     0.568   0.5749   0.9116
S128     S     0.7653   0.6735   0.7551
V129     V     0.7108   0.6602   0.8091
V130     V     0.6225   0.616   0.8576
S131     S     0.0069   0.5749   0.9116
S132     S     0.9082   0.6735   0.7551
V133     V     0.9493   0.6602   0.8091
V134     V     0.9935   0.616   0.8576
S135     S     0.0069   0.432   0.9116
S136     S     0.9082   0.2347   0.7551
V137     V     0.9493   0.2892   0.8091
V138     V     0.9935   0.3775   0.8576
S139     S     0.3265   0.0918   0.7551
S140     S     0.4251   0.9931   0.9116
V141     V     0.3398   0.0507   0.8091
V142     V     0.384   0.0065   0.8576
S143     S     0.4251   0.432   0.9116
S144     S     0.3265   0.2347   0.7551
V145     V     0.3398   0.2892   0.8091
V146     V     0.384   0.3775   0.8576
S147     S     0.568   0.9931   0.9116
S148     S     0.7653   0.0918   0.7551
V149     V     0.7108   0.0507   0.8091
V150     V     0.6225   0.0065   0.8576
H151     H     0.9524   0.0476   0.6939
H152     H     0.0953   0.0476   0.6939
H153     H     0.9524   0.9047   0.6939
Ce154     Ce     0.2512   0.1256   0.7127
Ce155     Ce     0.8744   0.7488   0.7127
Ce156     Ce     0.8744   0.1256   0.7127
Ti157     Ti     0.792   0.584   0.7163
Ti158     Ti     0.416   0.208   0.7163
Ti159     Ti     0.792   0.208   0.7163
He160     He     0.7143   0.2857   0.6969
He161     He     0.7143   0.4286   0.6969
He162     He     0.5714   0.2857   0.6969
loop_
_geom_bond_atom_site_label_1
_geom_bond_atom_site_label_2
_geom_bond_distance
_geom_bond_site_symmetry_2
_ccdc_geom_bond_type
Er1     Er2    9.999   .     S
Er1     V38    10.0   .     S
Er1     V37    10.0   .     S
Er2     V26    10.0   1_545     S
Er2     V25    10.0   1_545     S
Er3     Er4    9.999   .     S
Er3     V29    10.0   1_655     S
Er3     V30    10.0   1_655     S
Er4     V41    10.0   .     S
Er4     V42    10.0   .     S
Er5     Er6    9.999   .     S
Er5     V34    10.0   1_655     S
Er5     V33    10.0   1_655     S
Er6     V22    10.0   1_545     S
Er6     V21    10.0   1_545     S
H7     H8    10.0   1_565     S
H7     H9    10.0   1_455     S
H7     Ce12    10.001   .     S
H7     He68    10.001   .     S
H8     H7    10.0   1_545     S
H8     H9    10.0   1_445     S
H8     Ce11    10.001   .     S
H8     He67    10.001   .     S
H9     H8    10.0   1_665     S
H9     H7    10.0   1_655     S
H9     Ce10    10.001   .     S
H9     He66    10.001   .     S
Ce10     Ti18    10.0   .     S
Ce10     S39    10.001   .     S
Ce10     S19    10.001   .     S
Ce11     Ti13    10.0   .     S
Ce11     S31    10.001   .     S
Ce11     S35    10.001   .     S
Ce12     Ti14    10.0   .     S
Ce12     S23    10.001   .     S
Ce12     S27    10.001   .     S
Ti13     S31    10.001   .     S
Ti13     S35    10.001   .     S
Ti13     He17    10.0   .     S
Ti14     He16    10.0   .     S
Ti14     S23    10.001   .     S
Ti14     S27    10.001   .     S
He15     H70    10.001   .     S
He15     He17    10.0   .     S
He15     He16    10.0   .     S
He15     Ti18    10.0   .     S
He16     H71    10.001   .     S
He16     He17    10.0   .     S
He17     H72    10.001   .     S
Ti18     S39    10.001   .     S
Ti18     S19    10.001   .     S
S19     V21    9.999   .     S
S19     S39    10.0   .     S
S20     V22    9.999   1_545     S
S20     S24    10.0   .     S
S20     Ti51    10.001   1_545     S
S20     Ce45    10.001   .     S
V21     V22    10.001   .     S
V21     Er6    10.0   1_565     S
V22     S20    9.999   1_565     S
V22     Er6    10.0   1_565     S
S23     V25    9.999   .     S
S23     S27    10.0   .     S
S24     V26    9.999   1_545     S
S24     Ti51    10.001   1_545     S
S24     Ce45    10.001   .     S
V25     V26    10.001   .     S
V25     Er2    10.0   1_565     S
V26     S24    9.999   1_565     S
V26     Er2    10.0   1_565     S
S27     V30    9.999   .     S
S28     V29    9.999   1_655     S
S28     S32    10.0   .     S
S28     Ti47    10.001   1_655     S
S28     Ce44    10.001   .     S
V29     S28    9.999   1_455     S
V29     V30    10.001   .     S
V29     Er3    10.0   1_455     S
V30     Er3    10.0   1_455     S
S31     V33    9.999   .     S
S31     S35    10.0   .     S
S32     V34    9.999   1_655     S
S32     Ti47    10.001   1_655     S
S32     Ce44    10.001   .     S
V33     V34    10.001   .     S
V33     Er5    10.0   1_455     S
V34     S32    9.999   1_455     S
V34     Er5    10.0   1_455     S
S35     V37    9.999   .     S
S36     V38    9.999   .     S
S36     S40    10.0   .     S
S36     Ti46    10.001   .     S
S36     Ce43    10.001   .     S
V37     V38    10.001   .     S
S39     V42    9.999   .     S
S40     V41    9.999   .     S
S40     Ti46    10.001   .     S
S40     Ce43    10.001   .     S
V41     V42    10.001   .     S
Ce43     Ti46    10.0   .     S
Ce43     H52    10.001   .     S
Ce44     Ti47    10.0   1_655     S
Ce44     H53    10.001   .     S
Ce45     Ti51    10.0   1_545     S
Ce45     H54    10.001   .     S
Ti46     He49    10.0   .     S
Ti47     Ce44    10.0   1_455     S
Ti47     S32    10.001   1_455     S
Ti47     S28    10.001   1_455     S
Ti47     He48    10.0   .     S
He48     H117    10.001   1_554     S
He48     He50    10.0   .     S
He48     He49    10.0   .     S
He49     H115    10.001   1_554     S
He49     He50    10.0   .     S
He50     H116    10.001   1_554     S
He50     Ti51    10.0   .     S
Ti51     Ce45    10.0   1_565     S
Ti51     S24    10.001   1_565     S
Ti51     S20    10.001   1_565     S
H52     H53    10.0   .     S
H52     H54    10.0   .     S
H52     He124    10.001   1_554     S
H53     H54    10.0   .     S
H53     He125    10.001   1_554     S
H54     He123    10.001   1_554     S
Er55     Er56    9.999   .     S
Er55     V83    10.0   .     S
Er55     V84    10.0   1_545     S
Er56     V96    10.0   1_545     S
Er56     V95    10.0   .     S
Er57     Er58    9.999   .     S
Er57     V80    10.0   .     S
Er57     V79    10.0   .     S
Er58     V88    10.0   .     S
Er58     V87    10.0   .     S
Er59     Er60    9.999   .     S
Er59     V92    10.0   .     S
Er59     V91    10.0   1_455     S
Er60     V76    10.0   1_455     S
Er60     V75    10.0   .     S
Ce61     Ti64    10.0   .     S
Ce61     S85    10.001   .     S
Ce61     S93    10.001   .     S
Ce61     H70    10.001   .     S
Ce62     Ti65    10.0   .     S
Ce62     S77    10.001   .     S
Ce62     S89    10.001   .     S
Ce62     H72    10.001   .     S
Ce63     Ti69    10.0   .     S
Ce63     S81    10.001   .     S
Ce63     S73    10.001   .     S
Ce63     H71    10.001   .     S
Ti64     S85    10.001   .     S
Ti64     S93    10.001   .     S
Ti64     He66    10.0   .     S
Ti65     S89    10.001   .     S
Ti65     S77    10.001   .     S
Ti65     He67    10.0   .     S
He66     He67    10.0   1_665     S
He66     He68    10.0   1_655     S
He67     He68    10.0   1_545     S
He67     He66    10.0   1_445     S
He68     He67    10.0   1_565     S
He68     He66    10.0   1_455     S
He68     Ti69    10.0   .     S
Ti69     S81    10.001   .     S
Ti69     S73    10.001   .     S
H70     H71    10.0   .     S
H70     H72    10.0   .     S
H71     H72    10.0   .     S
S73     V75    9.999   .     S
S73     S81    10.0   .     S
S74     V76    9.999   .     S
S74     S86    10.0   .     S
S74     Ti105    10.001   .     S
S74     Ce97    10.001   .     S
V75     V76    10.001   1_455     S
V76     V75    10.001   1_655     S
V76     Er60    10.0   1_655     S
S77     V80    9.999   .     S
S77     S89    10.0   .     S
S78     V79    9.999   .     S
S78     S82    10.0   .     S
S78     Ti100    10.001   .     S
S78     Ce98    10.001   .     S
V79     V80    10.001   .     S
S81     V84    9.999   .     S
S82     V83    9.999   .     S
S82     Ti100    10.001   .     S
S82     Ce98    10.001   .     S
V83     V84    10.001   1_545     S
V84     V83    10.001   1_565     S
V84     Er55    10.0   1_565     S
S85     V88    9.999   .     S
S85     S93    10.0   .     S
S86     V87    9.999   .     S
S86     Ti105    10.001   .     S
S86     Ce97    10.001   .     S
V87     V88    10.001   .     S
S89     V92    9.999   .     S
S90     V91    9.999   .     S
S90     S94    10.0   .     S
S90     Ti104    10.001   .     S
S90     Ce99    10.001   .     S
V91     V92    10.001   1_655     S
V91     Er59    10.0   1_655     S
V92     V91    10.001   1_455     S
S93     V96    9.999   .     S
S94     V95    9.999   .     S
S94     Ti104    10.001   .     S
S94     Ce99    10.001   .     S
V95     V96    10.001   1_545     S
V96     V95    10.001   1_565     S
V96     Er56    10.0   1_565     S
Ce97     Ti105    10.0   .     S
Ce97     H107    10.001   .     S
Ce98     Ti100    10.0   .     S
Ce98     H108    10.001   .     S
Ce99     Ti104    10.0   .     S
Ce99     H106    10.001   .     S
Ti100     He102    10.0   .     S
He101     H153    10.001   .     S
He101     He102    10.0   1_665     S
He101     He103    10.0   1_565     S
He101     Ti105    10.0   .     S
He102     H152    10.001   .     S
He102     He103    10.0   1_455     S
He102     He101    10.0   1_445     S
He103     H151    10.001   .     S
He103     He102    10.0   1_655     S
He103     He101    10.0   1_545     S
He103     Ti104    10.0   .     S
H106     H108    10.0   .     S
H106     H107    10.0   .     S
H106     He160    10.001   .     S
H107     H108    10.0   .     S
H107     He161    10.001   .     S
H108     He162    10.001   .     S
Er109     Er110    9.999   .     S
Er109     V146    10.0   .     S
Er109     V145    10.0   .     S
Er110     V138    10.0   1_455     S
Er110     V137    10.0   1_455     S
Er111     Er112    9.999   .     S
Er111     V150    10.0   1_565     S
Er111     V149    10.0   1_565     S
Er112     V130    10.0   .     S
Er112     V129    10.0   .     S
Er113     Er114    9.999   .     S
Er113     V142    10.0   1_565     S
Er113     V141    10.0   1_565     S
Er114     V134    10.0   1_455     S
Er114     V133    10.0   1_455     S
H115     He49    10.001   1_556     S
H115     H116    10.0   .     S
H115     H117    10.0   .     S
H115     Ce118    10.001   .     S
H116     He50    10.001   1_556     S
H116     H117    10.0   .     S
H116     Ce119    10.001   .     S
H117     He48    10.001   1_556     S
H117     Ce120    10.001   .     S
Ce118     Ti126    10.0   .     S
Ce118     S143    10.001   .     S
Ce118     S127    10.001   .     S
Ce119     Ti122    10.0   1_565     S
Ce119     S140    10.001   .     S
Ce119     S147    10.001   .     S
Ce120     Ti121    10.0   1_455     S
Ce120     S135    10.001   .     S
Ce120     S131    10.001   .     S
Ti121     Ce120    10.0   1_655     S
Ti121     He125    10.0   .     S
Ti121     S135    10.001   1_655     S
Ti121     S131    10.001   1_655     S
Ti122     Ce119    10.0   1_545     S
Ti122     S140    10.001   1_545     S
Ti122     S147    10.001   1_545     S
Ti122     He123    10.0   .     S
He123     H54    10.001   1_556     S
He123     He125    10.0   .     S
He123     He124    10.0   .     S
He124     H52    10.001   1_556     S
He124     He125    10.0   .     S
He124     Ti126    10.0   .     S
He125     H53    10.001   1_556     S
Ti126     S127    10.001   .     S
Ti126     S143    10.001   .     S
S127     V130    9.999   .     S
S127     S143    10.0   .     S
S128     V129    9.999   .     S
S128     S132    10.0   .     S
S128     Ti157    10.001   .     S
S128     Ce155    10.001   .     S
V129     V130    10.001   .     S
S131     Ti121    10.001   1_455     S
S131     V134    9.999   1_455     S
S131     S135    10.0   .     S
S132     V133    9.999   .     S
S132     Ti157    10.001   .     S
S132     Ce155    10.001   .     S
V133     V134    10.001   .     S
V133     Er114    10.0   1_655     S
V134     S131    9.999   1_655     S
V134     Er114    10.0   1_655     S
S135     Ti121    10.001   1_455     S
S135     V138    9.999   1_455     S
S136     V137    9.999   .     S
S136     S148    10.0   .     S
S136     Ti159    10.001   .     S
S136     Ce156    10.001   .     S
V137     V138    10.001   .     S
V137     Er110    10.0   1_655     S
V138     S135    9.999   1_655     S
V138     Er110    10.0   1_655     S
S139     V141    9.999   .     S
S139     S144    10.0   .     S
S139     Ti158    10.001   .     S
S139     Ce154    10.001   .     S
S140     Ti122    10.001   1_565     S
S140     V142    9.999   1_565     S
S140     S147    10.0   .     S
V141     V142    10.001   .     S
V141     Er113    10.0   1_545     S
V142     S140    9.999   1_545     S
V142     Er113    10.0   1_545     S
S143     V146    9.999   .     S
S144     V145    9.999   .     S
S144     Ti158    10.001   .     S
S144     Ce154    10.001   .     S
V145     V146    10.001   .     S
S147     Ti122    10.001   1_565     S
S147     V150    9.999   1_565     S
S148     V149    9.999   .     S
S148     Ti159    10.001   .     S
S148     Ce156    10.001   .     S
V149     V150    10.001   .     S
V149     Er111    10.0   1_545     S
V150     S147    9.999   1_545     S
V150     Er111    10.0   1_545     S
H151     Ce156    10.001   .     S
H151     H152    10.0   1_655     S
H151     H153    10.0   1_545     S
H152     H151    10.0   1_455     S
H152     H153    10.0   1_445     S
H152     Ce154    10.001   .     S
H153     H152    10.0   1_665     S
H153     H151    10.0   1_565     S
H153     Ce155    10.001   .     S
Ce154     Ti158    10.0   .     S
Ce155     Ti157    10.0   .     S
Ce156     Ti159    10.0   .     S
Ti157     He161    10.0   .     S
Ti158     He162    10.0   .     S
Ti159     He160    10.0   .     S
He160     He162    10.0   .     S
He160     He161    10.0   .     S
He161     He162    10.0   .     S
