data_hyxa
_audit_creation_date              2020-02-04
_audit_creation_method            'Pymatgen'
_symmetry_space_group_name_H-M    'P1'
_symmetry_Int_Tables_number       1
loop_
_symmetry_equiv_pos_as_xyz
  x,y,z
_cell_length_a                    65.8962
_cell_length_b                    65.8962
_cell_length_c                    119.0986
_cell_angle_alpha                 90.0
_cell_angle_beta                 90.0
_cell_angle_gamma                 90.0
loop_
_atom_site_label
_atom_site_type_symbol
_atom_site_fract_x
_atom_site_fract_y
_atom_site_fract_z
Er1     Er     0.6742   0.7538   0.2081
Er2     Er     0.8258   0.7462   0.2081
Er3     Er     0.6742   0.7462   0.2919
Er4     Er     0.8258   0.7538   0.2919
Er5     Er     0.2462   0.1742   0.2919
Er6     Er     0.2538   0.3258   0.2919
Er7     Er     0.2538   0.1742   0.2081
Er8     Er     0.2462   0.3258   0.2081
Er9     Er     0.1742   0.2538   0.7919
Er10     Er     0.3258   0.2462   0.7919
Er11     Er     0.1742   0.2462   0.7081
Er12     Er     0.3258   0.2538   0.7081
Ti13     Ti     0.0649   0.8278   0.3808
Ti14     Ti     0.1722   0.9351   0.3808
Ti15     Ti     0.4351   0.6722   0.3808
Ti16     Ti     0.3278   0.5649   0.3808
Ti17     Ti     0.6722   0.4351   0.6192
Ti18     Ti     0.5649   0.3278   0.6192
V19     V     0.5593   0.7332   0.3463
V20     V     0.7668   0.9407   0.6537
Ce21     Ce     0.4984   0.7955   0.415
S22     S     0.5171   0.9098   0.4692
Ce23     Ce     0.7045   0.0016   0.585
S24     S     0.5902   0.9829   0.5308
V25     V     0.4407   0.2668   0.6537
V26     V     0.2332   0.0593   0.3463
Ce27     Ce     0.2955   0.9984   0.415
S28     S     0.4098   0.0171   0.4692
Ce29     Ce     0.5016   0.2045   0.585
S30     S     0.4829   0.0902   0.5308
Ti31     Ti     0.8278   0.0649   0.6192
Ti32     Ti     0.9351   0.1722   0.6192
V33     V     0.0593   0.2332   0.6537
V34     V     0.2668   0.4407   0.3463
Ce35     Ce     0.2045   0.5016   0.415
S36     S     0.0902   0.4829   0.4692
Ce37     Ce     0.9984   0.2955   0.585
S38     S     0.0171   0.4098   0.5308
V39     V     0.9407   0.7668   0.3463
V40     V     0.7332   0.5593   0.6537
Ce41     Ce     0.7955   0.4984   0.585
S42     S     0.9098   0.5171   0.5308
Ce43     Ce     0.0016   0.7045   0.415
S44     S     0.9829   0.5902   0.4692
Er45     Er     0.7462   0.8258   0.7919
Er46     Er     0.7538   0.6742   0.7919
Er47     Er     0.7538   0.8258   0.7081
Er48     Er     0.7462   0.6742   0.7081
Ti49     Ti     0.0649   0.6722   0.1192
Ti50     Ti     0.1722   0.5649   0.1192
Ti51     Ti     0.6722   0.0649   0.8808
Ti52     Ti     0.5649   0.1722   0.8808
V53     V     0.7668   0.5593   0.8463
V54     V     0.5593   0.7668   0.1537
Ce55     Ce     0.7045   0.4984   0.915
S56     S     0.5902   0.5171   0.9692
Ce57     Ce     0.4984   0.7045   0.085
S58     S     0.5171   0.5902   0.0308
V59     V     0.4407   0.2332   0.8463
V60     V     0.2332   0.4407   0.1537
Ce61     Ce     0.5016   0.2955   0.915
S62     S     0.4829   0.4098   0.9692
Ce63     Ce     0.2955   0.5016   0.085
S64     S     0.4098   0.4829   0.0308
Ti65     Ti     0.4351   0.8278   0.1192
Ti66     Ti     0.3278   0.9351   0.1192
Ti67     Ti     0.8278   0.4351   0.8808
Ti68     Ti     0.9351   0.3278   0.8808
V69     V     0.7332   0.9407   0.8463
V70     V     0.9407   0.7332   0.1537
Ce71     Ce     0.7955   0.0016   0.915
S72     S     0.9098   0.9829   0.9692
Ce73     Ce     0.0016   0.7955   0.085
S74     S     0.9829   0.9098   0.0308
V75     V     0.0593   0.2668   0.8463
V76     V     0.2668   0.0593   0.1537
Ce77     Ce     0.9984   0.2045   0.915
S78     S     0.0171   0.0902   0.9692
Ce79     Ce     0.2045   0.9984   0.085
S80     S     0.0902   0.0171   0.0308
loop_
_geom_bond_atom_site_label_1
_geom_bond_atom_site_label_2
_geom_bond_distance
_geom_bond_site_symmetry_2
_ccdc_geom_bond_type
Er1     Er2    10.0   .     S
Er1     Er3    10.0   .     S
Er1     V54    10.0   .     S
Er2     Er4    10.0   .     S
Er2     V70    10.0   .     S
Er3     Er4    10.0   .     S
Er3     V19    10.0   .     S
Er4     V39    10.0   .     S
Er5     Er6    10.0   .     S
Er5     Er7    10.0   .     S
Er5     V26    10.0   .     S
Er6     Er8    10.0   .     S
Er6     V34    10.0   .     S
Er7     Er8    10.0   .     S
Er7     V76    10.0   .     S
Er8     V60    10.0   .     S
Er9     Er10    10.0   .     S
Er9     Er11    10.0   .     S
Er9     V75    10.0   .     S
Er10     Er12    10.0   .     S
Er10     V59    10.0   .     S
Er11     Er12    10.0   .     S
Er11     V33    10.0   .     S
Er12     V25    10.0   .     S
Ti13     Ti14    9.999   .     S
Ti13     Ce43    10.0   .     S
Ti13     V39    10.001   1_455     S
Ti14     Ce27    10.0   .     S
Ti14     V26    10.001   1_565     S
Ti15     Ti16    9.999   .     S
Ti15     Ce21    10.0   .     S
Ti15     V19    10.001   .     S
Ti16     Ce35    10.0   .     S
Ti16     V34    10.001   .     S
Ti17     Ti18    9.999   .     S
Ti17     Ce41    10.0   .     S
Ti17     V40    10.001   .     S
Ti18     Ce29    10.0   .     S
Ti18     V25    10.001   .     S
V19     Ce21    10.0   .     S
V20     Er47    10.0   .     S
V20     Ce23    10.0   1_565     S
V20     Ti31    10.001   1_565     S
Ce21     S22    10.0   .     S
S22     S24    10.0   .     S
S22     S28    10.0   1_565     S
Ce23     Ti31    10.0   .     S
Ce23     V20    10.0   1_545     S
Ce23     S24    10.0   1_545     S
S24     Ce23    10.0   1_565     S
S24     S30    10.0   1_565     S
V25     Ce29    10.0   .     S
V26     Ce27    10.0   1_545     S
V26     Ti14    10.001   1_545     S
Ce27     V26    10.0   1_565     S
Ce27     S28    10.0   1_565     S
S28     Ce27    10.0   1_545     S
S28     S30    10.0   .     S
S28     S22    10.0   1_545     S
Ce29     S30    10.0   .     S
S30     S24    10.0   1_545     S
Ti31     V20    10.001   1_545     S
Ti31     Ti32    9.999   .     S
Ti32     Ce37    10.0   .     S
Ti32     V33    10.001   1_655     S
V33     Ce37    10.0   1_455     S
V33     Ti32    10.001   1_455     S
V34     Ce35    10.0   .     S
Ce35     S36    10.0   .     S
S36     S38    10.0   .     S
S36     S44    10.0   1_455     S
Ce37     V33    10.0   1_655     S
Ce37     S38    10.0   1_655     S
S38     Ce37    10.0   1_455     S
S38     S42    10.0   1_455     S
V39     Ce43    10.0   1_655     S
V39     Ti13    10.001   1_655     S
V40     Er48    10.0   .     S
V40     Ce41    10.0   .     S
Ce41     S42    10.0   .     S
S42     S44    10.0   .     S
S42     S38    10.0   1_655     S
Ce43     V39    10.0   1_455     S
Ce43     S44    10.0   1_455     S
S44     S36    10.0   1_655     S
S44     Ce43    10.0   1_655     S
Er45     Er46    10.0   .     S
Er45     Er47    10.0   .     S
Er45     V69    10.0   .     S
Er46     Er48    10.0   .     S
Er46     V53    10.0   .     S
Er47     Er48    10.0   .     S
Ti49     Ti50    9.999   .     S
Ti49     Ce73    10.0   .     S
Ti49     V70    10.001   1_455     S
Ti50     Ce63    10.0   .     S
Ti50     V60    10.001   .     S
Ti51     Ti52    9.999   .     S
Ti51     Ce71    10.0   .     S
Ti51     V69    10.001   1_545     S
Ti52     Ce61    10.0   .     S
Ti52     V59    10.001   .     S
V53     Ce55    10.0   .     S
V53     Ti67    10.001   .     S
V54     Ce57    10.0   .     S
V54     Ti65    10.001   .     S
Ce55     Ti67    10.0   .     S
Ce55     S56    10.0   .     S
S56     S58    10.0   1_556     S
S56     S62    10.0   .     S
Ce57     Ti65    10.0   .     S
Ce57     S58    10.0   .     S
S58     S56    10.0   1_554     S
S58     S64    10.0   .     S
V59     Ce61    10.0   .     S
V60     Ce63    10.0   .     S
Ce61     S62    10.0   .     S
S62     S64    10.0   1_556     S
Ce63     S64    10.0   .     S
S64     S62    10.0   1_554     S
Ti65     Ti66    9.999   .     S
Ti66     Ce79    10.0   .     S
Ti66     V76    10.001   1_565     S
Ti67     Ti68    9.999   .     S
Ti68     Ce77    10.0   .     S
Ti68     V75    10.001   1_655     S
V69     Ce71    10.0   1_565     S
V69     Ti51    10.001   1_565     S
V70     Ce73    10.0   1_655     S
V70     Ti49    10.001   1_655     S
Ce71     V69    10.0   1_545     S
Ce71     S72    10.0   1_545     S
S72     Ce71    10.0   1_565     S
S72     S74    10.0   1_556     S
S72     S78    10.0   1_665     S
Ce73     V70    10.0   1_455     S
Ce73     S74    10.0   1_455     S
S74     Ce73    10.0   1_655     S
S74     S72    10.0   1_554     S
S74     S80    10.0   1_665     S
V75     Ce77    10.0   1_455     S
V75     Ti68    10.001   1_455     S
V76     Ce79    10.0   1_545     S
V76     Ti66    10.001   1_545     S
Ce77     V75    10.0   1_655     S
Ce77     S78    10.0   1_655     S
S78     Ce77    10.0   1_455     S
S78     S80    10.0   1_556     S
S78     S72    10.0   1_445     S
Ce79     V76    10.0   1_565     S
Ce79     S80    10.0   1_565     S
S80     Ce79    10.0   1_545     S
S80     S78    10.0   1_554     S
S80     S74    10.0   1_445     S
