data_iaba
_audit_creation_date              2020-02-04
_audit_creation_method            'Pymatgen'
_symmetry_space_group_name_H-M    'P1'
_symmetry_Int_Tables_number       1
loop_
_symmetry_equiv_pos_as_xyz
  x,y,z
_cell_length_a                    64.5261
_cell_length_b                    64.5261
_cell_length_c                    129.5759
_cell_angle_alpha                 90.0
_cell_angle_beta                 90.0
_cell_angle_gamma                 90.0
loop_
_atom_site_label
_atom_site_type_symbol
_atom_site_fract_x
_atom_site_fract_y
_atom_site_fract_z
Ti1     Ti     0.3129   0.5629   0.375
V2     V     0.4225   0.6725   0.375
V3     V     0.4225   0.8275   0.375
Ti4     Ti     0.3129   0.9371   0.375
V5     V     0.5775   0.6725   0.375
Ti6     Ti     0.6871   0.5629   0.375
V7     V     0.5775   0.8275   0.375
Ti8     Ti     0.6871   0.9371   0.375
Er9     Er     0.2492   0.0631   0.3433
Ce10     Ce     0.2492   0.1725   0.2886
Er11     Er     0.2492   0.4369   0.3433
Ce12     Ce     0.2492   0.3275   0.2886
Er13     Er     0.1869   0.4992   0.4067
Ce14     Ce     0.0775   0.4992   0.4614
Er15     Er     0.8131   0.4992   0.4067
Ce16     Ce     0.9225   0.4992   0.4614
Er17     Er     0.7508   0.4369   0.3433
Ce18     Ce     0.7508   0.3275   0.2886
Er19     Er     0.7508   0.0631   0.3433
Ce20     Ce     0.7508   0.1725   0.2886
Er21     Er     0.8131   0.0008   0.4067
Ce22     Ce     0.9225   0.0008   0.4614
Er23     Er     0.1869   0.0008   0.4067
Ce24     Ce     0.0775   0.0008   0.4614
V25     V     0.5775   0.3275   0.625
Ti26     Ti     0.6871   0.4371   0.625
V27     V     0.4225   0.3275   0.625
Ti28     Ti     0.3129   0.4371   0.625
V29     V     0.4225   0.1725   0.625
Ti30     Ti     0.3129   0.0629   0.625
V31     V     0.5775   0.1725   0.625
Ti32     Ti     0.6871   0.0629   0.625
Er33     Er     0.1869   0.5008   0.5933
Ce34     Ce     0.0775   0.5008   0.5386
Er35     Er     0.8131   0.5008   0.5933
Ce36     Ce     0.9225   0.5008   0.5386
Er37     Er     0.2492   0.5631   0.6567
Ce38     Ce     0.2492   0.6725   0.7114
Er39     Er     0.2492   0.9369   0.6567
Ce40     Ce     0.2492   0.8275   0.7114
Er41     Er     0.7508   0.5631   0.6567
Ce42     Ce     0.7508   0.6725   0.7114
Er43     Er     0.7508   0.9369   0.6567
Ce44     Ce     0.7508   0.8275   0.7114
Er45     Er     0.8131   0.9992   0.5933
Ce46     Ce     0.9225   0.9992   0.5386
Er47     Er     0.1869   0.9992   0.5933
Ce48     Ce     0.0775   0.9992   0.5386
V49     V     0.0775   0.3275   0.875
Ti50     Ti     0.1871   0.4371   0.875
V51     V     0.0775   0.1725   0.875
Ti52     Ti     0.1871   0.0629   0.875
V53     V     0.9225   0.1725   0.875
Ti54     Ti     0.8129   0.0629   0.875
V55     V     0.9225   0.3275   0.875
Ti56     Ti     0.8129   0.4371   0.875
Er57     Er     0.2508   0.5631   0.8433
Ce58     Ce     0.2508   0.6725   0.7886
Er59     Er     0.2508   0.9369   0.8433
Ce60     Ce     0.2508   0.8275   0.7886
Er61     Er     0.3131   0.9992   0.9067
Ce62     Ce     0.4225   0.9992   0.9614
Er63     Er     0.6869   0.9992   0.9067
Ce64     Ce     0.5775   0.9992   0.9614
Er65     Er     0.3131   0.5008   0.9067
Ce66     Ce     0.4225   0.5008   0.9614
Er67     Er     0.6869   0.5008   0.9067
Ce68     Ce     0.5775   0.5008   0.9614
Er69     Er     0.7492   0.9369   0.8433
Ce70     Ce     0.7492   0.8275   0.7886
Er71     Er     0.7492   0.5631   0.8433
Ce72     Ce     0.7492   0.6725   0.7886
V73     V     0.9225   0.6725   0.125
Ti74     Ti     0.8129   0.5629   0.125
V75     V     0.0775   0.8275   0.125
Ti76     Ti     0.1871   0.9371   0.125
Ti77     Ti     0.8129   0.9371   0.125
V78     V     0.9225   0.8275   0.125
Ti79     Ti     0.1871   0.5629   0.125
V80     V     0.0775   0.6725   0.125
Er81     Er     0.3131   0.4992   0.0933
Ce82     Ce     0.4225   0.4992   0.0386
Er83     Er     0.6869   0.4992   0.0933
Ce84     Ce     0.5775   0.4992   0.0386
Er85     Er     0.2508   0.4369   0.1567
Ce86     Ce     0.2508   0.3275   0.2114
Er87     Er     0.2508   0.0631   0.1567
Ce88     Ce     0.2508   0.1725   0.2114
Er89     Er     0.7492   0.4369   0.1567
Ce90     Ce     0.7492   0.3275   0.2114
Er91     Er     0.7492   0.0631   0.1567
Ce92     Ce     0.7492   0.1725   0.2114
Er93     Er     0.3131   0.0008   0.0933
Ce94     Ce     0.4225   0.0008   0.0386
Er95     Er     0.6869   0.0008   0.0933
Ce96     Ce     0.5775   0.0008   0.0386
loop_
_geom_bond_atom_site_label_1
_geom_bond_atom_site_label_2
_geom_bond_distance
_geom_bond_site_symmetry_2
_ccdc_geom_bond_type
Ti1     V2    10.0   .     S
Ti1     Er11    10.0   .     S
Ti1     Er13    10.0   .     S
V2     V3    10.0   .     S
V2     V5    10.0   .     S
V3     Ti4    10.0   .     S
V3     V7    10.0   .     S
Ti4     Er9    10.0   1_565     S
Ti4     Er23    10.0   1_565     S
V5     Ti6    10.0   .     S
V5     V7    10.0   .     S
Ti6     Er15    10.0   .     S
Ti6     Er17    10.0   .     S
V7     Ti8    10.0   .     S
Ti8     Er19    10.0   1_565     S
Ti8     Er21    10.0   1_565     S
Er9     Ce10    9.999   .     S
Er9     Ti4    10.0   1_545     S
Er9     Er23    10.001   .     S
Ce10     Ce12    10.0   .     S
Ce10     Ce88    10.001   .     S
Er11     Ce12    9.999   .     S
Er11     Er13    10.001   .     S
Ce12     Ce86    10.001   .     S
Er13     Ce14    9.999   .     S
Ce14     Ce16    10.0   1_455     S
Ce14     Ce34    10.001   .     S
Er15     Ce16    9.999   .     S
Er15     Er17    10.001   .     S
Ce16     Ce14    10.0   1_655     S
Ce16     Ce36    10.001   .     S
Er17     Ce18    9.999   .     S
Ce18     Ce20    10.0   .     S
Ce18     Ce90    10.001   .     S
Er19     Ce20    9.999   .     S
Er19     Ti8    10.0   1_545     S
Er19     Er21    10.001   .     S
Ce20     Ce92    10.001   .     S
Er21     Ce22    9.999   .     S
Er21     Ti8    10.0   1_545     S
Ce22     Ce24    10.0   1_655     S
Ce22     Ce46    10.001   1_545     S
Er23     Ce24    9.999   .     S
Er23     Ti4    10.0   1_545     S
Ce24     Ce22    10.0   1_455     S
Ce24     Ce48    10.001   1_545     S
V25     Ti26    10.0   .     S
V25     V31    10.0   .     S
V25     V27    10.0   .     S
Ti26     Er35    10.0   .     S
Ti26     Er41    10.0   .     S
V27     Ti28    10.0   .     S
V27     V29    10.0   .     S
Ti28     Er33    10.0   .     S
Ti28     Er37    10.0   .     S
V29     Ti30    10.0   .     S
V29     V31    10.0   .     S
Ti30     Er39    10.0   1_545     S
Ti30     Er47    10.0   1_545     S
V31     Ti32    10.0   .     S
Ti32     Er43    10.0   1_545     S
Ti32     Er45    10.0   1_545     S
Er33     Ce34    9.999   .     S
Er33     Er37    10.001   .     S
Ce34     Ce36    10.0   1_455     S
Er35     Ce36    9.999   .     S
Er35     Er41    10.001   .     S
Ce36     Ce34    10.0   1_655     S
Er37     Ce38    9.999   .     S
Ce38     Ce40    10.0   .     S
Ce38     Ce58    10.001   .     S
Er39     Ce40    9.999   .     S
Er39     Ti30    10.0   1_565     S
Er39     Er47    10.001   .     S
Ce40     Ce60    10.001   .     S
Er41     Ce42    9.999   .     S
Ce42     Ce44    10.0   .     S
Ce42     Ce72    10.001   .     S
Er43     Ce44    9.999   .     S
Er43     Ti32    10.0   1_565     S
Er43     Er45    10.001   .     S
Ce44     Ce70    10.001   .     S
Er45     Ce46    9.999   .     S
Er45     Ti32    10.0   1_565     S
Ce46     Ce48    10.0   1_655     S
Ce46     Ce22    10.001   1_565     S
Er47     Ce48    9.999   .     S
Er47     Ti30    10.0   1_565     S
Ce48     Ce46    10.0   1_455     S
Ce48     Ce24    10.001   1_565     S
V49     Ti50    10.0   .     S
V49     V51    10.0   .     S
V49     V55    10.0   1_455     S
Ti50     Er57    10.0   .     S
Ti50     Er65    10.0   .     S
V51     Ti52    10.0   .     S
V51     V53    10.0   1_455     S
Ti52     Er59    10.0   1_545     S
Ti52     Er61    10.0   1_545     S
V53     Ti54    10.0   .     S
V53     V51    10.0   1_655     S
V53     V55    10.0   .     S
Ti54     Er63    10.0   1_545     S
Ti54     Er69    10.0   1_545     S
V55     Ti56    10.0   .     S
V55     V49    10.0   1_655     S
Ti56     Er67    10.0   .     S
Ti56     Er71    10.0   .     S
Er57     Ce58    9.999   .     S
Er57     Er65    10.001   .     S
Ce58     Ce60    10.0   .     S
Er59     Ce60    9.999   .     S
Er59     Ti52    10.0   1_565     S
Er59     Er61    10.001   .     S
Er61     Ce62    9.999   .     S
Er61     Ti52    10.0   1_565     S
Ce62     Ce64    10.0   .     S
Ce62     Ce94    10.001   1_566     S
Er63     Ce64    9.999   .     S
Er63     Ti54    10.0   1_565     S
Er63     Er69    10.001   .     S
Ce64     Ce96    10.001   1_566     S
Er65     Ce66    9.999   .     S
Ce66     Ce68    10.0   .     S
Ce66     Ce82    10.001   1_556     S
Er67     Ce68    9.999   .     S
Er67     Er71    10.001   .     S
Ce68     Ce84    10.001   1_556     S
Er69     Ce70    9.999   .     S
Er69     Ti54    10.0   1_565     S
Ce70     Ce72    10.0   .     S
Er71     Ce72    9.999   .     S
V73     Ti74    10.0   .     S
V73     V78    10.0   .     S
V73     V80    10.0   1_655     S
Ti74     Er83    10.0   .     S
Ti74     Er89    10.0   .     S
V75     Ti76    10.0   .     S
V75     V78    10.0   1_455     S
V75     V80    10.0   .     S
Ti76     Er87    10.0   1_565     S
Ti76     Er93    10.0   1_565     S
Ti77     V78    10.0   .     S
Ti77     Er91    10.0   1_565     S
Ti77     Er95    10.0   1_565     S
V78     V75    10.0   1_655     S
Ti79     V80    10.0   .     S
Ti79     Er81    10.0   .     S
Ti79     Er85    10.0   .     S
V80     V73    10.0   1_455     S
Er81     Ce82    9.999   .     S
Er81     Er85    10.001   .     S
Ce82     Ce84    10.0   .     S
Ce82     Ce66    10.001   1_554     S
Er83     Ce84    9.999   .     S
Er83     Er89    10.001   .     S
Ce84     Ce68    10.001   1_554     S
Er85     Ce86    9.999   .     S
Ce86     Ce88    10.0   .     S
Er87     Ce88    9.999   .     S
Er87     Ti76    10.0   1_545     S
Er87     Er93    10.001   .     S
Er89     Ce90    9.999   .     S
Ce90     Ce92    10.0   .     S
Er91     Ce92    9.999   .     S
Er91     Ti77    10.0   1_545     S
Er91     Er95    10.001   .     S
Er93     Ce94    9.999   .     S
Er93     Ti76    10.0   1_545     S
Ce94     Ce96    10.0   .     S
Ce94     Ce62    10.001   1_544     S
Er95     Ce96    9.999   .     S
Er95     Ti77    10.0   1_545     S
Ce96     Ce64    10.001   1_544     S
