data_iaca
_audit_creation_date              2020-02-04
_audit_creation_method            'Pymatgen'
_symmetry_space_group_name_H-M    'P1'
_symmetry_Int_Tables_number       1
loop_
_symmetry_equiv_pos_as_xyz
  x,y,z
_cell_length_a                    81.3336
_cell_length_b                    81.3336
_cell_length_c                    81.3336
_cell_angle_alpha                 90.0
_cell_angle_beta                 90.0
_cell_angle_gamma                 90.0
loop_
_atom_site_label
_atom_site_type_symbol
_atom_site_fract_x
_atom_site_fract_y
_atom_site_fract_z
Er1     Er     0.75   0.6685   0.5615
V2     V     0.7696   0.7242   0.6693
Er3     Er     0.5615   0.75   0.6685
V4     V     0.6693   0.7696   0.7242
Er5     Er     0.6685   0.5615   0.75
V6     V     0.7242   0.6693   0.7696
Er7     Er     0.5815   0.5   0.6885
V8     V     0.5258   0.4804   0.5807
Er9     Er     0.6885   0.5815   0.5
V10     V     0.5807   0.5258   0.4804
Er11     Er     0.5   0.6885   0.5815
V12     V     0.4804   0.5807   0.5258
Er13     Er     0.8315   0.5615   0.25
V14     V     0.7758   0.6693   0.2304
Er15     Er     0.9385   0.75   0.3315
V16     V     0.8307   0.7696   0.2758
Er17     Er     0.75   0.6685   0.4385
V18     V     0.7304   0.7242   0.3307
Er19     Er     0.8115   0.5815   0.5
V20     V     0.9193   0.5258   0.5196
Er21     Er     0.0   0.6885   0.4185
V22     V     0.0195   0.5807   0.4742
Er23     Er     0.9185   0.5   0.3115
V24     V     0.9742   0.4804   0.4193
Er25     Er     0.25   0.8315   0.5615
V26     V     0.2304   0.7758   0.6693
Er27     Er     0.3315   0.9385   0.75
V28     V     0.2758   0.8307   0.7696
Er29     Er     0.4385   0.75   0.6685
V30     V     0.3307   0.7304   0.7242
Er31     Er     0.4185   0.0   0.6885
V32     V     0.4742   0.0195   0.5807
Er33     Er     0.5   0.8115   0.5815
V34     V     0.5196   0.9193   0.5258
Er35     Er     0.3115   0.9185   0.5
V36     V     0.4193   0.9742   0.4804
Er37     Er     0.25   0.1685   0.9385
V38     V     0.2304   0.2242   0.8307
Er39     Er     0.4385   0.25   0.8315
V40     V     0.3307   0.2696   0.7758
Er41     Er     0.3315   0.0615   0.75
V42     V     0.2758   0.1693   0.7304
Er43     Er     0.25   0.1685   0.0615
V44     V     0.2696   0.2242   0.1693
Er45     Er     0.0615   0.25   0.1685
V46     V     0.1693   0.2696   0.2242
Er47     Er     0.1685   0.0615   0.25
V48     V     0.2242   0.1693   0.2696
Er49     Er     0.4185   0.0   0.8115
V50     V     0.4742   0.9804   0.9193
Er51     Er     0.5   0.1885   0.9185
V52     V     0.5196   0.0807   0.9742
Er53     Er     0.3115   0.0815   0.0
V54     V     0.4193   0.0258   0.0195
Er55     Er     0.1685   0.9385   0.25
V56     V     0.2242   0.8307   0.2304
Er57     Er     0.0615   0.75   0.3315
V58     V     0.1693   0.7304   0.2758
Er59     Er     0.25   0.8315   0.4385
V60     V     0.2695   0.7758   0.3307
Er61     Er     0.1885   0.9185   0.5
V62     V     0.0807   0.9742   0.5196
Er63     Er     0.0   0.8115   0.4185
V64     V     0.9804   0.9193   0.4742
Er65     Er     0.0815   0.0   0.3115
V66     V     0.0258   0.0195   0.4193
Er67     Er     0.0815   0.0   0.1885
V68     V     0.0258   0.9804   0.0807
Er69     Er     0.0   0.1885   0.0815
V70     V     0.9804   0.0807   0.0258
Er71     Er     0.1885   0.0815   0.0
V72     V     0.0807   0.0258   0.9804
Er73     Er     0.5615   0.25   0.8315
V74     V     0.6693   0.2304   0.7758
Er75     Er     0.75   0.3315   0.9385
V76     V     0.7696   0.2758   0.8307
Er77     Er     0.6685   0.4385   0.75
V78     V     0.7242   0.3307   0.7304
Er79     Er     0.5815   0.5   0.8115
V80     V     0.5258   0.5196   0.9193
Er81     Er     0.5   0.3115   0.9185
V82     V     0.4804   0.4193   0.9742
Er83     Er     0.6885   0.4185   0.0
V84     V     0.5807   0.4742   0.0195
Er85     Er     0.9385   0.25   0.1685
V86     V     0.8307   0.2304   0.2242
Er87     Er     0.75   0.3315   0.0615
V88     V     0.7304   0.2758   0.1693
Er89     Er     0.8315   0.4385   0.25
V90     V     0.7758   0.3307   0.2695
Er91     Er     0.8115   0.4185   0.0
V92     V     0.9193   0.4742   0.9804
Er93     Er     0.9185   0.5   0.1885
V94     V     0.9742   0.5196   0.0807
Er95     Er     0.0   0.3115   0.0815
V96     V     0.0195   0.4193   0.0258
Er97     Er     0.75   0.8315   0.9385
V98     V     0.7304   0.7758   0.8307
Er99     Er     0.9385   0.75   0.8315
V100     V     0.8307   0.7304   0.7758
Er101     Er     0.8315   0.9385   0.75
V102     V     0.7758   0.8307   0.7304
Er103     Er     0.4185   0.5   0.3115
V104     V     0.4742   0.5196   0.4193
Er105     Er     0.3115   0.4185   0.5
V106     V     0.4193   0.4742   0.5196
Er107     Er     0.5   0.3115   0.4185
V108     V     0.5196   0.4193   0.4742
Er109     Er     0.5   0.8115   0.0815
V110     V     0.4804   0.9193   0.0258
Er111     Er     0.6885   0.9185   0.0
V112     V     0.5807   0.9742   0.9804
Er113     Er     0.5815   0.0   0.1885
V114     V     0.5258   0.0196   0.0807
Er115     Er     0.8115   0.0815   0.5
V116     V     0.9193   0.0258   0.4804
Er117     Er     0.0   0.1885   0.5815
V118     V     0.0196   0.0807   0.5258
Er119     Er     0.9185   0.0   0.6885
V120     V     0.9742   0.9804   0.5807
Er121     Er     0.8115   0.9185   0.0
V122     V     0.9193   0.9742   0.0196
Er123     Er     0.0   0.8115   0.9185
V124     V     0.0196   0.9193   0.9742
Er125     Er     0.9185   0.0   0.8115
V126     V     0.9742   0.0196   0.9193
Er127     Er     0.0815   0.5   0.8115
V128     V     0.0258   0.4804   0.9193
Er129     Er     0.0   0.6885   0.9185
V130     V     0.9804   0.5807   0.9742
Er131     Er     0.1885   0.5815   0.0
V132     V     0.0807   0.5258   0.0196
Er133     Er     0.25   0.6685   0.9385
V134     V     0.2696   0.7242   0.8307
Er135     Er     0.0615   0.75   0.8315
V136     V     0.1693   0.7696   0.7758
Er137     Er     0.1685   0.5615   0.75
V138     V     0.2242   0.6693   0.7304
Er139     Er     0.0815   0.5   0.6885
V140     V     0.0258   0.5196   0.5807
Er141     Er     0.1885   0.4185   0.5
V142     V     0.0807   0.4742   0.4804
Er143     Er     0.0   0.3115   0.5815
V144     V     0.9804   0.4193   0.5258
Er145     Er     0.0615   0.25   0.6685
V146     V     0.1693   0.2304   0.7242
Er147     Er     0.25   0.3315   0.5615
V148     V     0.2696   0.2758   0.6693
Er149     Er     0.1685   0.4385   0.75
V150     V     0.2242   0.3307   0.7696
Er151     Er     0.9385   0.25   0.6685
V152     V     0.8307   0.2696   0.7242
Er153     Er     0.75   0.1685   0.5615
V154     V     0.7304   0.2242   0.6693
Er155     Er     0.8315   0.0615   0.75
V156     V     0.7758   0.1693   0.7696
Er157     Er     0.5815   0.0   0.3115
V158     V     0.5258   0.9804   0.4193
Er159     Er     0.5   0.1885   0.4185
V160     V     0.4804   0.0807   0.4742
Er161     Er     0.6885   0.0815   0.5
V162     V     0.5807   0.0258   0.5196
Er163     Er     0.6685   0.0615   0.25
V164     V     0.7242   0.1693   0.2305
Er165     Er     0.75   0.1685   0.4385
V166     V     0.7696   0.2242   0.3307
Er167     Er     0.5615   0.25   0.3315
V168     V     0.6693   0.2696   0.2758
Er169     Er     0.25   0.3315   0.4385
V170     V     0.2304   0.2758   0.3307
Er171     Er     0.3315   0.4385   0.25
V172     V     0.2758   0.3307   0.2304
Er173     Er     0.4385   0.25   0.3315
V174     V     0.3307   0.2304   0.2758
Er175     Er     0.6685   0.9385   0.25
V176     V     0.7242   0.8307   0.2696
Er177     Er     0.75   0.8315   0.0615
V178     V     0.7696   0.7758   0.1693
Er179     Er     0.5615   0.75   0.1685
V180     V     0.6693   0.7304   0.2242
Er181     Er     0.4185   0.5   0.1885
V182     V     0.4742   0.4804   0.0807
Er183     Er     0.3115   0.5815   0.0
V184     V     0.4193   0.5258   0.9804
Er185     Er     0.5   0.6885   0.0815
V186     V     0.5196   0.5807   0.0258
Er187     Er     0.3315   0.5615   0.25
V188     V     0.2758   0.6693   0.2696
Er189     Er     0.4385   0.75   0.1685
V190     V     0.3307   0.7696   0.2242
Er191     Er     0.25   0.6685   0.0615
V192     V     0.2305   0.7242   0.1693
loop_
_geom_bond_atom_site_label_1
_geom_bond_atom_site_label_2
_geom_bond_distance
_geom_bond_site_symmetry_2
_ccdc_geom_bond_type
Er1     V2    9.999   .     S
Er1     Er19    10.0   .     S
Er1     Er9    10.0   .     S
Er1     Er17    10.001   .     S
V2     V100    10.001   .     S
V2     V102    10.001   .     S
V2     V4    10.0   .     S
V2     V6    10.0   .     S
Er3     V4    9.999   .     S
Er3     Er11    10.0   .     S
Er3     Er33    10.0   .     S
Er3     Er29    10.001   .     S
V4     V102    10.001   .     S
V4     V98    10.001   .     S
V4     V6    10.0   .     S
Er5     V6    9.999   .     S
Er5     Er79    10.0   .     S
Er5     Er7    10.0   .     S
Er5     Er77    10.001   .     S
V6     V98    10.001   .     S
V6     V100    10.001   .     S
Er7     V8    9.999   .     S
Er7     Er77    10.0   .     S
Er7     Er79    10.001   .     S
V8     V108    10.001   .     S
V8     V106    10.001   .     S
V8     V10    10.0   .     S
V8     V12    10.0   .     S
Er9     V10    9.999   .     S
Er9     Er17    10.0   .     S
Er9     Er19    10.001   .     S
V10     V108    10.001   .     S
V10     V104    10.001   .     S
V10     V12    10.0   .     S
Er11     V12    9.999   .     S
Er11     Er29    10.0   .     S
Er11     Er33    10.001   .     S
V12     V106    10.001   .     S
V12     V104    10.001   .     S
Er13     V14    9.999   .     S
Er13     Er93    10.0   .     S
Er13     Er23    10.0   .     S
Er13     Er89    10.001   .     S
V14     V180    10.001   .     S
V14     V178    10.001   .     S
V14     V16    10.0   .     S
V14     V18    10.0   .     S
Er15     V16    9.999   .     S
Er15     Er21    10.0   1_655     S
Er15     Er63    10.0   1_655     S
Er15     Er57    10.001   1_655     S
V16     V176    10.001   .     S
V16     V178    10.001   .     S
V16     V18    10.0   .     S
Er17     V18    9.999   .     S
Er17     Er19    10.0   .     S
V18     V176    10.001   .     S
V18     V180    10.001   .     S
Er19     V20    9.999   .     S
V20     V140    10.001   1_655     S
V20     V144    10.001   .     S
V20     V24    10.0   .     S
V20     V22    10.0   1_655     S
Er21     V22    9.999   .     S
Er21     Er15    10.0   1_455     S
Er21     Er57    10.0   .     S
Er21     Er63    10.001   .     S
V22     V140    10.001   .     S
V22     V142    10.001   .     S
V22     V20    10.0   1_455     S
V22     V24    10.0   1_455     S
Er23     V24    9.999   .     S
Er23     Er93    10.001   .     S
Er23     Er89    10.0   .     S
V24     V142    10.001   1_655     S
V24     V144    10.001   .     S
V24     V22    10.0   1_655     S
Er25     V26    9.999   .     S
Er25     Er61    10.0   .     S
Er25     Er35    10.0   .     S
Er25     Er59    10.001   .     S
V26     V136    10.001   .     S
V26     V138    10.001   .     S
V26     V28    10.0   .     S
V26     V30    10.0   .     S
Er27     V28    9.999   .     S
Er27     Er31    10.0   1_565     S
Er27     Er41    10.001   1_565     S
Er27     Er49    10.0   1_565     S
V28     V136    10.001   .     S
V28     V134    10.001   .     S
V28     V30    10.0   .     S
Er29     V30    9.999   .     S
Er29     Er33    10.0   .     S
V30     V134    10.001   .     S
V30     V138    10.001   .     S
Er31     V32    9.999   .     S
Er31     Er27    10.0   1_545     S
Er31     Er41    10.0   .     S
Er31     Er49    10.001   .     S
V32     V162    10.001   .     S
V32     V160    10.001   .     S
V32     V34    10.0   1_545     S
V32     V36    10.0   1_545     S
Er33     V34    9.999   .     S
V34     V162    10.001   1_565     S
V34     V158    10.001   .     S
V34     V36    10.0   .     S
V34     V32    10.0   1_565     S
Er35     V36    9.999   .     S
Er35     Er61    10.001   .     S
Er35     Er59    10.0   .     S
V36     V160    10.001   1_565     S
V36     V158    10.001   .     S
V36     V32    10.0   1_565     S
Er37     V38    9.999   .     S
Er37     Er53    10.0   1_556     S
Er37     Er71    10.0   1_556     S
Er37     Er43    10.001   1_556     S
V38     V150    10.001   .     S
V38     V146    10.001   .     S
V38     V42    10.0   .     S
V38     V40    10.0   .     S
Er39     V40    9.999   .     S
Er39     Er81    10.0   .     S
Er39     Er51    10.0   .     S
Er39     Er73    10.001   .     S
V40     V148    10.001   .     S
V40     V150    10.001   .     S
V40     V42    10.0   .     S
Er41     Er27    10.001   1_545     S
Er41     V42    9.999   .     S
Er41     Er49    10.0   .     S
V42     V146    10.001   .     S
V42     V148    10.001   .     S
Er43     V44    9.999   .     S
Er43     Er53    10.0   .     S
Er43     Er37    10.001   1_554     S
Er43     Er71    10.0   .     S
V44     V172    10.001   .     S
V44     V174    10.001   .     S
V44     V48    10.0   .     S
V44     V46    10.0   .     S
Er45     V46    9.999   .     S
Er45     Er95    10.0   .     S
Er45     Er85    10.001   1_455     S
Er45     Er69    10.0   .     S
V46     V172    10.001   .     S
V46     V170    10.001   .     S
V46     V48    10.0   .     S
Er47     V48    9.999   .     S
Er47     Er55    10.001   1_545     S
Er47     Er65    10.0   .     S
Er47     Er67    10.0   .     S
V48     V170    10.001   .     S
V48     V174    10.001   .     S
Er49     Er27    10.0   1_545     S
Er49     V50    9.999   1_545     S
V50     Er49    9.999   1_565     S
V50     V54    10.0   1_566     S
V50     V52    10.0   1_565     S
V50     V110    10.001   1_556     S
V50     V112    10.001   .     S
Er51     Er81    10.001   .     S
Er51     Er73    10.0   .     S
Er51     V52    9.999   .     S
V52     V50    10.0   1_545     S
V52     V54    10.0   1_556     S
V52     V114    10.001   1_556     S
V52     V112    10.001   1_545     S
Er53     V54    9.999   .     S
Er53     Er37    10.0   1_554     S
Er53     Er71    10.001   .     S
V54     V50    10.0   1_544     S
V54     V52    10.0   1_554     S
V54     V110    10.001   1_545     S
V54     V114    10.001   .     S
Er55     V56    9.999   .     S
Er55     Er67    10.0   1_565     S
Er55     Er65    10.0   1_565     S
Er55     Er47    10.001   1_565     S
V56     V190    10.001   .     S
V56     V192    10.001   .     S
V56     V58    10.0   .     S
V56     V60    10.0   .     S
Er57     Er15    10.001   1_455     S
Er57     V58    9.999   .     S
Er57     Er63    10.0   .     S
V58     V192    10.001   .     S
V58     V188    10.001   .     S
V58     V60    10.0   .     S
Er59     Er61    10.0   .     S
Er59     V60    9.999   .     S
V60     V190    10.001   .     S
V60     V188    10.001   .     S
Er61     V62    9.999   .     S
V62     V66    10.0   1_565     S
V62     V64    10.0   1_455     S
V62     V118    10.001   1_565     S
V62     V120    10.001   1_455     S
Er63     Er15    10.0   1_455     S
Er63     V64    9.999   1_455     S
V64     Er63    9.999   1_655     S
V64     V66    10.0   1_665     S
V64     V62    10.0   1_655     S
V64     V116    10.001   1_565     S
V64     V120    10.001   .     S
Er65     V66    9.999   .     S
Er65     Er67    10.001   .     S
Er65     Er55    10.0   1_545     S
V66     V62    10.0   1_545     S
V66     V64    10.0   1_445     S
V66     V116    10.001   1_455     S
V66     V118    10.001   .     S
Er67     Er55    10.0   1_545     S
Er67     V68    9.999   1_545     S
V68     Er67    9.999   1_565     S
V68     V70    10.0   1_465     S
V68     V72    10.0   1_564     S
V68     V122    10.001   1_455     S
V68     V124    10.001   1_554     S
Er69     V70    9.999   1_455     S
Er69     Er95    10.001   .     S
Er69     Er85    10.0   1_455     S
V70     V68    10.0   1_645     S
V70     Er69    9.999   1_655     S
V70     V72    10.0   1_654     S
V70     V122    10.001   1_545     S
V70     V126    10.001   1_554     S
Er71     Er37    10.0   1_554     S
Er71     V72    9.999   1_554     S
V72     V70    10.0   1_456     S
V72     Er71    9.999   1_556     S
V72     V68    10.0   1_546     S
V72     V126    10.001   1_455     S
V72     V124    10.001   1_545     S
Er73     Er81    10.0   .     S
Er73     V74    9.999   .     S
V74     V156    10.001   .     S
V74     V154    10.001   .     S
V74     V76    10.0   .     S
V74     V78    10.0   .     S
Er75     V76    9.999   .     S
Er75     Er91    10.0   1_556     S
Er75     Er87    10.001   1_556     S
Er75     Er83    10.0   1_556     S
V76     V156    10.001   .     S
V76     V152    10.001   .     S
V76     V78    10.0   .     S
Er77     V78    9.999   .     S
Er77     Er79    10.0   .     S
V78     V152    10.001   .     S
V78     V154    10.001   .     S
Er79     V80    9.999   .     S
V80     V184    10.001   .     S
V80     V186    10.001   1_556     S
V80     V82    10.0   .     S
V80     V84    10.0   1_556     S
Er81     V82    9.999   .     S
V82     V182    10.001   1_556     S
V82     V184    10.001   .     S
V82     V84    10.0   1_556     S
Er83     V84    9.999   .     S
Er83     Er75    10.0   1_554     S
Er83     Er87    10.0   .     S
Er83     Er91    10.001   .     S
V84     V182    10.001   .     S
V84     V186    10.001   .     S
V84     V80    10.0   1_554     S
V84     V82    10.0   1_554     S
Er85     V86    9.999   .     S
Er85     Er95    10.0   1_655     S
Er85     Er69    10.0   1_655     S
Er85     Er45    10.001   1_655     S
V86     V164    10.001   .     S
V86     V166    10.001   .     S
V86     V88    10.0   .     S
V86     V90    10.0   .     S
Er87     Er75    10.001   1_554     S
Er87     V88    9.999   .     S
Er87     Er91    10.0   .     S
V88     V168    10.001   .     S
V88     V164    10.001   .     S
V88     V90    10.0   .     S
Er89     Er93    10.0   .     S
Er89     V90    9.999   .     S
V90     V166    10.001   .     S
V90     V168    10.001   .     S
Er91     Er75    10.0   1_554     S
Er91     V92    9.999   1_554     S
V92     Er91    9.999   1_556     S
V92     V96    10.0   1_656     S
V92     V94    10.0   1_556     S
V92     V128    10.001   1_655     S
V92     V130    10.001   .     S
Er93     V94    9.999   .     S
V94     V96    10.0   1_655     S
V94     V92    10.0   1_554     S
V94     V132    10.001   1_655     S
V94     V130    10.001   1_554     S
Er95     V96    9.999   .     S
Er95     Er85    10.0   1_455     S
V96     V94    10.0   1_455     S
V96     V92    10.0   1_454     S
V96     V128    10.001   1_554     S
V96     V132    10.001   .     S
Er97     V98    9.999   .     S
Er97     Er111    10.0   1_556     S
Er97     Er121    10.0   1_556     S
Er97     Er177    10.001   1_556     S
V98     V100    10.0   .     S
V98     V102    10.0   .     S
Er99     V100    9.999   .     S
Er99     Er129    10.0   1_655     S
Er99     Er123    10.0   1_655     S
Er99     Er135    10.001   1_655     S
V100     V102    10.0   .     S
Er101     V102    9.999   .     S
Er101     Er119    10.0   1_565     S
Er101     Er125    10.0   1_565     S
Er101     Er155    10.001   1_565     S
Er103     V104    9.999   .     S
Er103     Er171    10.0   .     S
Er103     Er187    10.0   .     S
Er103     Er181    10.001   .     S
V104     V106    10.0   .     S
V104     V108    10.0   .     S
Er105     V106    9.999   .     S
Er105     Er147    10.0   .     S
Er105     Er169    10.0   .     S
Er105     Er141    10.001   .     S
V106     V108    10.0   .     S
Er107     V108    9.999   .     S
Er107     Er167    10.0   .     S
Er107     Er173    10.0   .     S
Er107     Er159    10.001   .     S
Er109     V110    9.999   .     S
Er109     Er189    10.0   .     S
Er109     Er179    10.0   .     S
Er109     Er185    10.001   .     S
V110     V54    10.001   1_565     S
V110     V50    10.001   1_554     S
V110     V112    10.0   1_554     S
V110     V114    10.0   1_565     S
Er111     V112    9.999   1_554     S
Er111     Er97    10.0   1_554     S
Er111     Er177    10.0   .     S
Er111     Er121    10.001   .     S
V112     V52    10.001   1_565     S
V112     Er111    9.999   1_556     S
V112     V110    10.0   1_556     S
V112     V114    10.0   1_566     S
Er113     Er157    10.001   .     S
Er113     Er175    10.0   1_545     S
Er113     V114    9.999   .     S
Er113     Er163    10.0   .     S
V114     V52    10.001   1_554     S
V114     V110    10.0   1_545     S
V114     V112    10.0   1_544     S
Er115     V116    9.999   .     S
Er115     Er165    10.0   .     S
Er115     Er153    10.0   .     S
Er115     Er161    10.001   .     S
V116     V64    10.001   1_545     S
V116     V66    10.001   1_655     S
V116     V118    10.0   1_655     S
V116     V120    10.0   1_545     S
Er117     Er151    10.0   1_455     S
Er117     Er143    10.001   .     S
Er117     V118    9.999   .     S
Er117     Er145    10.0   .     S
V118     V62    10.001   1_545     S
V118     V116    10.0   1_455     S
V118     V120    10.0   1_445     S
Er119     V120    9.999   1_545     S
Er119     Er101    10.0   1_545     S
Er119     Er125    10.001   .     S
Er119     Er155    10.0   .     S
V120     V62    10.001   1_655     S
V120     Er119    9.999   1_565     S
V120     V116    10.0   1_565     S
V120     V118    10.0   1_665     S
Er121     V122    9.999   .     S
Er121     Er97    10.0   1_554     S
Er121     Er177    10.0   .     S
V122     V68    10.001   1_655     S
V122     V70    10.001   1_565     S
V122     V124    10.0   1_654     S
V122     V126    10.0   1_564     S
Er123     V124    9.999   .     S
Er123     Er129    10.001   .     S
Er123     Er99    10.0   1_455     S
Er123     Er135    10.0   .     S
V124     V72    10.001   1_565     S
V124     V68    10.001   1_556     S
V124     V122    10.0   1_456     S
V124     V126    10.0   1_465     S
Er125     V126    9.999   .     S
Er125     Er101    10.0   1_545     S
Er125     Er155    10.0   .     S
V126     V70    10.001   1_556     S
V126     V72    10.001   1_655     S
V126     V124    10.0   1_645     S
V126     V122    10.0   1_546     S
Er127     V128    9.999   .     S
Er127     Er149    10.0   .     S
Er127     Er137    10.0   .     S
Er127     Er139    10.001   .     S
V128     V92    10.001   1_455     S
V128     V96    10.001   1_556     S
V128     V130    10.0   1_455     S
V128     V132    10.0   1_556     S
Er129     V130    9.999   1_455     S
Er129     Er99    10.0   1_455     S
Er129     Er135    10.0   .     S
V130     V94    10.001   1_556     S
V130     Er129    9.999   1_655     S
V130     V128    10.0   1_655     S
V130     V132    10.0   1_656     S
Er131     Er183    10.001   .     S
Er131     Er133    10.0   1_554     S
Er131     V132    9.999   .     S
Er131     Er191    10.0   .     S
V132     V94    10.001   1_455     S
V132     V128    10.0   1_554     S
V132     V130    10.0   1_454     S
Er133     Er183    10.0   1_556     S
Er133     Er131    10.0   1_556     S
Er133     Er191    10.001   1_556     S
Er133     V134    9.999   .     S
V134     V136    10.0   .     S
V134     V138    10.0   .     S
Er135     V136    9.999   .     S
Er135     Er99    10.001   1_455     S
V136     V138    10.0   .     S
Er137     V138    9.999   .     S
Er137     Er139    10.0   .     S
Er137     Er149    10.001   .     S
Er139     V140    9.999   .     S
Er139     Er149    10.0   .     S
V140     V20    10.001   1_455     S
V140     V144    10.0   1_455     S
V140     V142    10.0   .     S
Er141     V142    9.999   .     S
Er141     Er147    10.0   .     S
Er141     Er169    10.0   .     S
V142     V24    10.001   1_455     S
V142     V144    10.0   1_455     S
Er143     Er151    10.0   1_455     S
Er143     V144    9.999   1_455     S
Er143     Er145    10.0   .     S
V144     V140    10.0   1_655     S
V144     Er143    9.999   1_655     S
V144     V142    10.0   1_655     S
Er145     Er151    10.001   1_455     S
Er145     V146    9.999   .     S
V146     V148    10.0   .     S
V146     V150    10.0   .     S
Er147     V148    9.999   .     S
Er147     Er169    10.001   .     S
V148     V150    10.0   .     S
Er149     V150    9.999   .     S
Er151     Er143    10.0   1_655     S
Er151     Er145    10.001   1_655     S
Er151     Er117    10.0   1_655     S
Er151     V152    9.999   .     S
V152     V156    10.0   .     S
V152     V154    10.0   .     S
Er153     V154    9.999   .     S
Er153     Er161    10.0   .     S
Er153     Er165    10.001   .     S
V154     V156    10.0   .     S
Er155     V156    9.999   .     S
Er155     Er101    10.001   1_545     S
Er157     Er175    10.0   1_545     S
Er157     V158    9.999   1_545     S
Er157     Er163    10.0   .     S
V158     Er157    9.999   1_565     S
V158     V160    10.0   1_565     S
V158     V162    10.0   1_565     S
Er159     V160    9.999   .     S
Er159     Er167    10.0   .     S
Er159     Er173    10.0   .     S
V160     V36    10.001   1_545     S
V160     V158    10.0   1_545     S
V160     V162    10.0   .     S
Er161     V162    9.999   .     S
Er161     Er165    10.0   .     S
V162     V34    10.001   1_545     S
V162     V158    10.0   1_545     S
Er163     Er175    10.001   1_545     S
Er163     V164    9.999   .     S
V164     V166    10.0   .     S
V164     V168    10.0   .     S
Er165     V166    9.999   .     S
V166     V168    10.0   .     S
Er167     V168    9.999   .     S
Er167     Er173    10.001   .     S
Er169     V170    9.999   .     S
V170     V174    10.0   .     S
V170     V172    10.0   .     S
Er171     V172    9.999   .     S
Er171     Er181    10.0   .     S
Er171     Er187    10.001   .     S
V172     V174    10.0   .     S
Er173     V174    9.999   .     S
Er175     Er157    10.0   1_565     S
Er175     Er113    10.0   1_565     S
Er175     Er163    10.001   1_565     S
Er175     V176    9.999   .     S
V176     V180    10.0   .     S
V176     V178    10.0   .     S
Er177     V178    9.999   .     S
Er177     Er97    10.001   1_554     S
V178     V180    10.0   .     S
Er179     V180    9.999   .     S
Er179     Er185    10.0   .     S
Er179     Er189    10.001   .     S
Er181     V182    9.999   .     S
Er181     Er187    10.0   .     S
V182     V82    10.001   1_554     S
V182     V184    10.0   1_554     S
V182     V186    10.0   .     S
Er183     Er133    10.0   1_554     S
Er183     V184    9.999   1_554     S
Er183     Er191    10.0   .     S
V184     Er183    9.999   1_556     S
V184     V182    10.0   1_556     S
V184     V186    10.0   1_556     S
Er185     V186    9.999   .     S
Er185     Er189    10.0   .     S
V186     V80    10.001   1_554     S
V186     V184    10.0   1_554     S
Er187     V188    9.999   .     S
V188     V190    10.0   .     S
V188     V192    10.0   .     S
Er189     V190    9.999   .     S
V190     V192    10.0   .     S
Er191     Er133    10.001   1_554     S
Er191     V192    9.999   .     S
