data_ibea
_audit_creation_date              2020-02-04
_audit_creation_method            'Pymatgen'
_symmetry_space_group_name_H-M    'P1'
_symmetry_Int_Tables_number       1
loop_
_symmetry_equiv_pos_as_xyz
  x,y,z
_cell_length_a                    99.2732
_cell_length_b                    99.2732
_cell_length_c                    99.2732
_cell_angle_alpha                 90.0
_cell_angle_beta                 90.0
_cell_angle_gamma                 90.0
loop_
_atom_site_label
_atom_site_type_symbol
_atom_site_fract_x
_atom_site_fract_y
_atom_site_fract_z
Er1     Er     0.2373   0.5401   0.7804
Er2     Er     0.2373   0.4599   0.7196
V3     V     0.3246   0.5   0.75
Er4     Er     0.5401   0.7804   0.2373
Er5     Er     0.4599   0.7196   0.2373
V6     V     0.5   0.75   0.3246
Er7     Er     0.7804   0.2373   0.5401
Er8     Er     0.7196   0.2373   0.4599
V9     V     0.75   0.3246   0.5
Er10     Er     0.2627   0.4599   0.2804
Er11     Er     0.2627   0.5401   0.2196
V12     V     0.1754   0.5   0.25
Er13     Er     0.2804   0.2627   0.4599
Er14     Er     0.2196   0.2627   0.5401
V15     V     0.25   0.1754   0.5
Er16     Er     0.5401   0.2196   0.2627
Er17     Er     0.4599   0.2804   0.2627
V18     V     0.5   0.25   0.1754
Er19     Er     0.2099   0.4873   0.5304
Er20     Er     0.2901   0.4873   0.4696
V21     V     0.25   0.5746   0.5
Er22     Er     0.4696   0.2901   0.4873
Er23     Er     0.5304   0.2099   0.4873
V24     V     0.5   0.25   0.5746
Er25     Er     0.2099   0.5127   0.9696
Er26     Er     0.2901   0.5127   0.0304
V27     V     0.25   0.4254   0.0
Er28     Er     0.9599   0.7804   0.7627
Er29     Er     0.0401   0.7196   0.7627
V30     V     0.0   0.75   0.6754
Er31     Er     0.7627   0.9599   0.7804
Er32     Er     0.7627   0.0401   0.7196
V33     V     0.6754   0.0   0.75
Er34     Er     0.7804   0.7627   0.9599
Er35     Er     0.7196   0.7627   0.0401
V36     V     0.75   0.6754   0.0
Er37     Er     0.9599   0.2196   0.7373
Er38     Er     0.0401   0.2804   0.7373
V39     V     0.0   0.25   0.8246
Er40     Er     0.0304   0.2901   0.5127
Er41     Er     0.9696   0.2099   0.5127
V42     V     0.0   0.25   0.4254
Er43     Er     0.7373   0.9599   0.2196
Er44     Er     0.7373   0.0401   0.2804
V45     V     0.8246   0.0   0.25
Ti46     Ti     0.5776   0.1488   0.4225
Ti47     Ti     0.6724   0.1725   0.3988
Ti48     Ti     0.6012   0.1724   0.3275
Ti49     Ti     0.5775   0.0776   0.3512
Ti50     Ti     0.6488   0.0775   0.4224
Ti51     Ti     0.6725   0.1012   0.3276
Er52     Er     0.5127   0.0304   0.2901
Er53     Er     0.5127   0.9696   0.2099
V54     V     0.4254   0.0   0.25
Ti55     Ti     0.6012   0.8276   0.1725
Ti56     Ti     0.5775   0.9224   0.1488
Ti57     Ti     0.6488   0.9225   0.0776
Ti58     Ti     0.6725   0.8988   0.1724
Ti59     Ti     0.6724   0.8275   0.1012
Ti60     Ti     0.5776   0.8512   0.0775
Er61     Er     0.5304   0.7901   0.0127
Er62     Er     0.4696   0.7099   0.0127
V63     V     0.5   0.75   0.9254
Ti64     Ti     0.9225   0.0776   0.6488
Ti65     Ti     0.8988   0.1724   0.6725
Ti66     Ti     0.8276   0.1725   0.6012
Ti67     Ti     0.9224   0.1488   0.5775
Ti68     Ti     0.8512   0.0775   0.5776
Ti69     Ti     0.8275   0.1012   0.6724
Er70     Er     0.7901   0.0127   0.5304
Er71     Er     0.7099   0.0127   0.4696
V72     V     0.75   0.9254   0.5
Ti73     Ti     0.1725   0.3988   0.6724
Ti74     Ti     0.1488   0.4225   0.5776
Ti75     Ti     0.1724   0.3275   0.6012
Ti76     Ti     0.0776   0.3512   0.5775
Ti77     Ti     0.0775   0.4224   0.6488
Ti78     Ti     0.1012   0.3276   0.6725
Er79     Er     0.0127   0.5304   0.7901
Er80     Er     0.0127   0.4696   0.7099
V81     V     0.9254   0.5   0.75
Ti82     Ti     0.1012   0.6724   0.8275
Ti83     Ti     0.0775   0.5776   0.8512
Ti84     Ti     0.1488   0.5775   0.9224
Ti85     Ti     0.1725   0.6012   0.8276
Ti86     Ti     0.0776   0.6488   0.9225
Ti87     Ti     0.1724   0.6725   0.8988
Er88     Er     0.7901   0.9873   0.9696
Er89     Er     0.7099   0.9873   0.0304
V90     V     0.75   0.0746   0.0
Er91     Er     0.9873   0.9696   0.7901
Er92     Er     0.9873   0.0304   0.7099
V93     V     0.0746   0.0   0.75
Ti94     Ti     0.8275   0.8988   0.8276
Ti95     Ti     0.8512   0.9225   0.9224
Ti96     Ti     0.8988   0.8276   0.8275
Ti97     Ti     0.9225   0.9224   0.8512
Ti98     Ti     0.8276   0.8275   0.8988
Ti99     Ti     0.9224   0.8512   0.9225
Er100     Er     0.9696   0.7901   0.9873
Er101     Er     0.0304   0.7099   0.9873
V102     V     0.0   0.75   0.0746
Ti103     Ti     0.3512   0.5775   0.0776
Ti104     Ti     0.3275   0.6012   0.1724
Ti105     Ti     0.4224   0.6488   0.0775
Ti106     Ti     0.3276   0.6725   0.1012
Ti107     Ti     0.3988   0.6724   0.1725
Ti108     Ti     0.4225   0.5776   0.1488
Er109     Er     0.2196   0.7373   0.9599
Er110     Er     0.2804   0.7373   0.0401
V111     V     0.25   0.8246   0.0
Ti112     Ti     0.4224   0.3512   0.4225
Ti113     Ti     0.3276   0.3275   0.3988
Ti114     Ti     0.3512   0.4225   0.4224
Ti115     Ti     0.3275   0.3988   0.3276
Ti116     Ti     0.4225   0.4224   0.3512
Ti117     Ti     0.3988   0.3276   0.3275
Er118     Er     0.4873   0.5304   0.2099
Er119     Er     0.4873   0.4696   0.2901
V120     V     0.5746   0.5   0.25
Er121     Er     0.4599   0.7804   0.7373
Er122     Er     0.5401   0.7196   0.7373
V123     V     0.5   0.75   0.8246
Er124     Er     0.7373   0.4599   0.7804
Er125     Er     0.7373   0.5401   0.7196
V126     V     0.8246   0.5   0.75
Er127     Er     0.7804   0.7373   0.4599
Er128     Er     0.7196   0.7373   0.5401
V129     V     0.75   0.8246   0.5
Er130     Er     0.9873   0.5304   0.2901
Er131     Er     0.9873   0.4696   0.2099
V132     V     0.0746   0.5   0.25
Er133     Er     0.7627   0.5401   0.2804
Er134     Er     0.7627   0.4599   0.2196
V135     V     0.6754   0.5   0.25
Er136     Er     0.9599   0.7196   0.2627
Er137     Er     0.0401   0.7804   0.2627
V138     V     0.0   0.75   0.1754
Er139     Er     0.2627   0.9599   0.7196
Er140     Er     0.2627   0.0401   0.7804
V141     V     0.1754   0.0   0.75
Er142     Er     0.5401   0.2804   0.7627
Er143     Er     0.4599   0.2196   0.7627
V144     V     0.5   0.25   0.6754
Er145     Er     0.2804   0.7627   0.5401
Er146     Er     0.2196   0.7627   0.4599
V147     V     0.25   0.6754   0.5
Ti148     Ti     0.0776   0.1488   0.0775
Ti149     Ti     0.1724   0.1725   0.1012
Ti150     Ti     0.1488   0.0775   0.0776
Ti151     Ti     0.1725   0.1012   0.1724
Ti152     Ti     0.0775   0.0776   0.1488
Ti153     Ti     0.1012   0.1724   0.1725
Er154     Er     0.2373   0.9599   0.2804
Er155     Er     0.2373   0.0401   0.2196
V156     V     0.3246   0.0   0.25
Er157     Er     0.2804   0.2373   0.9599
Er158     Er     0.2196   0.2373   0.0401
V159     V     0.25   0.3246   0.0
Er160     Er     0.9599   0.2804   0.2373
Er161     Er     0.0401   0.2196   0.2373
V162     V     0.0   0.25   0.3246
Er163     Er     0.7196   0.2627   0.9599
Er164     Er     0.7804   0.2627   0.0401
V165     V     0.75   0.1754   0.0
Er166     Er     0.2901   0.0127   0.9696
Er167     Er     0.2099   0.0127   0.0304
V168     V     0.25   0.9254   0.0
Er169     Er     0.0127   0.9696   0.2901
Er170     Er     0.0127   0.0304   0.2099
V171     V     0.9254   0.0   0.25
Er172     Er     0.5304   0.2901   0.9873
Er173     Er     0.4696   0.2099   0.9873
V174     V     0.5   0.25   0.0746
Er175     Er     0.2901   0.9873   0.5304
Er176     Er     0.2099   0.9873   0.4696
V177     V     0.25   0.0746   0.5
Er178     Er     0.9696   0.2901   0.0127
Er179     Er     0.0304   0.2099   0.0127
V180     V     0.0   0.25   0.9254
Ti181     Ti     0.9225   0.4224   0.1488
Ti182     Ti     0.8988   0.3276   0.1725
Ti183     Ti     0.8276   0.3275   0.1012
Ti184     Ti     0.9224   0.3512   0.0775
Ti185     Ti     0.8275   0.3988   0.1724
Ti186     Ti     0.8512   0.4225   0.0776
Ti187     Ti     0.3512   0.0775   0.9224
Ti188     Ti     0.3275   0.1012   0.8276
Ti189     Ti     0.3988   0.1724   0.8275
Ti190     Ti     0.4225   0.0776   0.8512
Ti191     Ti     0.4224   0.1488   0.9225
Ti192     Ti     0.3276   0.1725   0.8988
Ti193     Ti     0.3512   0.9225   0.5776
Ti194     Ti     0.3275   0.8988   0.6724
Ti195     Ti     0.4224   0.8512   0.5775
Ti196     Ti     0.3276   0.8275   0.6012
Ti197     Ti     0.3988   0.8276   0.6725
Ti198     Ti     0.4225   0.9224   0.6488
Er199     Er     0.4873   0.9696   0.7099
Er200     Er     0.4873   0.0304   0.7901
V201     V     0.5746   0.0   0.75
Er202     Er     0.5304   0.7099   0.5127
Er203     Er     0.4696   0.7901   0.5127
V204     V     0.5   0.75   0.4254
Ti205     Ti     0.0776   0.8512   0.4225
Ti206     Ti     0.1724   0.8275   0.3988
Ti207     Ti     0.1488   0.9225   0.4224
Ti208     Ti     0.1725   0.8988   0.3276
Ti209     Ti     0.0775   0.9224   0.3512
Ti210     Ti     0.1012   0.8276   0.3275
Ti211     Ti     0.8276   0.6725   0.3988
Ti212     Ti     0.9224   0.6488   0.4225
Ti213     Ti     0.9225   0.5776   0.3512
Ti214     Ti     0.8988   0.6724   0.3275
Ti215     Ti     0.8512   0.5775   0.4224
Ti216     Ti     0.8275   0.6012   0.3276
Er217     Er     0.0304   0.7901   0.4873
Er218     Er     0.9696   0.7099   0.4873
V219     V     0.0   0.75   0.5746
Er220     Er     0.7901   0.5127   0.4696
Er221     Er     0.7099   0.5127   0.5304
V222     V     0.75   0.4254   0.5
Ti223     Ti     0.5776   0.6488   0.5775
Ti224     Ti     0.6724   0.6725   0.6012
Ti225     Ti     0.5775   0.5776   0.6488
Ti226     Ti     0.6012   0.6724   0.6725
Ti227     Ti     0.6488   0.5775   0.5776
Ti228     Ti     0.6725   0.6012   0.6724
Er229     Er     0.5127   0.4696   0.7901
Er230     Er     0.5127   0.5304   0.7099
V231     V     0.4254   0.5   0.75
Ti232     Ti     0.5776   0.3512   0.9225
Ti233     Ti     0.6724   0.3275   0.8988
Ti234     Ti     0.6725   0.3988   0.8276
Ti235     Ti     0.6488   0.4225   0.9224
Ti236     Ti     0.5775   0.4224   0.8512
Ti237     Ti     0.6012   0.3276   0.8275
Er238     Er     0.7901   0.4873   0.0304
Er239     Er     0.7099   0.4873   0.9696
V240     V     0.75   0.5746   0.0
loop_
_geom_bond_atom_site_label_1
_geom_bond_atom_site_label_2
_geom_bond_distance
_geom_bond_site_symmetry_2
_ccdc_geom_bond_type
Er1     V3    10.002   .     S
Er1     Er2    9.995   .     S
Er1     Ti85    10.007   .     S
Er2     V3    10.002   .     S
Er2     Ti73    10.007   .     S
V3     V231    10.013   .     S
Er4     Er5    9.995   .     S
Er4     V6    10.002   .     S
Er4     Ti55    10.007   .     S
Er5     V6    10.002   .     S
Er5     Ti107    10.007   .     S
V6     V204    10.013   .     S
Er7     Er8    9.995   .     S
Er7     V9    10.002   .     S
Er7     Ti66    10.007   .     S
Er8     V9    10.002   .     S
Er8     Ti47    10.007   .     S
V9     V222    10.013   .     S
Er10     Er11    9.995   .     S
Er10     V12    10.002   .     S
Er10     Ti115    10.007   .     S
Er11     V12    10.002   .     S
Er11     Ti104    10.007   .     S
V12     V132    10.013   .     S
Er13     V15    10.002   .     S
Er13     Er14    9.995   .     S
Er13     Ti113    10.007   .     S
Er14     V15    10.002   .     S
Er14     Ti75    10.007   .     S
V15     V177    10.013   .     S
Er16     Er17    9.995   .     S
Er16     V18    10.002   .     S
Er16     Ti48    10.007   .     S
Er17     V18    10.002   .     S
Er17     Ti117    10.007   .     S
V18     V174    10.013   .     S
Er19     Er20    9.995   .     S
Er19     V21    10.002   .     S
Er19     Ti74    10.007   .     S
Er20     V21    10.002   .     S
Er20     Ti114    10.007   .     S
V21     V147    10.013   .     S
Er22     V24    10.002   .     S
Er22     Er23    9.995   .     S
Er22     Ti112    10.007   .     S
Er23     V24    10.002   .     S
Er23     Ti46    10.007   .     S
V24     V144    10.013   .     S
Er25     Er26    9.995   1_556     S
Er25     V27    10.002   1_556     S
Er25     Ti84    10.007   .     S
Er26     Er25    9.995   1_554     S
Er26     V27    10.002   .     S
Er26     Ti103    10.007   .     S
V27     Er25    10.002   1_554     S
V27     V159    10.013   .     S
Er28     Er29    9.995   1_655     S
Er28     V30    10.002   1_655     S
Er28     Ti96    10.007   .     S
Er29     Er28    9.995   1_455     S
Er29     V30    10.002   .     S
Er29     Ti82    10.007   .     S
V30     Er28    10.002   1_455     S
V30     V219    10.013   .     S
Er31     Er32    9.995   1_565     S
Er31     V33    10.002   1_565     S
Er31     Ti94    10.007   .     S
Er32     Er31    9.995   1_545     S
Er32     V33    10.002   .     S
Er32     Ti69    10.007   .     S
V33     Er31    10.002   1_545     S
V33     V201    10.013   .     S
Er34     Er35    9.995   1_556     S
Er34     V36    10.002   1_556     S
Er34     Ti98    10.007   .     S
Er35     Er34    9.995   1_554     S
Er35     V36    10.002   .     S
Er35     Ti59    10.007   .     S
V36     Er34    10.002   1_554     S
V36     V240    10.013   .     S
Er37     Er38    9.995   1_655     S
Er37     V39    10.002   1_655     S
Er37     Ti65    10.007   .     S
Er38     Er37    9.995   1_455     S
Er38     V39    10.002   .     S
Er38     Ti78    10.007   .     S
V39     Er37    10.002   1_455     S
V39     V180    10.013   .     S
Er40     Er41    9.995   1_455     S
Er40     V42    10.002   .     S
Er40     Ti76    10.007   .     S
Er41     Er40    9.995   1_655     S
Er41     V42    10.002   1_655     S
Er41     Ti67    10.007   .     S
V42     Er41    10.002   1_455     S
V42     V162    10.013   .     S
Er43     Er44    9.995   1_565     S
Er43     V45    10.002   1_565     S
Er43     Ti58    10.007   .     S
Er44     Er43    9.995   1_545     S
Er44     V45    10.002   .     S
Er44     Ti51    10.007   .     S
V45     Er43    10.002   1_545     S
V45     V171    10.013   .     S
Ti46     Ti50    9.997   .     S
Ti46     Ti47    9.989   .     S
Ti46     Ti48    9.992   .     S
Ti46     Ti49    9.997   .     S
Ti47     Ti50    9.992   .     S
Ti47     Ti51    9.997   .     S
Ti47     Ti48    9.997   .     S
Ti48     Ti49    9.989   .     S
Ti48     Ti51    9.997   .     S
Ti49     Ti51    9.992   .     S
Ti49     Ti50    9.997   .     S
Ti49     Er52    10.007   .     S
Ti50     Ti51    9.989   .     S
Ti50     Er71    10.007   .     S
Er52     Er53    9.995   1_545     S
Er52     V54    10.002   .     S
Er53     Er52    9.995   1_565     S
Er53     V54    10.002   1_565     S
Er53     Ti56    10.007   .     S
V54     Er53    10.002   1_545     S
V54     V156    10.013   .     S
Ti55     Ti56    9.989   .     S
Ti55     Ti58    9.997   .     S
Ti55     Ti60    9.992   .     S
Ti55     Ti59    9.997   .     S
Ti56     Ti58    9.992   .     S
Ti56     Ti57    9.997   .     S
Ti56     Ti60    9.997   .     S
Ti57     Ti58    9.989   .     S
Ti57     Ti59    9.992   .     S
Ti57     Ti60    9.997   .     S
Ti57     Er89    10.007   .     S
Ti58     Ti59    9.997   .     S
Ti59     Ti60    9.989   .     S
Ti60     Er61    10.007   .     S
Er61     V63    10.002   1_554     S
Er61     Er62    9.995   .     S
Er62     V63    10.002   1_554     S
Er62     Ti105    10.007   .     S
V63     Er61    10.002   1_556     S
V63     Er62    10.002   1_556     S
V63     V123    10.013   .     S
Ti64     Ti69    9.992   .     S
Ti64     Ti68    9.997   .     S
Ti64     Ti65    9.989   .     S
Ti64     Ti67    9.997   .     S
Ti64     Er92    10.007   .     S
Ti65     Ti69    9.997   .     S
Ti65     Ti67    9.992   .     S
Ti65     Ti66    9.997   .     S
Ti66     Ti67    9.989   .     S
Ti66     Ti68    9.992   .     S
Ti66     Ti69    9.997   .     S
Ti67     Ti68    9.997   .     S
Ti68     Ti69    9.989   .     S
Ti68     Er70    10.007   .     S
Er70     V72    10.002   1_545     S
Er70     Er71    9.995   .     S
Er71     V72    10.002   1_545     S
V72     Er70    10.002   1_565     S
V72     Er71    10.002   1_565     S
V72     V129    10.013   .     S
Ti73     Ti75    9.997   .     S
Ti73     Ti74    9.989   .     S
Ti73     Ti77    9.992   .     S
Ti73     Ti78    9.997   .     S
Ti74     Ti75    9.992   .     S
Ti74     Ti76    9.997   .     S
Ti74     Ti77    9.997   .     S
Ti75     Ti76    9.989   .     S
Ti75     Ti78    9.997   .     S
Ti76     Ti78    9.992   .     S
Ti76     Ti77    9.997   .     S
Ti77     Ti78    9.989   .     S
Ti77     Er80    10.007   .     S
Er79     Er80    9.995   .     S
Er79     V81    10.002   1_455     S
Er79     Ti83    10.007   .     S
Er80     V81    10.002   1_455     S
V81     Er79    10.002   1_655     S
V81     Er80    10.002   1_655     S
V81     V126    10.013   .     S
Ti82     Ti86    9.992   .     S
Ti82     Ti87    9.997   .     S
Ti82     Ti83    9.989   .     S
Ti82     Ti85    9.997   .     S
Ti83     Ti86    9.997   .     S
Ti83     Ti85    9.992   .     S
Ti83     Ti84    9.997   .     S
Ti84     Ti85    9.989   .     S
Ti84     Ti87    9.992   .     S
Ti84     Ti86    9.997   .     S
Ti85     Ti87    9.997   .     S
Ti86     Ti87    9.989   .     S
Ti86     Er101    10.007   .     S
Ti87     Er109    10.007   .     S
Er88     Er89    9.995   1_556     S
Er88     V90    10.002   1_566     S
Er88     Ti95    10.007   .     S
Er89     Er88    9.995   1_554     S
Er89     V90    10.002   1_565     S
V90     Er89    10.002   1_545     S
V90     Er88    10.002   1_544     S
V90     V165    10.013   .     S
Er91     Er92    9.995   1_565     S
Er91     V93    10.002   1_665     S
Er91     Ti97    10.007   .     S
Er92     Er91    9.995   1_545     S
Er92     V93    10.002   1_655     S
V93     Er91    10.002   1_445     S
V93     Er92    10.002   1_455     S
V93     V141    10.013   .     S
Ti94     Ti98    9.997   .     S
Ti94     Ti95    9.989   .     S
Ti94     Ti97    9.992   .     S
Ti94     Ti96    9.997   .     S
Ti95     Ti98    9.992   .     S
Ti95     Ti99    9.997   .     S
Ti95     Ti97    9.997   .     S
Ti96     Ti97    9.989   .     S
Ti96     Ti99    9.992   .     S
Ti96     Ti98    9.997   .     S
Ti97     Ti99    9.997   .     S
Ti98     Ti99    9.989   .     S
Ti99     Er100    10.007   .     S
Er100     Er101    9.995   1_655     S
Er100     V102    10.002   1_656     S
Er101     Er100    9.995   1_455     S
Er101     V102    10.002   1_556     S
V102     Er100    10.002   1_454     S
V102     Er101    10.002   1_554     S
V102     V138    10.013   .     S
Ti103     Ti104    9.989   .     S
Ti103     Ti106    9.992   .     S
Ti103     Ti105    9.997   .     S
Ti103     Ti108    9.997   .     S
Ti104     Ti106    9.997   .     S
Ti104     Ti108    9.992   .     S
Ti104     Ti107    9.997   .     S
Ti105     Ti106    9.989   .     S
Ti105     Ti107    9.992   .     S
Ti105     Ti108    9.997   .     S
Ti106     Ti107    9.997   .     S
Ti106     Er110    10.007   .     S
Ti107     Ti108    9.989   .     S
Ti108     Er118    10.007   .     S
Er109     Er110    9.995   1_556     S
Er109     V111    10.002   1_556     S
Er110     Er109    9.995   1_554     S
Er110     V111    10.002   .     S
V111     Er109    10.002   1_554     S
V111     V168    10.013   .     S
Ti112     Ti117    9.992   .     S
Ti112     Ti116    9.997   .     S
Ti112     Ti113    9.989   .     S
Ti112     Ti114    9.997   .     S
Ti113     Ti117    9.997   .     S
Ti113     Ti114    9.992   .     S
Ti113     Ti115    9.997   .     S
Ti114     Ti115    9.989   .     S
Ti114     Ti116    9.997   .     S
Ti115     Ti116    9.992   .     S
Ti115     Ti117    9.997   .     S
Ti116     Ti117    9.989   .     S
Ti116     Er119    10.007   .     S
Er118     Er119    9.995   .     S
Er118     V120    10.002   .     S
Er119     V120    10.002   .     S
V120     V135    10.013   .     S
Er121     Er122    9.995   .     S
Er121     V123    10.002   .     S
Er121     Ti197    10.007   .     S
Er122     V123    10.002   .     S
Er122     Ti226    10.007   .     S
Er124     Er125    9.995   .     S
Er124     V126    10.002   .     S
Er124     Ti234    10.007   .     S
Er125     V126    10.002   .     S
Er125     Ti228    10.007   .     S
Er127     Er128    9.995   .     S
Er127     V129    10.002   .     S
Er127     Ti211    10.007   .     S
Er128     V129    10.002   .     S
Er128     Ti224    10.007   .     S
Er130     V132    10.002   1_655     S
Er130     Er131    9.995   .     S
Er130     Ti213    10.007   .     S
Er131     V132    10.002   1_655     S
Er131     Ti181    10.007   .     S
V132     Er131    10.002   1_455     S
V132     Er130    10.002   1_455     S
Er133     V135    10.002   .     S
Er133     Er134    9.995   .     S
Er133     Ti216    10.007   .     S
Er134     V135    10.002   .     S
Er134     Ti185    10.007   .     S
Er136     Er137    9.995   1_655     S
Er136     V138    10.002   1_655     S
Er136     Ti214    10.007   .     S
Er137     Er136    9.995   1_455     S
Er137     V138    10.002   .     S
Er137     Ti210    10.007   .     S
V138     Er136    10.002   1_455     S
Er139     Er140    9.995   1_565     S
Er139     V141    10.002   1_565     S
Er139     Ti194    10.007   .     S
Er140     Er139    9.995   1_545     S
Er140     V141    10.002   .     S
Er140     Ti188    10.007   .     S
V141     Er139    10.002   1_545     S
Er142     V144    10.002   .     S
Er142     Er143    9.995   .     S
Er142     Ti237    10.007   .     S
Er143     V144    10.002   .     S
Er143     Ti189    10.007   .     S
Er145     V147    10.002   .     S
Er145     Er146    9.995   .     S
Er145     Ti196    10.007   .     S
Er146     V147    10.002   .     S
Er146     Ti206    10.007   .     S
Ti148     Ti153    9.992   .     S
Ti148     Ti152    9.997   .     S
Ti148     Ti149    9.989   .     S
Ti148     Ti150    9.997   .     S
Ti148     Er179    10.007   .     S
Ti149     Ti153    9.997   .     S
Ti149     Ti150    9.992   .     S
Ti149     Ti151    9.997   .     S
Ti149     Er158    10.007   .     S
Ti150     Ti151    9.989   .     S
Ti150     Ti152    9.997   .     S
Ti150     Er167    10.007   .     S
Ti151     Ti152    9.992   .     S
Ti151     Ti153    9.997   .     S
Ti151     Er155    10.007   .     S
Ti152     Ti153    9.989   .     S
Ti152     Er170    10.007   .     S
Ti153     Er161    10.007   .     S
Er154     Er155    9.995   1_565     S
Er154     V156    10.002   1_565     S
Er154     Ti208    10.007   .     S
Er155     Er154    9.995   1_545     S
Er155     V156    10.002   .     S
V156     Er154    10.002   1_545     S
Er157     Er158    9.995   1_556     S
Er157     V159    10.002   1_556     S
Er157     Ti192    10.007   .     S
Er158     Er157    9.995   1_554     S
Er158     V159    10.002   .     S
V159     Er157    10.002   1_554     S
Er160     Er161    9.995   1_655     S
Er160     V162    10.002   1_655     S
Er160     Ti182    10.007   .     S
Er161     Er160    9.995   1_455     S
Er161     V162    10.002   .     S
V162     Er160    10.002   1_455     S
Er163     Er164    9.995   1_556     S
Er163     V165    10.002   1_556     S
Er163     Ti233    10.007   .     S
Er164     Er163    9.995   1_554     S
Er164     V165    10.002   .     S
Er164     Ti183    10.007   .     S
V165     Er163    10.002   1_554     S
Er166     Er167    9.995   1_556     S
Er166     V168    10.002   1_546     S
Er166     Ti187    10.007   .     S
Er167     Er166    9.995   1_554     S
Er167     V168    10.002   1_545     S
V168     Er166    10.002   1_564     S
V168     Er167    10.002   1_565     S
Er169     Er170    9.995   1_565     S
Er169     V171    10.002   1_465     S
Er169     Ti209    10.007   .     S
Er170     Er169    9.995   1_545     S
Er170     V171    10.002   1_455     S
V171     Er170    10.002   1_655     S
V171     Er169    10.002   1_645     S
Er172     V174    10.002   1_556     S
Er172     Er173    9.995   .     S
Er172     Ti232    10.007   .     S
Er173     V174    10.002   1_556     S
Er173     Ti191    10.007   .     S
V174     Er173    10.002   1_554     S
V174     Er172    10.002   1_554     S
Er175     Er176    9.995   .     S
Er175     V177    10.002   1_565     S
Er175     Ti193    10.007   .     S
Er176     V177    10.002   1_565     S
Er176     Ti207    10.007   .     S
V177     Er176    10.002   1_545     S
V177     Er175    10.002   1_545     S
Er178     Er179    9.995   1_655     S
Er178     V180    10.002   1_654     S
Er178     Ti184    10.007   .     S
Er179     Er178    9.995   1_455     S
Er179     V180    10.002   1_554     S
V180     Er179    10.002   1_556     S
V180     Er178    10.002   1_456     S
Ti181     Ti182    9.989   .     S
Ti181     Ti184    9.997   .     S
Ti181     Ti185    9.992   .     S
Ti181     Ti186    9.997   .     S
Ti182     Ti184    9.992   .     S
Ti182     Ti183    9.997   .     S
Ti182     Ti185    9.997   .     S
Ti183     Ti184    9.989   .     S
Ti183     Ti186    9.992   .     S
Ti183     Ti185    9.997   .     S
Ti184     Ti186    9.997   .     S
Ti185     Ti186    9.989   .     S
Ti186     Er238    10.007   .     S
Ti187     Ti188    9.989   .     S
Ti187     Ti190    9.997   .     S
Ti187     Ti192    9.992   .     S
Ti187     Ti191    9.997   .     S
Ti188     Ti190    9.992   .     S
Ti188     Ti189    9.997   .     S
Ti188     Ti192    9.997   .     S
Ti189     Ti190    9.989   .     S
Ti189     Ti191    9.992   .     S
Ti189     Ti192    9.997   .     S
Ti190     Ti191    9.997   .     S
Ti190     Er200    10.007   .     S
Ti191     Ti192    9.989   .     S
Ti193     Ti194    9.989   .     S
Ti193     Ti196    9.992   .     S
Ti193     Ti195    9.997   .     S
Ti193     Ti198    9.997   .     S
Ti194     Ti196    9.997   .     S
Ti194     Ti198    9.992   .     S
Ti194     Ti197    9.997   .     S
Ti195     Ti196    9.989   .     S
Ti195     Ti197    9.992   .     S
Ti195     Ti198    9.997   .     S
Ti195     Er203    10.007   .     S
Ti196     Ti197    9.997   .     S
Ti197     Ti198    9.989   .     S
Ti198     Er199    10.007   .     S
Er199     Er200    9.995   1_565     S
Er199     V201    10.002   1_565     S
Er200     Er199    9.995   1_545     S
Er200     V201    10.002   .     S
V201     Er199    10.002   1_545     S
Er202     Er203    9.995   .     S
Er202     V204    10.002   .     S
Er202     Ti223    10.007   .     S
Er203     V204    10.002   .     S
Ti205     Ti207    9.997   .     S
Ti205     Ti206    9.989   .     S
Ti205     Ti210    9.992   .     S
Ti205     Ti209    9.997   .     S
Ti205     Er217    10.007   .     S
Ti206     Ti207    9.992   .     S
Ti206     Ti208    9.997   .     S
Ti206     Ti210    9.997   .     S
Ti207     Ti208    9.989   .     S
Ti207     Ti209    9.997   .     S
Ti208     Ti209    9.992   .     S
Ti208     Ti210    9.997   .     S
Ti209     Ti210    9.989   .     S
Ti211     Ti214    9.997   .     S
Ti211     Ti212    9.989   .     S
Ti211     Ti215    9.992   .     S
Ti211     Ti216    9.997   .     S
Ti212     Ti214    9.992   .     S
Ti212     Ti213    9.997   .     S
Ti212     Ti215    9.997   .     S
Ti212     Er218    10.007   .     S
Ti213     Ti214    9.989   .     S
Ti213     Ti216    9.992   .     S
Ti213     Ti215    9.997   .     S
Ti214     Ti216    9.997   .     S
Ti215     Ti216    9.989   .     S
Ti215     Er220    10.007   .     S
Er217     Er218    9.995   1_455     S
Er217     V219    10.002   .     S
Er218     Er217    9.995   1_655     S
Er218     V219    10.002   1_655     S
V219     Er218    10.002   1_455     S
Er220     Er221    9.995   .     S
Er220     V222    10.002   .     S
Er221     V222    10.002   .     S
Er221     Ti227    10.007   .     S
Ti223     Ti226    9.992   .     S
Ti223     Ti225    9.997   .     S
Ti223     Ti224    9.989   .     S
Ti223     Ti227    9.997   .     S
Ti224     Ti226    9.997   .     S
Ti224     Ti227    9.992   .     S
Ti224     Ti228    9.997   .     S
Ti225     Ti228    9.992   .     S
Ti225     Ti227    9.997   .     S
Ti225     Ti226    9.989   .     S
Ti225     Er230    10.007   .     S
Ti226     Ti228    9.997   .     S
Ti227     Ti228    9.989   .     S
Er229     Er230    9.995   .     S
Er229     V231    10.002   .     S
Er229     Ti236    10.007   .     S
Er230     V231    10.002   .     S
Ti232     Ti233    9.989   .     S
Ti232     Ti235    9.997   .     S
Ti232     Ti237    9.992   .     S
Ti232     Ti236    9.997   .     S
Ti233     Ti235    9.992   .     S
Ti233     Ti234    9.997   .     S
Ti233     Ti237    9.997   .     S
Ti234     Ti235    9.989   .     S
Ti234     Ti236    9.992   .     S
Ti234     Ti237    9.997   .     S
Ti235     Ti236    9.997   .     S
Ti235     Er239    10.007   .     S
Ti236     Ti237    9.989   .     S
Er238     Er239    9.995   1_554     S
Er238     V240    10.002   .     S
Er239     Er238    9.995   1_556     S
Er239     V240    10.002   1_556     S
V240     Er239    10.002   1_554     S
