data_icca
_audit_creation_date              2020-02-04
_audit_creation_method            'Pymatgen'
_symmetry_space_group_name_H-M    'P1'
_symmetry_Int_Tables_number       1
loop_
_symmetry_equiv_pos_as_xyz
  x,y,z
_cell_length_a                    75.5057
_cell_length_b                    75.5057
_cell_length_c                    75.5057
_cell_angle_alpha                 90.0
_cell_angle_beta                 90.0
_cell_angle_gamma                 90.0
loop_
_atom_site_label
_atom_site_type_symbol
_atom_site_fract_x
_atom_site_fract_y
_atom_site_fract_z
V1     V     0.3736   0.8633   0.1906
Er2     Er     0.4452   0.7872   0.272
V3     V     0.6264   0.6367   0.1906
Er4     Er     0.5548   0.7128   0.272
V5     V     0.3867   0.8764   0.0594
Er6     Er     0.4628   0.8048   0.978
V7     V     0.6133   0.6236   0.0594
Er8     Er     0.5372   0.6952   0.978
V9     V     0.1133   0.3764   0.0594
Er10     Er     0.0372   0.3048   0.978
V11     V     0.8867   0.1236   0.0594
Er12     Er     0.9628   0.1952   0.978
V13     V     0.1264   0.3633   0.1906
Er14     Er     0.0548   0.2872   0.272
V15     V     0.8736   0.1367   0.1906
Er16     Er     0.9452   0.2128   0.272
V17     V     0.0594   0.6133   0.6236
Er18     Er     0.978   0.5372   0.6952
V19     V     0.0594   0.3867   0.8764
Er20     Er     0.978   0.4628   0.8048
V21     V     0.1906   0.3736   0.8633
Er22     Er     0.272   0.4452   0.7872
V23     V     0.1906   0.6264   0.6367
Er24     Er     0.272   0.5548   0.7128
V25     V     0.1236   0.0594   0.8867
Er26     Er     0.1952   0.978   0.9628
V27     V     0.3764   0.0594   0.1133
Er28     Er     0.3048   0.978   0.0372
V29     V     0.3633   0.1906   0.1264
Er30     Er     0.2872   0.272   0.0548
V31     V     0.1367   0.1906   0.8736
Er32     Er     0.2128   0.272   0.9452
V33     V     0.1264   0.8633   0.8094
Er34     Er     0.0548   0.7872   0.728
V35     V     0.8736   0.6367   0.8094
Er36     Er     0.9452   0.7128   0.728
V37     V     0.8867   0.6236   0.9406
Er38     Er     0.9628   0.6952   0.022
V39     V     0.1133   0.8764   0.9406
Er40     Er     0.0372   0.8048   0.022
V41     V     0.1264   0.1367   0.6906
Er42     Er     0.0548   0.2128   0.772
V43     V     0.8736   0.3633   0.6906
Er44     Er     0.9452   0.2872   0.772
V45     V     0.8867   0.3764   0.5594
Er46     Er     0.9628   0.3048   0.478
V47     V     0.1133   0.1236   0.5594
Er48     Er     0.0372   0.1952   0.478
V49     V     0.6906   0.6264   0.8633
Er50     Er     0.772   0.5548   0.7872
V51     V     0.6906   0.3736   0.6367
Er52     Er     0.772   0.4452   0.7128
V53     V     0.5594   0.3867   0.6236
Er54     Er     0.478   0.4628   0.6952
V55     V     0.5594   0.6133   0.8764
Er56     Er     0.478   0.5372   0.8048
V57     V     0.8764   0.4406   0.8867
Er58     Er     0.8048   0.522   0.9628
V59     V     0.6236   0.4406   0.1133
Er60     Er     0.6952   0.522   0.0372
V61     V     0.6367   0.3094   0.1264
Er62     Er     0.7128   0.228   0.0548
V63     V     0.8633   0.3094   0.8736
Er64     Er     0.7872   0.228   0.9452
V65     V     0.5594   0.8867   0.3764
Er66     Er     0.478   0.9628   0.3048
V67     V     0.5594   0.1133   0.1236
Er68     Er     0.478   0.0372   0.1952
V69     V     0.6906   0.1264   0.1367
Er70     Er     0.772   0.0548   0.2128
V71     V     0.6906   0.8736   0.3633
Er72     Er     0.772   0.9452   0.2872
V73     V     0.8633   0.6906   0.6264
Er74     Er     0.7872   0.772   0.5548
V75     V     0.6367   0.6906   0.3736
Er76     Er     0.7128   0.772   0.4452
V77     V     0.6236   0.5594   0.3867
Er78     Er     0.6952   0.478   0.4628
V79     V     0.8764   0.5594   0.6133
Er80     Er     0.8048   0.478   0.5372
V81     V     0.8094   0.1264   0.8633
Er82     Er     0.728   0.0548   0.7872
V83     V     0.8094   0.8736   0.6367
Er84     Er     0.728   0.9452   0.7128
V85     V     0.9406   0.8867   0.6236
Er86     Er     0.022   0.9628   0.6952
V87     V     0.9406   0.1133   0.8764
Er88     Er     0.022   0.0372   0.8048
V89     V     0.1367   0.8094   0.6264
Er90     Er     0.2128   0.728   0.5548
V91     V     0.3633   0.8094   0.3736
Er92     Er     0.2872   0.728   0.4452
V93     V     0.1236   0.9406   0.6133
Er94     Er     0.1952   0.022   0.5372
V95     V     0.3764   0.9406   0.3867
Er96     Er     0.3048   0.022   0.4628
V97     V     0.4406   0.3867   0.1236
Er98     Er     0.522   0.4628   0.1952
V99     V     0.4406   0.6133   0.3764
Er100     Er     0.522   0.5372   0.3048
V101     V     0.3094   0.6264   0.3633
Er102     Er     0.228   0.5548   0.2872
V103     V     0.3094   0.3736   0.1367
Er104     Er     0.228   0.4452   0.2128
V105     V     0.6264   0.1367   0.8094
Er106     Er     0.5548   0.2128   0.728
V107     V     0.3736   0.3633   0.8094
Er108     Er     0.4452   0.2872   0.728
V109     V     0.3867   0.3764   0.9406
Er110     Er     0.4628   0.3048   0.022
V111     V     0.6133   0.1236   0.9406
Er112     Er     0.5372   0.1952   0.022
V113     V     0.8867   0.8764   0.4406
Er114     Er     0.9628   0.8048   0.522
V115     V     0.1133   0.6236   0.4406
Er116     Er     0.0372   0.6952   0.522
V117     V     0.1264   0.6367   0.3094
Er118     Er     0.0548   0.7128   0.228
V119     V     0.8736   0.8633   0.3094
Er120     Er     0.9452   0.7872   0.228
V121     V     0.3633   0.3094   0.6264
Er122     Er     0.2872   0.228   0.5548
V123     V     0.1367   0.3094   0.3736
Er124     Er     0.2128   0.228   0.4452
V125     V     0.1236   0.4406   0.3867
Er126     Er     0.1952   0.522   0.4628
V127     V     0.3764   0.4406   0.6133
Er128     Er     0.3048   0.522   0.5372
V129     V     0.1906   0.1264   0.3633
Er130     Er     0.272   0.0548   0.2872
V131     V     0.1906   0.8736   0.1367
Er132     Er     0.272   0.9452   0.2128
V133     V     0.0594   0.1133   0.3764
Er134     Er     0.978   0.0372   0.3048
V135     V     0.0594   0.8867   0.1236
Er136     Er     0.978   0.9628   0.1952
V137     V     0.8633   0.1906   0.3736
Er138     Er     0.7872   0.272   0.4452
V139     V     0.6367   0.1906   0.6264
Er140     Er     0.7128   0.272   0.5548
V141     V     0.6236   0.0594   0.6133
Er142     Er     0.6952   0.978   0.5372
V143     V     0.8764   0.0594   0.3867
Er144     Er     0.8048   0.978   0.4628
V145     V     0.3867   0.1236   0.4406
Er146     Er     0.4628   0.1952   0.522
V147     V     0.6133   0.3764   0.4406
Er148     Er     0.5372   0.3048   0.522
V149     V     0.3736   0.1367   0.3094
Er150     Er     0.4452   0.2128   0.228
V151     V     0.6264   0.3633   0.3094
Er152     Er     0.5548   0.2872   0.228
V153     V     0.8094   0.3736   0.3633
Er154     Er     0.728   0.4452   0.2872
V155     V     0.8094   0.6264   0.1367
Er156     Er     0.728   0.5548   0.2128
V157     V     0.9406   0.6133   0.1236
Er158     Er     0.022   0.5372   0.1952
V159     V     0.9406   0.3867   0.3764
Er160     Er     0.022   0.4628   0.3048
V161     V     0.3094   0.1264   0.6367
Er162     Er     0.228   0.0548   0.7128
V163     V     0.3094   0.8736   0.8633
Er164     Er     0.228   0.9452   0.7872
V165     V     0.4406   0.8867   0.8764
Er166     Er     0.522   0.9628   0.8048
V167     V     0.4406   0.1133   0.6236
Er168     Er     0.522   0.0372   0.6952
V169     V     0.8633   0.8094   0.1264
Er170     Er     0.7872   0.728   0.0548
V171     V     0.6367   0.8094   0.8736
Er172     Er     0.7128   0.728   0.9452
V173     V     0.6236   0.9406   0.8867
Er174     Er     0.6952   0.022   0.9628
V175     V     0.8764   0.9406   0.1133
Er176     Er     0.8048   0.022   0.0372
V177     V     0.1367   0.6906   0.1264
Er178     Er     0.2128   0.772   0.0548
V179     V     0.3633   0.6906   0.8736
Er180     Er     0.2872   0.772   0.9452
V181     V     0.1236   0.5594   0.1133
Er182     Er     0.1952   0.478   0.0372
V183     V     0.3764   0.5594   0.8867
Er184     Er     0.3048   0.478   0.9628
V185     V     0.6264   0.8633   0.6906
Er186     Er     0.5548   0.7872   0.772
V187     V     0.3736   0.6367   0.6906
Er188     Er     0.4452   0.7128   0.772
V189     V     0.6133   0.8764   0.5594
Er190     Er     0.5372   0.8048   0.478
V191     V     0.3867   0.6236   0.5594
Er192     Er     0.4628   0.6952   0.478
loop_
_geom_bond_atom_site_label_1
_geom_bond_atom_site_label_2
_geom_bond_distance
_geom_bond_site_symmetry_2
_ccdc_geom_bond_type
V1     Er132    10.0   .     S
V1     Er2    10.0   .     S
V1     V5    10.0   .     S
Er2     Er4    10.0   .     S
Er2     V91    10.0   .     S
V3     Er156    10.0   .     S
V3     Er4    10.0   .     S
V3     V7    10.0   .     S
Er4     V75    10.0   .     S
V5     Er28    10.0   .     S
V5     Er6    10.0   1_554     S
Er6     V5    10.0   1_556     S
Er6     Er8    10.0   .     S
Er6     V165    10.0   .     S
V7     Er60    10.0   .     S
V7     Er8    10.0   1_554     S
Er8     V7    10.0   1_556     S
Er8     V55    10.0   .     S
V9     Er182    10.0   .     S
V9     Er10    10.0   1_554     S
V9     V13    10.0   .     S
Er10     V9    10.0   1_556     S
Er10     Er12    10.0   1_455     S
Er10     V19    10.0   .     S
V11     Er176    10.0   .     S
V11     Er12    10.0   1_554     S
V11     V15    10.0   .     S
Er12     V11    10.0   1_556     S
Er12     Er10    10.0   1_655     S
Er12     V87    10.0   .     S
V13     Er104    10.0   .     S
V13     Er14    10.0   .     S
Er14     Er16    10.0   1_455     S
Er14     V123    10.0   .     S
V15     Er70    10.0   .     S
V15     Er16    10.0   .     S
Er16     Er14    10.0   1_655     S
Er16     V137    10.0   .     S
V17     Er116    10.0   .     S
V17     Er18    10.0   1_455     S
V17     V23    10.0   .     S
Er18     V17    10.0   1_655     S
Er18     Er20    10.0   .     S
Er18     V79    10.0   .     S
V19     Er20    10.0   1_455     S
V19     V21    10.0   .     S
Er20     V19    10.0   1_655     S
Er20     V57    10.0   .     S
V21     Er32    10.0   .     S
V21     Er22    10.0   .     S
Er22     Er24    10.0   .     S
Er22     V107    10.0   .     S
V23     Er90    10.0   .     S
V23     Er24    10.0   .     S
Er24     V187    10.0   .     S
V25     Er88    10.0   .     S
V25     Er26    10.0   1_545     S
V25     V31    10.0   .     S
Er26     V25    10.0   1_565     S
Er26     Er28    10.0   1_556     S
Er26     V39    10.0   .     S
V27     Er68    10.0   .     S
V27     Er28    10.0   1_545     S
V27     V29    10.0   .     S
Er28     V27    10.0   1_565     S
Er28     Er26    10.0   1_554     S
V29     Er150    10.0   .     S
V29     Er30    10.0   .     S
Er30     Er32    10.0   1_554     S
Er30     V103    10.0   .     S
V31     Er42    10.0   .     S
V31     Er32    10.0   .     S
Er32     Er30    10.0   1_556     S
V33     Er164    10.0   .     S
V33     Er34    10.0   .     S
V33     V39    10.0   .     S
Er34     Er36    10.0   1_455     S
Er34     V89    10.0   .     S
V35     Er50    10.0   .     S
V35     Er36    10.0   .     S
V35     V37    10.0   .     S
Er36     Er34    10.0   1_655     S
Er36     V73    10.0   .     S
V37     Er58    10.0   .     S
V37     Er38    10.0   1_556     S
Er38     V37    10.0   1_554     S
Er38     Er40    10.0   1_655     S
Er38     V157    10.0   .     S
V39     Er40    10.0   1_556     S
Er40     V39    10.0   1_554     S
Er40     Er38    10.0   1_455     S
Er40     V135    10.0   .     S
V41     Er162    10.0   .     S
V41     Er42    10.0   .     S
V41     V47    10.0   .     S
Er42     Er44    10.0   1_455     S
V43     Er52    10.0   .     S
V43     Er44    10.0   .     S
V43     V45    10.0   .     S
Er44     Er42    10.0   1_655     S
Er44     V63    10.0   .     S
V45     Er80    10.0   .     S
V45     Er46    10.0   .     S
Er46     Er48    10.0   1_655     S
Er46     V159    10.0   .     S
V47     Er94    10.0   .     S
V47     Er48    10.0   .     S
Er48     Er46    10.0   1_455     S
Er48     V133    10.0   .     S
V49     Er172    10.0   .     S
V49     Er50    10.0   .     S
V49     V55    10.0   .     S
Er50     Er52    10.0   .     S
V51     Er140    10.0   .     S
V51     Er52    10.0   .     S
V51     V53    10.0   .     S
V53     Er148    10.0   .     S
V53     Er54    10.0   .     S
Er54     Er56    10.0   .     S
Er54     V127    10.0   .     S
V55     Er56    10.0   .     S
Er56     V183    10.0   .     S
V57     Er58    10.0   .     S
V57     V63    10.0   .     S
Er58     Er60    10.0   1_556     S
V59     Er98    10.0   .     S
V59     Er60    10.0   .     S
V59     V61    10.0   .     S
Er60     Er58    10.0   1_554     S
V61     Er152    10.0   .     S
V61     Er62    10.0   .     S
Er62     Er64    10.0   1_554     S
Er62     V69    10.0   .     S
V63     Er64    10.0   .     S
Er64     Er62    10.0   1_556     S
Er64     V81    10.0   .     S
V65     Er190    10.0   .     S
V65     Er66    10.0   .     S
V65     V71    10.0   .     S
Er66     Er68    10.0   1_565     S
Er66     V95    10.0   .     S
V67     Er112    10.0   .     S
V67     Er68    10.0   .     S
V67     V69    10.0   .     S
Er68     Er66    10.0   1_545     S
V69     Er70    10.0   .     S
Er70     Er72    10.0   1_545     S
V71     Er76    10.0   .     S
V71     Er72    10.0   .     S
Er72     Er70    10.0   1_565     S
Er72     V119    10.0   .     S
V73     Er74    10.0   .     S
V73     V79    10.0   .     S
Er74     Er76    10.0   .     S
Er74     V83    10.0   .     S
V75     Er76    10.0   .     S
V75     V77    10.0   .     S
V77     Er100    10.0   .     S
V77     Er78    10.0   .     S
Er78     Er80    10.0   .     S
Er78     V147    10.0   .     S
V79     Er80    10.0   .     S
V81     Er82    10.0   .     S
V81     V87    10.0   .     S
Er82     Er84    10.0   1_545     S
Er82     V105    10.0   .     S
V83     Er84    10.0   .     S
V83     V85    10.0   .     S
Er84     Er82    10.0   1_565     S
Er84     V185    10.0   .     S
V85     Er114    10.0   .     S
V85     Er86    10.0   1_655     S
Er86     V85    10.0   1_455     S
Er86     Er88    10.0   1_565     S
Er86     V93    10.0   .     S
V87     Er88    10.0   1_655     S
Er88     V87    10.0   1_455     S
Er88     Er86    10.0   1_545     S
V89     Er90    10.0   .     S
V89     V93    10.0   .     S
Er90     Er92    10.0   .     S
V91     Er92    10.0   .     S
V91     V95    10.0   .     S
Er92     V101    10.0   .     S
V93     Er94    10.0   1_565     S
Er94     V93    10.0   1_545     S
Er94     Er96    10.0   .     S
V95     Er96    10.0   1_565     S
Er96     V95    10.0   1_545     S
Er96     V145    10.0   .     S
V97     Er110    10.0   .     S
V97     Er98    10.0   .     S
V97     V103    10.0   .     S
Er98     Er100    10.0   .     S
V99     Er192    10.0   .     S
V99     Er100    10.0   .     S
V99     V101    10.0   .     S
V101     Er102    10.0   .     S
Er102     Er104    10.0   .     S
Er102     V117    10.0   .     S
V103     Er104    10.0   .     S
V105     Er106    10.0   .     S
V105     V111    10.0   .     S
Er106     Er108    10.0   .     S
Er106     V139    10.0   .     S
V107     Er108    10.0   .     S
V107     V109    10.0   .     S
Er108     V121    10.0   .     S
V109     Er184    10.0   .     S
V109     Er110    10.0   1_556     S
Er110     V109    10.0   1_554     S
Er110     Er112    10.0   .     S
V111     Er174    10.0   .     S
V111     Er112    10.0   1_556     S
Er112     V111    10.0   1_554     S
V113     Er144    10.0   .     S
V113     Er114    10.0   .     S
V113     V119    10.0   .     S
Er114     Er116    10.0   1_655     S
V115     Er126    10.0   .     S
V115     Er116    10.0   .     S
V115     V117    10.0   .     S
Er116     Er114    10.0   1_455     S
V117     Er118    10.0   .     S
Er118     Er120    10.0   1_455     S
Er118     V177    10.0   .     S
V119     Er120    10.0   .     S
Er120     Er118    10.0   1_655     S
Er120     V169    10.0   .     S
V121     Er122    10.0   .     S
V121     V127    10.0   .     S
Er122     Er124    10.0   .     S
Er122     V161    10.0   .     S
V123     Er124    10.0   .     S
V123     V125    10.0   .     S
Er124     V129    10.0   .     S
V125     Er160    10.0   .     S
V125     Er126    10.0   .     S
Er126     Er128    10.0   .     S
V127     Er128    10.0   .     S
Er128     V191    10.0   .     S
V129     Er130    10.0   .     S
V129     V133    10.0   .     S
Er130     Er132    10.0   1_545     S
Er130     V149    10.0   .     S
V131     Er178    10.0   .     S
V131     Er132    10.0   .     S
V131     V135    10.0   .     S
Er132     Er130    10.0   1_565     S
V133     Er134    10.0   1_455     S
Er134     V133    10.0   1_655     S
Er134     Er136    10.0   1_545     S
Er134     V143    10.0   .     S
V135     Er136    10.0   1_455     S
Er136     V135    10.0   1_655     S
Er136     Er134    10.0   1_565     S
Er136     V175    10.0   .     S
V137     Er138    10.0   .     S
V137     V143    10.0   .     S
Er138     Er140    10.0   .     S
Er138     V153    10.0   .     S
V139     Er140    10.0   .     S
V139     V141    10.0   .     S
V141     Er168    10.0   .     S
V141     Er142    10.0   1_545     S
Er142     V141    10.0   1_565     S
Er142     Er144    10.0   .     S
Er142     V189    10.0   .     S
V143     Er144    10.0   1_545     S
Er144     V143    10.0   1_565     S
V145     Er146    10.0   .     S
V145     V149    10.0   .     S
Er146     Er148    10.0   .     S
Er146     V167    10.0   .     S
V147     Er148    10.0   .     S
V147     V151    10.0   .     S
V149     Er150    10.0   .     S
Er150     Er152    10.0   .     S
V151     Er154    10.0   .     S
V151     Er152    10.0   .     S
V153     Er154    10.0   .     S
V153     V159    10.0   .     S
Er154     Er156    10.0   .     S
V155     Er170    10.0   .     S
V155     Er156    10.0   .     S
V155     V157    10.0   .     S
V157     Er158    10.0   1_655     S
Er158     V157    10.0   1_455     S
Er158     Er160    10.0   .     S
Er158     V181    10.0   .     S
V159     Er160    10.0   1_655     S
Er160     V159    10.0   1_455     S
V161     Er162    10.0   .     S
V161     V167    10.0   .     S
Er162     Er164    10.0   1_545     S
V163     Er180    10.0   .     S
V163     Er164    10.0   .     S
V163     V165    10.0   .     S
Er164     Er162    10.0   1_565     S
V165     Er166    10.0   .     S
Er166     Er168    10.0   1_565     S
Er166     V173    10.0   .     S
V167     Er168    10.0   .     S
Er168     Er166    10.0   1_545     S
V169     Er170    10.0   .     S
V169     V175    10.0   .     S
Er170     Er172    10.0   1_554     S
V171     Er186    10.0   .     S
V171     Er172    10.0   .     S
V171     V173    10.0   .     S
Er172     Er170    10.0   1_556     S
V173     Er174    10.0   1_565     S
Er174     V173    10.0   1_545     S
Er174     Er176    10.0   1_556     S
V175     Er176    10.0   1_565     S
Er176     V175    10.0   1_545     S
Er176     Er174    10.0   1_554     S
V177     Er178    10.0   .     S
V177     V181    10.0   .     S
Er178     Er180    10.0   1_554     S
V179     Er188    10.0   .     S
V179     Er180    10.0   .     S
V179     V183    10.0   .     S
Er180     Er178    10.0   1_556     S
V181     Er182    10.0   .     S
Er182     Er184    10.0   1_554     S
V183     Er184    10.0   .     S
Er184     Er182    10.0   1_556     S
V185     Er186    10.0   .     S
V185     V189    10.0   .     S
Er186     Er188    10.0   .     S
V187     Er188    10.0   .     S
V187     V191    10.0   .     S
V189     Er190    10.0   .     S
Er190     Er192    10.0   .     S
V191     Er192    10.0   .     S
