data_idpa
_audit_creation_date              2020-02-04
_audit_creation_method            'Pymatgen'
_symmetry_space_group_name_H-M    'P1'
_symmetry_Int_Tables_number       1
loop_
_symmetry_equiv_pos_as_xyz
  x,y,z
_cell_length_a                    85.7552
_cell_length_b                    85.7552
_cell_length_c                    85.7552
_cell_angle_alpha                 90.0
_cell_angle_beta                 90.0
_cell_angle_gamma                 90.0
loop_
_atom_site_label
_atom_site_type_symbol
_atom_site_fract_x
_atom_site_fract_y
_atom_site_fract_z
Er1     Er     0.3612   0.1427   0.5
V2     V     0.5583   0.0583   0.5
V3     V     0.4417   0.0583   0.5
Er4     Er     0.6388   0.1427   0.5
Er5     Er     0.3612   0.8573   0.5
V6     V     0.5583   0.9417   0.5
V7     V     0.4417   0.9417   0.5
Er8     Er     0.6388   0.8573   0.5
Er9     Er     0.1427   0.5   0.3612
V10     V     0.0583   0.5   0.5583
V11     V     0.0583   0.5   0.4417
Er12     Er     0.1427   0.5   0.6388
Er13     Er     0.8573   0.5   0.3612
V14     V     0.9417   0.5   0.5583
V15     V     0.9417   0.5   0.4417
Er16     Er     0.8573   0.5   0.6388
Ti17     Ti     0.2096   0.2853   0.0583
Ti18     Ti     0.2853   0.0583   0.2096
Ti19     Ti     0.0583   0.2096   0.2853
Ti20     Ti     0.2904   0.2147   0.4417
Ti21     Ti     0.2147   0.4417   0.2904
Ce22     Ce     0.1707   0.2326   0.2643
Ce23     Ce     0.2357   0.3293   0.2674
Ce24     Ce     0.2326   0.2643   0.1707
Ce25     Ce     0.2674   0.2357   0.3293
Ce26     Ce     0.2643   0.1707   0.2326
Ce27     Ce     0.3293   0.2674   0.2357
Ti28     Ti     0.4417   0.2904   0.2147
Er29     Er     0.5   0.6388   0.1427
V30     V     0.5   0.4417   0.0583
V31     V     0.5   0.5583   0.0583
Er32     Er     0.5   0.3612   0.1427
Er33     Er     0.5   0.3612   0.8573
V34     V     0.5   0.5583   0.9417
V35     V     0.5   0.4417   0.9417
Er36     Er     0.5   0.6388   0.8573
Ti37     Ti     0.2853   0.9417   0.2096
Ti38     Ti     0.2147   0.5583   0.2904
Ti39     Ti     0.4417   0.7096   0.2147
Ti40     Ti     0.0583   0.7904   0.2853
Ti41     Ti     0.2904   0.7853   0.4417
Ce42     Ce     0.1707   0.7674   0.2643
Ce43     Ce     0.2326   0.7357   0.1707
Ce44     Ce     0.2357   0.6707   0.2674
Ce45     Ce     0.2674   0.7643   0.3293
Ce46     Ce     0.2643   0.8293   0.2326
Ce47     Ce     0.3293   0.7326   0.2357
Ti48     Ti     0.2096   0.7147   0.0583
Er49     Er     0.3573   0.0   0.8612
V50     V     0.4417   0.0   0.9417
V51     V     0.4417   0.0   0.0583
Er52     Er     0.3573   0.0   0.1388
Ti53     Ti     0.2147   0.5583   0.7096
Ti54     Ti     0.2853   0.9417   0.7904
Ti55     Ti     0.2904   0.7853   0.5583
Ti56     Ti     0.2096   0.7147   0.9417
Ti57     Ti     0.4417   0.7096   0.7853
Ce58     Ce     0.2326   0.7357   0.8293
Ce59     Ce     0.2357   0.6707   0.7326
Ce60     Ce     0.2643   0.8293   0.7674
Ce61     Ce     0.3293   0.7326   0.7643
Ce62     Ce     0.1707   0.7674   0.7357
Ce63     Ce     0.2674   0.7643   0.6707
Ti64     Ti     0.0583   0.7904   0.7147
Er65     Er     0.8612   0.6427   0.0
V66     V     0.9417   0.5583   0.0
V67     V     0.0583   0.5583   0.0
Er68     Er     0.1388   0.6427   0.0
Ti69     Ti     0.2096   0.2853   0.9417
Ti70     Ti     0.2904   0.2147   0.5583
Ti71     Ti     0.2147   0.4417   0.7096
Ti72     Ti     0.2853   0.0583   0.7904
Ti73     Ti     0.4417   0.2904   0.7853
Ce74     Ce     0.2643   0.1707   0.7674
Ce75     Ce     0.1707   0.2326   0.7357
Ce76     Ce     0.2674   0.2357   0.6707
Ce77     Ce     0.3293   0.2674   0.7643
Ce78     Ce     0.2326   0.2643   0.8293
Ce79     Ce     0.2357   0.3293   0.7326
Ti80     Ti     0.0583   0.2096   0.7147
Er81     Er     0.8612   0.3573   0.0
V82     V     0.9417   0.4417   0.0
V83     V     0.0583   0.4417   0.0
Er84     Er     0.1388   0.3573   0.0
Ti85     Ti     0.7096   0.2147   0.5583
Ti86     Ti     0.7904   0.2853   0.9417
Ti87     Ti     0.5583   0.2904   0.7853
Ti88     Ti     0.7853   0.4417   0.7096
Ti89     Ti     0.9417   0.2096   0.7147
Ce90     Ce     0.8293   0.2326   0.7357
Ce91     Ce     0.7326   0.2357   0.6707
Ce92     Ce     0.7674   0.2643   0.8293
Ce93     Ce     0.7643   0.3293   0.7326
Ce94     Ce     0.7357   0.1707   0.7674
Ce95     Ce     0.6707   0.2674   0.7643
Ti96     Ti     0.7147   0.0583   0.7904
Er97     Er     0.0   0.8612   0.6427
V98     V     0.0   0.9417   0.5583
V99     V     0.0   0.0583   0.5583
Er100     Er     0.0   0.1388   0.6427
Ti101     Ti     0.7096   0.7853   0.5583
Ti102     Ti     0.7853   0.5583   0.7096
Ti103     Ti     0.5583   0.7096   0.7853
Ti104     Ti     0.7904   0.7147   0.9417
Ti105     Ti     0.9417   0.7904   0.7147
Ce106     Ce     0.7674   0.7357   0.8293
Ce107     Ce     0.7643   0.6707   0.7326
Ce108     Ce     0.7357   0.8293   0.7674
Ce109     Ce     0.6707   0.7326   0.7643
Ce110     Ce     0.8293   0.7674   0.7357
Ce111     Ce     0.7326   0.7643   0.6707
Ti112     Ti     0.7147   0.9417   0.7904
Er113     Er     0.6427   0.0   0.8612
V114     V     0.5583   0.0   0.9417
V115     V     0.5583   0.0   0.0583
Er116     Er     0.6427   0.0   0.1388
Ti117     Ti     0.9417   0.2096   0.2853
Ti118     Ti     0.7096   0.2147   0.4417
Ti119     Ti     0.5583   0.2904   0.2147
Ti120     Ti     0.7904   0.2853   0.0583
Ti121     Ti     0.7853   0.4417   0.2904
Ce122     Ce     0.7674   0.2643   0.1707
Ce123     Ce     0.7357   0.1707   0.2326
Ce124     Ce     0.6707   0.2674   0.2357
Ce125     Ce     0.7643   0.3293   0.2674
Ce126     Ce     0.8293   0.2326   0.2643
Ce127     Ce     0.7326   0.2357   0.3293
Ti128     Ti     0.7147   0.0583   0.2096
Ti129     Ti     0.5583   0.7096   0.2147
Ti130     Ti     0.9417   0.7904   0.2853
Ti131     Ti     0.7096   0.7853   0.4417
Ti132     Ti     0.7853   0.5583   0.2904
Ti133     Ti     0.7147   0.9417   0.2096
Ce134     Ce     0.7357   0.8293   0.2326
Ce135     Ce     0.6707   0.7326   0.2357
Ce136     Ce     0.7674   0.7357   0.1707
Ce137     Ce     0.7643   0.6707   0.2674
Ce138     Ce     0.8293   0.7674   0.2643
Ce139     Ce     0.7326   0.7643   0.3293
Ti140     Ti     0.7904   0.7147   0.0583
Er141     Er     0.0   0.8612   0.3573
V142     V     0.0   0.9417   0.4417
V143     V     0.0   0.0583   0.4417
Er144     Er     0.0   0.1388   0.3573
loop_
_geom_bond_atom_site_label_1
_geom_bond_atom_site_label_2
_geom_bond_distance
_geom_bond_site_symmetry_2
_ccdc_geom_bond_type
Er1     Ti70    10.0   .     S
Er1     Ti20    10.0   .     S
Er1     V3    10.0   .     S
V2     V3    9.999   .     S
V2     Er4    10.0   .     S
V2     V6    10.001   1_545     S
V3     V7    10.001   1_545     S
Er4     Ti118    10.0   .     S
Er4     Ti85    10.0   .     S
Er5     Ti41    10.0   .     S
Er5     Ti55    10.0   .     S
Er5     V7    10.0   .     S
V6     V7    9.999   .     S
V6     Er8    10.0   .     S
V6     V2    10.001   1_565     S
V7     V3    10.001   1_565     S
Er8     Ti101    10.0   .     S
Er8     Ti131    10.0   .     S
Er9     Ti38    10.0   .     S
Er9     Ti21    10.0   .     S
Er9     V11    10.0   .     S
V10     V11    9.999   .     S
V10     Er12    10.0   .     S
V10     V14    10.001   1_455     S
V11     V15    10.001   1_455     S
Er12     Ti71    10.0   .     S
Er12     Ti53    10.0   .     S
Er13     Ti121    10.0   .     S
Er13     Ti132    10.0   .     S
Er13     V15    10.0   .     S
V14     V15    9.999   .     S
V14     Er16    10.0   .     S
V14     V10    10.001   1_655     S
V15     V11    10.001   1_655     S
Er16     Ti102    10.0   .     S
Er16     Ti88    10.0   .     S
Ti17     Ce24    10.0   .     S
Ti17     Er84    10.0   .     S
Ti17     Ti69    10.001   1_554     S
Ti18     Ce26    10.0   .     S
Ti18     Er52    10.0   .     S
Ti18     Ti37    10.001   1_545     S
Ti19     Ce22    10.0   .     S
Ti19     Er144    10.0   .     S
Ti19     Ti117    10.001   1_455     S
Ti20     Ti70    10.001   .     S
Ti20     Ce25    10.0   .     S
Ti21     Ti38    10.001   .     S
Ti21     Ce23    10.0   .     S
Ce22     Ce25    9.999   .     S
Ce22     Ce26    10.0   .     S
Ce22     Ce23    9.999   .     S
Ce22     Ce24    10.0   .     S
Ce23     Ce25    10.0   .     S
Ce23     Ce24    9.999   .     S
Ce23     Ce27    10.0   .     S
Ce24     Ce26    10.0   .     S
Ce24     Ce27    9.999   .     S
Ce25     Ce26    9.999   .     S
Ce25     Ce27    10.0   .     S
Ce26     Ce27    9.999   .     S
Ce27     Ti28    10.0   .     S
Ti28     Er32    10.0   .     S
Ti28     Ti119    10.001   .     S
Er29     Ti39    10.0   .     S
Er29     Ti129    10.0   .     S
Er29     V31    10.0   .     S
V30     V31    9.999   .     S
V30     Er32    10.0   .     S
V30     V35    10.001   1_554     S
V31     V34    10.001   1_554     S
Er32     Ti119    10.0   .     S
Er33     Ti73    10.0   .     S
Er33     Ti87    10.0   .     S
Er33     V35    10.0   .     S
V34     V35    9.999   .     S
V34     Er36    10.0   .     S
V34     V31    10.001   1_556     S
V35     V30    10.001   1_556     S
Er36     Ti103    10.0   .     S
Er36     Ti57    10.0   .     S
Ti37     Ce46    10.0   .     S
Ti37     Er52    10.0   1_565     S
Ti37     Ti18    10.001   1_565     S
Ti38     Ce44    10.0   .     S
Ti39     Ti129    10.001   .     S
Ti39     Ce47    10.0   .     S
Ti40     Ce42    10.0   .     S
Ti40     Er141    10.0   .     S
Ti40     Ti130    10.001   1_455     S
Ti41     Ti55    10.001   .     S
Ti41     Ce45    10.0   .     S
Ce42     Ce45    9.999   .     S
Ce42     Ce46    10.0   .     S
Ce42     Ce43    10.0   .     S
Ce42     Ce44    9.999   .     S
Ce43     Ce44    9.999   .     S
Ce43     Ce46    10.0   .     S
Ce43     Ce47    9.999   .     S
Ce43     Ti48    10.0   .     S
Ce44     Ce45    10.0   .     S
Ce44     Ce47    10.0   .     S
Ce45     Ce46    9.999   .     S
Ce45     Ce47    10.0   .     S
Ce46     Ce47    9.999   .     S
Ti48     Er68    10.0   .     S
Ti48     Ti56    10.001   1_554     S
Er49     Ti54    10.0   1_545     S
Er49     Ti72    10.0   .     S
Er49     V50    10.0   .     S
V50     V51    9.999   1_556     S
V50     V114    10.001   .     S
V51     V50    9.999   1_554     S
V51     Er52    10.0   .     S
V51     V115    10.001   .     S
Er52     Ti37    10.0   1_545     S
Ti53     Ti71    10.001   .     S
Ti53     Ce59    10.0   .     S
Ti54     Er49    10.0   1_565     S
Ti54     Ti72    10.001   1_565     S
Ti54     Ce60    10.0   .     S
Ti55     Ce63    10.0   .     S
Ti56     Ce58    10.0   .     S
Ti56     Er68    10.0   1_556     S
Ti56     Ti48    10.001   1_556     S
Ti57     Ti103    10.001   .     S
Ti57     Ce61    10.0   .     S
Ce58     Ce59    9.999   .     S
Ce58     Ce62    10.0   .     S
Ce58     Ce60    10.0   .     S
Ce58     Ce61    9.999   .     S
Ce59     Ce62    9.999   .     S
Ce59     Ce63    10.0   .     S
Ce59     Ce61    10.0   .     S
Ce60     Ce61    9.999   .     S
Ce60     Ce62    10.0   .     S
Ce60     Ce63    9.999   .     S
Ce61     Ce63    10.0   .     S
Ce62     Ce63    9.999   .     S
Ce62     Ti64    10.0   .     S
Ti64     Er97    10.0   .     S
Ti64     Ti105    10.001   1_455     S
Er65     Ti140    10.0   .     S
Er65     Ti104    10.0   1_554     S
Er65     V66    10.0   .     S
V66     V67    9.999   1_655     S
V66     V82    10.001   .     S
V67     V66    9.999   1_455     S
V67     Er68    10.0   .     S
V67     V83    10.001   .     S
Er68     Ti56    10.0   1_554     S
Ti69     Ce78    10.0   .     S
Ti69     Er84    10.0   1_556     S
Ti69     Ti17    10.001   1_556     S
Ti70     Ce76    10.0   .     S
Ti71     Ce79    10.0   .     S
Ti72     Ti54    10.001   1_545     S
Ti72     Ce74    10.0   .     S
Ti73     Ti87    10.001   .     S
Ti73     Ce77    10.0   .     S
Ce74     Ce77    9.999   .     S
Ce74     Ce78    10.0   .     S
Ce74     Ce75    10.0   .     S
Ce74     Ce76    9.999   .     S
Ce75     Ce76    9.999   .     S
Ce75     Ce78    10.0   .     S
Ce75     Ce79    9.999   .     S
Ce75     Ti80    10.0   .     S
Ce76     Ce77    10.0   .     S
Ce76     Ce79    10.0   .     S
Ce77     Ce78    9.999   .     S
Ce77     Ce79    10.0   .     S
Ce78     Ce79    9.999   .     S
Ti80     Er100    10.0   .     S
Ti80     Ti89    10.001   1_455     S
Er81     Ti86    10.0   1_554     S
Er81     Ti120    10.0   .     S
Er81     V82    10.0   .     S
V82     V83    9.999   1_655     S
V83     V82    9.999   1_455     S
V83     Er84    10.0   .     S
Er84     Ti69    10.0   1_554     S
Ti85     Ti118    10.001   .     S
Ti85     Ce91    10.0   .     S
Ti86     Er81    10.0   1_556     S
Ti86     Ti120    10.001   1_556     S
Ti86     Ce92    10.0   .     S
Ti87     Ce95    10.0   .     S
Ti88     Ti102    10.001   .     S
Ti88     Ce93    10.0   .     S
Ti89     Ce90    10.0   .     S
Ti89     Er100    10.0   1_655     S
Ti89     Ti80    10.001   1_655     S
Ce90     Ce91    9.999   .     S
Ce90     Ce94    10.0   .     S
Ce90     Ce92    10.0   .     S
Ce90     Ce93    9.999   .     S
Ce91     Ce94    9.999   .     S
Ce91     Ce95    10.0   .     S
Ce91     Ce93    10.0   .     S
Ce92     Ce93    9.999   .     S
Ce92     Ce94    10.0   .     S
Ce92     Ce95    9.999   .     S
Ce93     Ce95    10.0   .     S
Ce94     Ce95    9.999   .     S
Ce94     Ti96    10.0   .     S
Ti96     Er113    10.0   .     S
Ti96     Ti112    10.001   1_545     S
Er97     Ti105    10.0   1_455     S
Er97     V98    10.0   .     S
V98     V99    9.999   1_565     S
V98     V142    10.001   .     S
V99     V98    9.999   1_545     S
V99     Er100    10.0   .     S
V99     V143    10.001   .     S
Er100     Ti89    10.0   1_455     S
Ti101     Ti131    10.001   .     S
Ti101     Ce111    10.0   .     S
Ti102     Ce107    10.0   .     S
Ti103     Ce109    10.0   .     S
Ti104     Er65    10.0   1_556     S
Ti104     Ti140    10.001   1_556     S
Ti104     Ce106    10.0   .     S
Ti105     Er97    10.0   1_655     S
Ti105     Ti64    10.001   1_655     S
Ti105     Ce110    10.0   .     S
Ce106     Ce107    9.999   .     S
Ce106     Ce110    10.0   .     S
Ce106     Ce108    10.0   .     S
Ce106     Ce109    9.999   .     S
Ce107     Ce110    9.999   .     S
Ce107     Ce111    10.0   .     S
Ce107     Ce109    10.0   .     S
Ce108     Ce109    9.999   .     S
Ce108     Ce110    10.0   .     S
Ce108     Ce111    9.999   .     S
Ce108     Ti112    10.0   .     S
Ce109     Ce111    10.0   .     S
Ce110     Ce111    9.999   .     S
Ti112     Er113    10.0   1_565     S
Ti112     Ti96    10.001   1_565     S
Er113     Ti112    10.0   1_545     S
Er113     V114    10.0   .     S
V114     V115    9.999   1_556     S
V115     V114    9.999   1_554     S
V115     Er116    10.0   .     S
Er116     Ti133    10.0   1_545     S
Er116     Ti128    10.0   .     S
Ti117     Ce126    10.0   .     S
Ti117     Er144    10.0   1_655     S
Ti117     Ti19    10.001   1_655     S
Ti118     Ce127    10.0   .     S
Ti119     Ce124    10.0   .     S
Ti120     Ti86    10.001   1_554     S
Ti120     Ce122    10.0   .     S
Ti121     Ti132    10.001   .     S
Ti121     Ce125    10.0   .     S
Ce122     Ce125    9.999   .     S
Ce122     Ce126    10.0   .     S
Ce122     Ce123    10.0   .     S
Ce122     Ce124    9.999   .     S
Ce123     Ce124    9.999   .     S
Ce123     Ce126    10.0   .     S
Ce123     Ce127    9.999   .     S
Ce123     Ti128    10.0   .     S
Ce124     Ce125    10.0   .     S
Ce124     Ce127    10.0   .     S
Ce125     Ce126    9.999   .     S
Ce125     Ce127    10.0   .     S
Ce126     Ce127    9.999   .     S
Ti128     Ti133    10.001   1_545     S
Ti129     Ce135    10.0   .     S
Ti130     Ce138    10.0   .     S
Ti130     Er141    10.0   1_655     S
Ti130     Ti40    10.001   1_655     S
Ti131     Ce139    10.0   .     S
Ti132     Ce137    10.0   .     S
Ti133     Er116    10.0   1_565     S
Ti133     Ti128    10.001   1_565     S
Ti133     Ce134    10.0   .     S
Ce134     Ce135    9.999   .     S
Ce134     Ce136    10.0   .     S
Ce134     Ce138    10.0   .     S
Ce134     Ce139    9.999   .     S
Ce135     Ce136    9.999   .     S
Ce135     Ce137    10.0   .     S
Ce135     Ce139    10.0   .     S
Ce136     Ce137    9.999   .     S
Ce136     Ce138    10.0   .     S
Ce136     Ti140    10.0   .     S
Ce137     Ce138    9.999   .     S
Ce137     Ce139    10.0   .     S
Ce138     Ce139    9.999   .     S
Ti140     Ti104    10.001   1_554     S
Er141     Ti130    10.0   1_455     S
Er141     V142    10.0   .     S
V142     V143    9.999   1_565     S
V143     V142    9.999   1_545     S
V143     Er144    10.0   .     S
Er144     Ti117    10.0   1_455     S
