data_isd
_audit_creation_date              2020-02-04
_audit_creation_method            'Pymatgen'
_symmetry_space_group_name_H-M    'P1'
_symmetry_Int_Tables_number       1
loop_
_symmetry_equiv_pos_as_xyz
  x,y,z
_cell_length_a                    20.5355
_cell_length_b                    20.5355
_cell_length_c                    168.9149
_cell_angle_alpha                 90.0
_cell_angle_beta                 90.0
_cell_angle_gamma                 90.0
loop_
_atom_site_label
_atom_site_type_symbol
_atom_site_fract_x
_atom_site_fract_y
_atom_site_fract_z
V1     V     0.2974   0.385   0.9705
V2     V     0.7026   0.115   0.9705
Er3     Er     0.0   0.75   0.9856
V4     V     0.2974   0.885   0.0295
V5     V     0.7026   0.615   0.0295
Er6     Er     0.0   0.25   0.0144
Ce7     Ce     0.0   0.75   0.875
Ti8     Ti     0.1722   0.4222   0.9135
Ti9     Ti     0.8278   0.0778   0.9134
S10     S     0.5   0.25   0.875
Ti11     Ti     0.6722   0.5778   0.8366
Ti12     Ti     0.3278   0.9222   0.8366
V13     V     0.865   0.0474   0.7205
V14     V     0.135   0.4526   0.7205
Er15     Er     0.5   0.75   0.7356
V16     V     0.635   0.4526   0.7795
V17     V     0.365   0.0474   0.7795
Er18     Er     0.0   0.75   0.7644
V19     V     0.135   0.9526   0.2795
V20     V     0.865   0.5474   0.2795
Er21     Er     0.5   0.25   0.2644
V22     V     0.635   0.9526   0.2205
V23     V     0.365   0.5474   0.2205
Er24     Er     0.0   0.25   0.2356
Ti25     Ti     0.8278   0.5778   0.0865
Ti26     Ti     0.1722   0.9222   0.0865
Ce27     Ce     0.0   0.25   0.125
S28     S     0.5   0.75   0.125
Ti29     Ti     0.3278   0.4222   0.1635
Ti30     Ti     0.6722   0.0778   0.1634
S31     S     0.0   0.75   0.375
Ti32     Ti     0.8278   0.4222   0.3365
Ti33     Ti     0.1722   0.0778   0.3366
Ce34     Ce     0.5   0.25   0.375
Ti35     Ti     0.6722   0.9222   0.4134
Ti36     Ti     0.3278   0.5778   0.4134
V37     V     0.7974   0.385   0.5295
V38     V     0.2026   0.115   0.5295
Er39     Er     0.5   0.75   0.5144
V40     V     0.2026   0.615   0.4705
V41     V     0.7974   0.885   0.4705
Er42     Er     0.5   0.25   0.4856
S43     S     0.0   0.25   0.625
Ti44     Ti     0.8278   0.9222   0.6634
Ti45     Ti     0.1722   0.5778   0.6634
Ce46     Ce     0.5   0.75   0.625
Ti47     Ti     0.6722   0.4222   0.5866
Ti48     Ti     0.3278   0.0778   0.5865
loop_
_geom_bond_atom_site_label_1
_geom_bond_atom_site_label_2
_geom_bond_distance
_geom_bond_site_symmetry_2
_ccdc_geom_bond_type
V1     Er6    10.0   1_556     S
V1     Er3    10.0   .     S
V1     V2    10.0   .     S
V1     Ti8    10.0   .     S
V2     Er6    10.0   1_656     S
V2     Er3    10.0   1_645     S
V2     Ti9    10.0   .     S
Er3     V2    10.0   1_465     S
Er3     V4    10.0   1_556     S
Er3     V5    10.0   1_456     S
V4     Er3    10.0   1_554     S
V4     Er6    10.0   1_565     S
V4     V5    10.0   .     S
V4     Ti26    10.0   .     S
V5     Er3    10.0   1_654     S
V5     Er6    10.0   1_655     S
V5     Ti25    10.0   .     S
Er6     V1    10.0   1_554     S
Er6     V2    10.0   1_454     S
Er6     V4    10.0   1_545     S
Er6     V5    10.0   1_455     S
Ce7     Ti11    10.0   1_455     S
Ce7     Ti9    10.0   1_465     S
Ce7     Ti8    10.0   .     S
Ce7     Ti12    10.0   .     S
Ti8     Ti9    10.0   1_455     S
Ti8     S10    10.0   .     S
Ti9     Ce7    10.0   1_645     S
Ti9     Ti8    10.0   1_655     S
Ti9     S10    10.0   .     S
S10     Ti11    10.0   .     S
S10     Ti12    10.0   1_545     S
Ti11     Ce7    10.0   1_655     S
Ti11     V16    10.0   .     S
Ti11     Ti12    10.0   .     S
Ti12     S10    10.0   1_565     S
Ti12     V17    10.0   1_565     S
V13     Er18    10.0   1_645     S
V13     Er15    10.0   1_545     S
V13     V14    10.0   1_655     S
V13     Ti44    10.0   1_545     S
V14     Er18    10.0   .     S
V14     Er15    10.0   .     S
V14     V13    10.0   1_455     S
V14     Ti45    10.0   .     S
Er15     V13    10.0   1_565     S
Er15     V16    10.0   .     S
Er15     V17    10.0   1_565     S
V16     Er18    10.0   1_655     S
V16     V17    10.0   .     S
V17     Ti12    10.0   1_545     S
V17     Er15    10.0   1_545     S
V17     Er18    10.0   1_545     S
Er18     V13    10.0   1_465     S
Er18     V16    10.0   1_455     S
Er18     V17    10.0   1_565     S
V19     Er24    10.0   1_565     S
V19     Er21    10.0   1_565     S
V19     V20    10.0   1_455     S
V19     Ti33    10.0   1_565     S
V20     Er24    10.0   1_655     S
V20     Er21    10.0   .     S
V20     V19    10.0   1_655     S
V20     Ti32    10.0   .     S
Er21     V19    10.0   1_545     S
Er21     V22    10.0   1_545     S
Er21     V23    10.0   .     S
V22     Er21    10.0   1_565     S
V22     Er24    10.0   1_665     S
V22     V23    10.0   .     S
V22     Ti30    10.0   1_565     S
V23     Er24    10.0   .     S
V23     Ti29    10.0   .     S
Er24     V19    10.0   1_545     S
Er24     V20    10.0   1_455     S
Er24     V22    10.0   1_445     S
Ti25     Ti26    10.0   1_655     S
Ti25     Ce27    10.0   1_655     S
Ti25     S28    10.0   .     S
Ti26     Ti25    10.0   1_455     S
Ti26     Ce27    10.0   1_565     S
Ti26     S28    10.0   .     S
Ce27     Ti26    10.0   1_545     S
Ce27     Ti30    10.0   1_455     S
Ce27     Ti29    10.0   .     S
Ce27     Ti25    10.0   1_455     S
S28     Ti30    10.0   1_565     S
S28     Ti29    10.0   .     S
Ti29     Ti30    10.0   .     S
Ti30     Ce27    10.0   1_655     S
Ti30     S28    10.0   1_545     S
Ti30     V22    10.0   1_545     S
S31     Ti36    10.0   .     S
S31     Ti35    10.0   1_455     S
S31     Ti33    10.0   1_565     S
S31     Ti32    10.0   1_455     S
Ti32     S31    10.0   1_655     S
Ti32     Ti33    10.0   1_655     S
Ti32     Ce34    10.0   .     S
Ti33     S31    10.0   1_545     S
Ti33     V19    10.0   1_545     S
Ti33     Ti32    10.0   1_455     S
Ti33     Ce34    10.0   .     S
Ce34     Ti35    10.0   1_545     S
Ce34     Ti36    10.0   .     S
Ti35     S31    10.0   1_655     S
Ti35     Ce34    10.0   1_565     S
Ti35     V41    10.0   .     S
Ti35     Ti36    10.0   .     S
Ti36     V40    10.0   .     S
V37     Er42    10.0   .     S
V37     Er39    10.0   .     S
V37     V38    10.0   1_655     S
V37     Ti47    10.0   .     S
V38     Er42    10.0   .     S
V38     Er39    10.0   1_545     S
V38     V37    10.0   1_455     S
V38     Ti48    10.0   .     S
Er39     V38    10.0   1_565     S
Er39     V40    10.0   .     S
Er39     V41    10.0   .     S
V40     Er42    10.0   .     S
V40     V41    10.0   1_455     S
V41     Er42    10.0   1_565     S
V41     V40    10.0   1_655     S
Er42     V41    10.0   1_545     S
S43     Ti47    10.0   1_455     S
S43     Ti48    10.0   .     S
S43     Ti45    10.0   .     S
S43     Ti44    10.0   1_445     S
Ti44     S43    10.0   1_665     S
Ti44     V13    10.0   1_565     S
Ti44     Ti45    10.0   1_655     S
Ti44     Ce46    10.0   .     S
Ti45     Ti44    10.0   1_455     S
Ti45     Ce46    10.0   .     S
Ce46     Ti48    10.0   1_565     S
Ce46     Ti47    10.0   .     S
Ti47     S43    10.0   1_655     S
Ti47     Ti48    10.0   .     S
Ti48     Ce46    10.0   1_545     S
