data_ise
_audit_creation_date              2020-02-04
_audit_creation_method            'Pymatgen'
_symmetry_space_group_name_H-M    'P1'
_symmetry_Int_Tables_number       1
loop_
_symmetry_equiv_pos_as_xyz
  x,y,z
_cell_length_a                    80.4662
_cell_length_b                    25.039
_cell_length_c                    41.7718
_cell_angle_alpha                 90.0
_cell_angle_beta                 90.0
_cell_angle_gamma                 90.0
loop_
_atom_site_label
_atom_site_type_symbol
_atom_site_fract_x
_atom_site_fract_y
_atom_site_fract_z
Ce1     Ce     0.75   0.75   0.3816
Ce2     Ce     0.75   0.75   0.8816
Ce3     Ce     0.25   0.25   0.6184
Ce4     Ce     0.25   0.25   0.1184
S5     S     0.4387   0.5372   0.1881
S6     S     0.0613   0.9628   0.1881
S7     S     0.5613   0.4628   0.8119
S8     S     0.9387   0.0372   0.8119
Ti9     Ti     0.1812   0.5068   0.9918
H10     H     0.0678   0.6322   0.0543
He11     He     0.9931   0.6898   0.8661
V12     V     0.25   0.75   0.1277
Ti13     Ti     0.3188   0.9932   0.9918
H14     H     0.4322   0.8678   0.0543
He15     He     0.5069   0.8102   0.8661
Ti16     Ti     0.8188   0.4932   0.0082
H17     H     0.9322   0.3678   0.9457
He18     He     0.0069   0.3103   0.1339
V19     V     0.75   0.25   0.8723
Ti20     Ti     0.6812   0.0068   0.0082
H21     H     0.5678   0.1322   0.9457
He22     He     0.4931   0.1898   0.1339
Er23     Er     0.6802   0.9933   0.2475
Er24     Er     0.8198   0.5067   0.2475
Er25     Er     0.3198   0.0067   0.7525
Er26     Er     0.1802   0.4933   0.7525
S27     S     0.9387   0.4628   0.3119
S28     S     0.5613   0.0372   0.3119
Ti29     Ti     0.6812   0.4932   0.5082
H30     H     0.5678   0.3678   0.4457
He31     He     0.4931   0.3103   0.6339
V32     V     0.75   0.25   0.3723
Ti33     Ti     0.8188   0.0068   0.5082
H34     H     0.9322   0.1322   0.4457
He35     He     0.0069   0.1897   0.6339
Ti36     Ti     0.1812   0.9932   0.4918
H37     H     0.0678   0.8678   0.5543
He38     He     0.9931   0.8102   0.3661
V39     V     0.25   0.75   0.6277
Ti40     Ti     0.3188   0.5068   0.4918
H41     H     0.4322   0.6322   0.5543
He42     He     0.5069   0.6898   0.3661
S43     S     0.4387   0.9628   0.6881
S44     S     0.0613   0.5372   0.6881
Er45     Er     0.1802   0.0067   0.2525
Er46     Er     0.3198   0.4933   0.2525
Er47     Er     0.8198   0.9933   0.7475
Er48     Er     0.6802   0.5067   0.7475
loop_
_geom_bond_atom_site_label_1
_geom_bond_atom_site_label_2
_geom_bond_distance
_geom_bond_site_symmetry_2
_ccdc_geom_bond_type
Ce1     Er23    10.0   .     S
Ce1     Er24    10.0   .     S
Ce1     Ti29    10.0   .     S
Ce1     Ti33    10.0   1_565     S
Ce2     Er47    10.0   .     S
Ce2     Er48    10.0   .     S
Ce2     Ti16    10.0   1_556     S
Ce2     Ti20    10.0   1_566     S
Ce3     Er26    10.0   .     S
Ce3     Er25    10.0   .     S
Ce3     Ti40    10.0   .     S
Ce3     Ti36    10.0   1_545     S
Ce4     Er45    10.0   .     S
Ce4     Er46    10.0   .     S
Ce4     Ti13    10.0   1_544     S
Ce4     Ti9    10.0   1_554     S
S5     Er46    10.0   .     S
S5     He42    10.0   .     S
S5     H14    10.0   .     S
S5     He22    10.0   .     S
S6     Er45    10.0   1_565     S
S6     He38    10.0   1_455     S
S6     H10    10.0   .     S
S6     He18    10.0   1_565     S
S7     Er48    10.0   .     S
S7     He31    10.0   .     S
S7     He15    10.0   .     S
S7     H21    10.0   .     S
S8     Er47    10.0   1_545     S
S8     He35    10.0   1_655     S
S8     He11    10.0   1_545     S
S8     H17    10.0   .     S
Ti9     Ce4    10.0   1_556     S
Ti9     H10    9.999   1_556     S
Ti9     Er26    10.0   .     S
Ti9     V12    10.0   1_556     S
H10     Ti9    9.999   1_554     S
H10     He18    10.0   .     S
H10     He11    10.0   1_454     S
He11     S8    10.0   1_565     S
He11     H10    10.0   1_656     S
He11     H17    10.0   .     S
He11     S44    10.0   1_655     S
V12     Er45    10.0   1_565     S
V12     Er46    10.0   .     S
V12     Ti9    10.0   1_554     S
V12     Ti13    10.0   1_554     S
Ti13     Ce4    10.0   1_566     S
Ti13     V12    10.0   1_556     S
Ti13     H14    9.999   1_556     S
Ti13     Er25    10.0   1_565     S
H14     Ti13    9.999   1_554     S
H14     He22    10.0   1_565     S
H14     He15    10.0   1_554     S
He15     H14    10.0   1_556     S
He15     H21    10.0   1_565     S
He15     S43    10.0   .     S
Ti16     Ce2    10.0   1_554     S
Ti16     H17    9.999   1_554     S
Ti16     Er24    10.0   .     S
Ti16     V19    10.0   1_554     S
H17     Ti16    9.999   1_556     S
H17     He18    10.0   1_656     S
He18     S6    10.0   1_545     S
He18     H17    10.0   1_454     S
He18     S27    10.0   1_455     S
V19     Er47    10.0   1_545     S
V19     Er48    10.0   .     S
V19     Ti16    10.0   1_556     S
V19     Ti20    10.0   1_556     S
Ti20     Ce2    10.0   1_544     S
Ti20     V19    10.0   1_554     S
Ti20     H21    9.999   1_554     S
Ti20     Er23    10.0   1_545     S
H21     Ti20    9.999   1_556     S
H21     He15    10.0   1_545     S
H21     He22    10.0   1_556     S
He22     H14    10.0   1_545     S
He22     H21    10.0   1_554     S
He22     S28    10.0   .     S
Er23     Ti20    10.0   1_565     S
Er23     S28    10.0   1_565     S
Er23     V32    10.0   1_565     S
Er24     S27    10.0   .     S
Er24     V32    10.0   .     S
Er25     Ti13    10.0   1_545     S
Er25     V39    10.0   1_545     S
Er25     S43    10.0   1_545     S
Er26     V39    10.0   .     S
Er26     S44    10.0   .     S
S27     He18    10.0   1_655     S
S27     H34    10.0   .     S
S27     He38    10.0   .     S
S28     Er23    10.0   1_545     S
S28     H30    10.0   .     S
S28     He42    10.0   1_545     S
Ti29     H30    9.999   .     S
Ti29     Er48    10.0   .     S
Ti29     V32    10.0   .     S
H30     He42    10.0   .     S
H30     He31    10.0   .     S
He31     S43    10.0   1_545     S
He31     H41    10.0   .     S
V32     Er23    10.0   1_545     S
V32     Ti33    10.0   .     S
Ti33     Ce1    10.0   1_545     S
Ti33     H34    9.999   .     S
Ti33     Er47    10.0   1_545     S
H34     He38    10.0   1_545     S
H34     He35    10.0   1_655     S
He35     S8    10.0   1_455     S
He35     S44    10.0   .     S
He35     H34    10.0   1_455     S
He35     H37    10.0   1_545     S
Ti36     Ce3    10.0   1_565     S
Ti36     H37    9.999   .     S
Ti36     Er45    10.0   1_565     S
Ti36     V39    10.0   .     S
H37     He35    10.0   1_565     S
H37     He38    10.0   1_455     S
H37     S44    10.0   .     S
He38     S6    10.0   1_655     S
He38     H34    10.0   1_565     S
He38     H37    10.0   1_655     S
V39     Er25    10.0   1_565     S
V39     Ti40    10.0   .     S
Ti40     H41    9.999   .     S
Ti40     Er46    10.0   .     S
H41     He42    10.0   .     S
H41     S43    10.0   .     S
He42     S28    10.0   1_565     S
S43     He31    10.0   1_565     S
S43     Er25    10.0   1_565     S
S44     He11    10.0   1_455     S
Er45     S6    10.0   1_545     S
Er45     V12    10.0   1_545     S
Er45     Ti36    10.0   1_545     S
Er47     S8    10.0   1_565     S
Er47     V19    10.0   1_565     S
Er47     Ti33    10.0   1_565     S
