data_ish
_audit_creation_date              2020-02-04
_audit_creation_method            'Pymatgen'
_symmetry_space_group_name_H-M    'P1'
_symmetry_Int_Tables_number       1
loop_
_symmetry_equiv_pos_as_xyz
  x,y,z
_cell_length_a                    45.2633
_cell_length_b                    45.2633
_cell_length_c                    80.1872
_cell_angle_alpha                 90.0
_cell_angle_beta                 90.0
_cell_angle_gamma                 90.0
loop_
_atom_site_label
_atom_site_type_symbol
_atom_site_fract_x
_atom_site_fract_y
_atom_site_fract_z
Er1     Er     0.8722   0.109   0.9332
Er2     Er     0.8722   0.391   0.0668
Er3     Er     0.6278   0.109   0.0668
Er4     Er     0.6278   0.391   0.9332
Ce5     Ce     0.75   0.25   0.0
V6     V     0.5055   0.25   0.0
Ti7     Ti     0.1222   0.3882   0.9347
Ti8     Ti     0.3778   0.3882   0.0653
V9     V     0.9945   0.25   0.0
Ti10     Ti     0.1222   0.1118   0.0653
Ti11     Ti     0.3778   0.1118   0.9347
H12     H     0.25   0.25   0.0
Er13     Er     0.3722   0.891   0.9332
Er14     Er     0.3722   0.609   0.0668
Er15     Er     0.1278   0.609   0.9332
Ce16     Ce     0.25   0.75   0.0
Er17     Er     0.1278   0.891   0.0668
Ti18     Ti     0.8778   0.8882   0.9347
V19     V     0.4945   0.75   0.0
Ti20     Ti     0.6222   0.8882   0.0653
Ti21     Ti     0.6222   0.6118   0.9347
H22     H     0.75   0.75   0.0
Ti23     Ti     0.8778   0.6118   0.0653
V24     V     0.0055   0.75   0.0
He25     He     0.3462   0.9141   0.3134
He26     He     0.9141   0.3462   0.1866
He27     He     0.1538   0.5859   0.3134
S28     S     0.3009   0.4219   0.3229
S29     S     0.1991   0.0781   0.3229
S30     S     0.4219   0.3009   0.1772
B31     B     0.25   0.25   0.25
S32     S     0.0781   0.1991   0.1772
Li33     Li     0.0271   0.0271   0.25
Li34     Li     0.4729   0.4729   0.25
He35     He     0.5859   0.1538   0.1866
He36     He     0.0859   0.8462   0.1866
He37     He     0.8462   0.0859   0.3134
He38     He     0.4141   0.6538   0.1866
He39     He     0.6538   0.4141   0.3134
S40     S     0.9219   0.6991   0.1772
S41     S     0.6991   0.9219   0.3228
S42     S     0.8009   0.5781   0.3228
Li43     Li     0.9729   0.5271   0.25
S44     S     0.5781   0.8009   0.1772
Li45     Li     0.5271   0.9729   0.25
B46     B     0.75   0.75   0.25
Be47     Be     0.25   0.75   0.25
Be48     Be     0.75   0.25   0.25
Er49     Er     0.391   0.8722   0.4332
Er50     Er     0.109   0.8722   0.5668
Er51     Er     0.109   0.6278   0.4332
Er52     Er     0.391   0.6278   0.5668
Ce53     Ce     0.25   0.75   0.5
V54     V     0.25   0.5055   0.5
Ti55     Ti     0.3882   0.3778   0.4347
Ti56     Ti     0.1118   0.3778   0.5653
Ti57     Ti     0.3882   0.1222   0.5653
Ti58     Ti     0.1118   0.1222   0.4347
V59     V     0.25   0.9945   0.5
H60     H     0.25   0.25   0.5
He61     He     0.9141   0.1538   0.8134
He62     He     0.1538   0.9141   0.6866
He63     He     0.5859   0.3462   0.8134
S64     S     0.4219   0.1991   0.8228
S65     S     0.0781   0.3009   0.8228
S66     S     0.3009   0.0781   0.6772
S67     S     0.1991   0.4219   0.6772
Li68     Li     0.0271   0.4729   0.75
B69     B     0.25   0.25   0.75
Li70     Li     0.4729   0.0271   0.75
He71     He     0.3462   0.5859   0.6866
He72     He     0.0859   0.6538   0.8134
He73     He     0.6538   0.0859   0.6866
He74     He     0.4141   0.8462   0.8134
He75     He     0.8462   0.4141   0.6866
S76     S     0.9219   0.8009   0.8228
S77     S     0.8009   0.9219   0.6771
Li78     Li     0.9729   0.9729   0.75
S79     S     0.5781   0.6991   0.8228
S80     S     0.6991   0.5781   0.6771
B81     B     0.75   0.75   0.75
Li82     Li     0.5271   0.5271   0.75
Be83     Be     0.25   0.75   0.75
Be84     Be     0.75   0.25   0.75
Er85     Er     0.891   0.1278   0.4332
Er86     Er     0.609   0.1278   0.5668
Er87     Er     0.609   0.3722   0.4332
Ce88     Ce     0.75   0.25   0.5
Er89     Er     0.891   0.3722   0.5668
Ti90     Ti     0.8882   0.8778   0.5653
V91     V     0.75   0.4945   0.5
Ti92     Ti     0.8882   0.6222   0.4347
V93     V     0.75   0.0055   0.5
Ti94     Ti     0.6118   0.8778   0.4347
Ti95     Ti     0.6118   0.6222   0.5653
H96     H     0.75   0.75   0.5
loop_
_geom_bond_atom_site_label_1
_geom_bond_atom_site_label_2
_geom_bond_distance
_geom_bond_site_symmetry_2
_ccdc_geom_bond_type
Er1     He61    10.0   .     S
Er1     Ti18    10.0   1_545     S
Er1     Ce5    10.0   1_556     S
Er1     V9    10.0   1_556     S
Er2     He26    10.0   .     S
Er2     Ti23    10.0   .     S
Er2     Ce5    10.0   .     S
Er2     V9    10.0   .     S
Er3     He35    10.0   .     S
Er3     Ti20    10.0   1_545     S
Er3     Ce5    10.0   .     S
Er3     V6    10.0   .     S
Er4     He63    10.0   .     S
Er4     Ti21    10.0   .     S
Er4     Ce5    10.0   1_556     S
Er4     V6    10.0   1_556     S
Ce5     Er1    10.0   1_554     S
Ce5     Er4    10.0   1_554     S
V6     Er4    10.0   1_554     S
V6     Ti8    10.0   .     S
V6     Ti11    10.0   1_554     S
Ti7     V9    10.0   1_456     S
Ti7     S65    10.0   .     S
Ti7     H12    10.0   1_556     S
Ti7     Er15    10.0   .     S
Ti8     S30    10.0   .     S
Ti8     H12    10.0   .     S
Ti8     Er14    10.0   .     S
V9     Ti7    10.0   1_654     S
V9     Er1    10.0   1_554     S
V9     Ti10    10.0   1_655     S
Ti10     V9    10.0   1_455     S
Ti10     S32    10.0   .     S
Ti10     H12    10.0   .     S
Ti10     Er17    10.0   1_545     S
Ti11     V6    10.0   1_556     S
Ti11     S64    10.0   .     S
Ti11     H12    10.0   1_556     S
Ti11     Er13    10.0   1_545     S
H12     Ti7    10.0   1_554     S
H12     Ti11    10.0   1_554     S
Er13     He74    10.0   .     S
Er13     Ti11    10.0   1_565     S
Er13     Ce16    10.0   1_556     S
Er13     V19    10.0   1_556     S
Er14     He38    10.0   .     S
Er14     Ce16    10.0   .     S
Er14     V19    10.0   .     S
Er15     He72    10.0   .     S
Er15     Ce16    10.0   1_556     S
Er15     V24    10.0   1_556     S
Ce16     Er15    10.0   1_554     S
Ce16     Er17    10.0   .     S
Ce16     Er13    10.0   1_554     S
Er17     He36    10.0   .     S
Er17     Ti10    10.0   1_565     S
Er17     V24    10.0   .     S
Ti18     Er1    10.0   1_565     S
Ti18     V24    10.0   1_656     S
Ti18     S76    10.0   .     S
Ti18     H22    10.0   1_556     S
V19     Er13    10.0   1_554     S
V19     Ti20    10.0   .     S
V19     Ti21    10.0   1_554     S
Ti20     Er3    10.0   1_565     S
Ti20     S44    10.0   .     S
Ti20     H22    10.0   .     S
Ti21     V19    10.0   1_556     S
Ti21     S79    10.0   .     S
Ti21     H22    10.0   1_556     S
H22     Ti18    10.0   1_554     S
H22     Ti21    10.0   1_554     S
H22     Ti23    10.0   .     S
Ti23     V24    10.0   1_655     S
Ti23     S40    10.0   .     S
V24     Ti18    10.0   1_454     S
V24     Ti23    10.0   1_455     S
V24     Er15    10.0   1_554     S
He25     Li45    10.0   .     S
He25     Be47    10.0   .     S
He25     S29    10.0   1_565     S
He25     Er49    10.0   .     S
He26     Li43    10.0   .     S
He26     Be48    10.0   .     S
He26     S32    10.0   1_655     S
He27     Li43    10.0   1_455     S
He27     Be47    10.0   .     S
He27     S28    10.0   .     S
He27     Er51    10.0   .     S
S28     B31    10.0   .     S
S28     Li34    10.0   .     S
S28     Ti55    10.0   .     S
S29     He25    10.0   1_545     S
S29     B31    10.0   .     S
S29     Li33    10.0   .     S
S29     Ti58    10.0   .     S
S30     B31    10.0   .     S
S30     Li34    10.0   .     S
S30     He35    10.0   .     S
B31     S32    10.0   .     S
S32     He26    10.0   1_455     S
S32     Li33    10.0   .     S
Li33     He36    10.0   1_545     S
Li33     He37    10.0   1_455     S
Li34     He38    10.0   .     S
Li34     He39    10.0   .     S
He35     Li45    10.0   1_545     S
He35     Be48    10.0   .     S
He36     Li33    10.0   1_565     S
He36     Be47    10.0   .     S
He36     S40    10.0   1_455     S
He37     Li33    10.0   1_655     S
He37     Be48    10.0   .     S
He37     S41    10.0   1_545     S
He37     Er85    10.0   .     S
He38     Be47    10.0   .     S
He38     S44    10.0   .     S
He39     Be48    10.0   .     S
He39     S42    10.0   .     S
He39     Er87    10.0   .     S
S40     He36    10.0   1_655     S
S40     B46    10.0   .     S
S40     Li43    10.0   .     S
S41     B46    10.0   .     S
S41     Li45    10.0   .     S
S41     He37    10.0   1_565     S
S41     Ti94    10.0   .     S
S42     Li43    10.0   .     S
S42     B46    10.0   .     S
S42     Ti92    10.0   .     S
Li43     He27    10.0   1_655     S
S44     Li45    10.0   .     S
S44     B46    10.0   .     S
Li45     He35    10.0   1_565     S
Er49     Ti94    10.0   .     S
Er49     Ce53    10.0   .     S
Er49     V59    10.0   .     S
Er50     He62    10.0   .     S
Er50     Ti90    10.0   1_455     S
Er50     Ce53    10.0   .     S
Er50     V59    10.0   .     S
Er51     Ti92    10.0   1_455     S
Er51     Ce53    10.0   .     S
Er51     V54    10.0   .     S
Er52     He71    10.0   .     S
Er52     Ti95    10.0   .     S
Er52     Ce53    10.0   .     S
Er52     V54    10.0   .     S
V54     Ti55    10.0   .     S
V54     Ti56    10.0   .     S
Ti55     H60    10.0   .     S
Ti55     Er87    10.0   .     S
Ti56     S67    10.0   .     S
Ti56     H60    10.0   .     S
Ti56     Er89    10.0   1_455     S
Ti57     V59    10.0   1_545     S
Ti57     S66    10.0   .     S
Ti57     H60    10.0   .     S
Ti57     Er86    10.0   .     S
Ti58     V59    10.0   1_545     S
Ti58     H60    10.0   .     S
Ti58     Er85    10.0   1_455     S
V59     Ti57    10.0   1_565     S
V59     Ti58    10.0   1_565     S
He61     Li78    10.0   1_545     S
He61     Be84    10.0   .     S
He61     S65    10.0   1_655     S
He62     Li78    10.0   1_455     S
He62     Be83    10.0   .     S
He62     S66    10.0   1_565     S
He63     Li82    10.0   .     S
He63     Be84    10.0   .     S
He63     S64    10.0   .     S
S64     B69    10.0   .     S
S64     Li70    10.0   .     S
S65     He61    10.0   1_455     S
S65     B69    10.0   .     S
S65     Li68    10.0   .     S
S66     He62    10.0   1_545     S
S66     B69    10.0   .     S
S66     Li70    10.0   .     S
S67     B69    10.0   .     S
S67     Li68    10.0   .     S
S67     He71    10.0   .     S
Li68     He72    10.0   .     S
Li68     He75    10.0   1_455     S
Li70     He73    10.0   .     S
Li70     He74    10.0   1_545     S
He71     Li82    10.0   .     S
He71     Be83    10.0   .     S
He72     Be83    10.0   .     S
He72     S76    10.0   1_455     S
He73     Be84    10.0   .     S
He73     S77    10.0   1_545     S
He73     Er86    10.0   .     S
He74     Li70    10.0   1_565     S
He74     Be83    10.0   .     S
He74     S79    10.0   .     S
He75     Li68    10.0   1_655     S
He75     Be84    10.0   .     S
He75     S80    10.0   .     S
He75     Er89    10.0   .     S
S76     B81    10.0   .     S
S76     Li78    10.0   .     S
S76     He72    10.0   1_655     S
S77     B81    10.0   .     S
S77     Li78    10.0   .     S
S77     He73    10.0   1_565     S
S77     Ti90    10.0   .     S
Li78     He61    10.0   1_565     S
Li78     He62    10.0   1_655     S
S79     Li82    10.0   .     S
S79     B81    10.0   .     S
S80     Li82    10.0   .     S
S80     B81    10.0   .     S
S80     Ti95    10.0   .     S
Er85     Ti58    10.0   1_655     S
Er85     Ce88    10.0   .     S
Er85     V93    10.0   .     S
Er86     Ce88    10.0   .     S
Er86     V93    10.0   .     S
Er87     Ce88    10.0   .     S
Er87     V91    10.0   .     S
Ce88     Er89    10.0   .     S
Er89     Ti56    10.0   1_655     S
Er89     V91    10.0   .     S
Ti90     Er50    10.0   1_655     S
Ti90     V93    10.0   1_565     S
Ti90     H96    10.0   .     S
V91     Ti92    10.0   .     S
V91     Ti95    10.0   .     S
Ti92     Er51    10.0   1_655     S
Ti92     H96    10.0   .     S
V93     Ti90    10.0   1_545     S
V93     Ti94    10.0   1_545     S
Ti94     V93    10.0   1_565     S
Ti94     H96    10.0   .     S
Ti95     H96    10.0   .     S
