data_isi
_audit_creation_date              2020-02-04
_audit_creation_method            'Pymatgen'
_symmetry_space_group_name_H-M    'P1'
_symmetry_Int_Tables_number       1
loop_
_symmetry_equiv_pos_as_xyz
  x,y,z
_cell_length_a                    41.828
_cell_length_b                    25.0801
_cell_length_c                    82.7567
_cell_angle_alpha                 90.0
_cell_angle_beta                 104.0615
_cell_angle_gamma                 90.0
loop_
_atom_site_label
_atom_site_type_symbol
_atom_site_fract_x
_atom_site_fract_y
_atom_site_fract_z
Ce1     Ce     0.25   0.4838   0.5
Er2     Er     0.152   0.2333   0.5688
Er3     Er     0.348   0.2333   0.4312
V4     V     0.25   0.9828   0.5
Ti5     Ti     0.414   0.7667   0.0693
S6     S     0.4078   0.7158   0.1883
Ti7     Ti     0.086   0.7333   0.4307
S8     S     0.0922   0.7842   0.3117
He9     He     0.3818   0.0631   0.2431
H10     H     0.2721   0.385   0.1828
He11     He     0.1182   0.4369   0.2569
H12     H     0.2279   0.115   0.3172
V13     V     0.25   0.5172   0.0
Er14     Er     0.348   0.2667   0.9312
Ce15     Ce     0.25   0.0162   0.0
Er16     Er     0.152   0.2667   0.0688
Ti17     Ti     0.086   0.7667   0.9307
S18     S     0.0922   0.7158   0.8117
Ti19     Ti     0.414   0.7333   0.5693
S20     S     0.4078   0.7842   0.6883
He21     He     0.1182   0.0631   0.7569
H22     H     0.2279   0.385   0.8172
He23     He     0.3818   0.4369   0.7431
H24     H     0.2721   0.115   0.6828
V25     V     0.75   0.4828   0.0
Er26     Er     0.848   0.7333   0.9312
Er27     Er     0.652   0.7333   0.0688
Ce28     Ce     0.75   0.9838   0.0
Ti29     Ti     0.586   0.2333   0.9307
S30     S     0.5922   0.2842   0.8117
Ti31     Ti     0.914   0.2667   0.5693
S32     S     0.9078   0.2158   0.6883
He33     He     0.8818   0.5631   0.7431
H34     H     0.7721   0.885   0.6828
He35     He     0.6182   0.9369   0.7569
H36     H     0.7279   0.615   0.8172
Er37     Er     0.652   0.7667   0.5688
Ce38     Ce     0.75   0.5162   0.5
Er39     Er     0.848   0.7667   0.4312
V40     V     0.75   0.0172   0.5
Ti41     Ti     0.586   0.2667   0.4307
S42     S     0.5922   0.2158   0.3117
Ti43     Ti     0.914   0.2333   0.0693
S44     S     0.9078   0.2842   0.1883
He45     He     0.6182   0.5631   0.2569
H46     H     0.7279   0.885   0.3172
He47     He     0.8818   0.9369   0.2431
H48     H     0.7721   0.615   0.1828
loop_
_geom_bond_atom_site_label_1
_geom_bond_atom_site_label_2
_geom_bond_distance
_geom_bond_site_symmetry_2
_ccdc_geom_bond_type
Ce1     Er3    10.0   .     S
Ce1     Er2    10.0   .     S
Ce1     Ti7    10.0   .     S
Ce1     Ti19    10.0   .     S
Er2     V4    10.0   1_545     S
Er2     H24    10.0   .     S
Er2     Ti31    10.0   1_455     S
Er3     V4    10.0   1_545     S
Er3     H12    10.0   .     S
Er3     Ti41    10.0   .     S
V4     Er3    10.0   1_565     S
V4     Er2    10.0   1_565     S
V4     Ti7    10.0   .     S
V4     Ti19    10.0   .     S
Ti5     V13    10.0   .     S
Ti5     S6    10.0   .     S
Ti5     Ce15    10.0   1_565     S
Ti5     Er27    10.0   .     S
S6     He9    10.0   1_565     S
S6     H10    10.0   .     S
S6     He45    10.0   .     S
Ti7     S8    10.0   .     S
Ti7     Er39    10.0   1_455     S
S8     He11    10.0   .     S
S8     H12    10.0   1_565     S
S8     He47    10.0   1_455     S
He9     S6    10.0   1_545     S
He9     H10    10.0   .     S
He9     H12    10.0   .     S
He9     S42    10.0   .     S
H10     He11    10.0   .     S
H10     Er16    10.0   .     S
He11     H12    10.0   .     S
He11     S44    10.0   1_455     S
H12     S8    10.0   1_545     S
V13     Er16    10.0   .     S
V13     Er14    10.0   1_554     S
V13     Ti17    10.0   1_554     S
Er14     V13    10.0   1_556     S
Er14     Ce15    10.0   1_556     S
Er14     H22    10.0   .     S
Er14     Ti29    10.0   .     S
Ce15     Ti5    10.0   1_545     S
Ce15     Er14    10.0   1_554     S
Ce15     Er16    10.0   .     S
Ce15     Ti17    10.0   1_544     S
Er16     Ti43    10.0   1_455     S
Ti17     V13    10.0   1_556     S
Ti17     S18    10.0   .     S
Ti17     Ce15    10.0   1_566     S
Ti17     Er26    10.0   1_455     S
S18     He21    10.0   1_565     S
S18     H22    10.0   .     S
S18     He33    10.0   1_455     S
Ti19     S20    10.0   .     S
Ti19     Er37    10.0   .     S
S20     He23    10.0   .     S
S20     H24    10.0   1_565     S
S20     He35    10.0   .     S
He21     S18    10.0   1_545     S
He21     H22    10.0   .     S
He21     H24    10.0   .     S
He21     S32    10.0   1_455     S
H22     He23    10.0   .     S
He23     H24    10.0   .     S
He23     S30    10.0   .     S
H24     S20    10.0   1_545     S
V25     Er27    10.0   .     S
V25     Er26    10.0   1_554     S
V25     Ti29    10.0   1_554     S
V25     Ti43    10.0   .     S
Er26     Ti17    10.0   1_655     S
Er26     V25    10.0   1_556     S
Er26     Ce28    10.0   1_556     S
Er26     H36    10.0   .     S
Er27     Ce28    10.0   .     S
Er27     H48    10.0   .     S
Ce28     Er26    10.0   1_554     S
Ce28     Ti29    10.0   1_564     S
Ce28     Ti43    10.0   1_565     S
Ti29     V25    10.0   1_556     S
Ti29     S30    10.0   .     S
Ti29     Ce28    10.0   1_546     S
S30     He35    10.0   1_545     S
S30     H36    10.0   .     S
Ti31     V40    10.0   .     S
Ti31     S32    10.0   .     S
Ti31     Ce38    10.0   .     S
Ti31     Er2    10.0   1_655     S
S32     He21    10.0   1_655     S
S32     He33    10.0   .     S
S32     H34    10.0   1_545     S
He33     H34    10.0   .     S
He33     H36    10.0   .     S
He33     S18    10.0   1_655     S
H34     S32    10.0   1_565     S
H34     He35    10.0   .     S
H34     Er37    10.0   .     S
He35     S30    10.0   1_565     S
He35     H36    10.0   .     S
Er37     Ce38    10.0   .     S
Er37     V40    10.0   1_565     S
Ce38     Er39    10.0   .     S
Ce38     Ti41    10.0   .     S
Er39     Ti7    10.0   1_655     S
Er39     V40    10.0   1_565     S
Er39     H46    10.0   .     S
V40     Er39    10.0   1_545     S
V40     Er37    10.0   1_545     S
V40     Ti41    10.0   .     S
Ti41     S42    10.0   .     S
S42     He45    10.0   .     S
S42     H46    10.0   1_545     S
Ti43     S44    10.0   .     S
Ti43     Ce28    10.0   1_545     S
Ti43     Er16    10.0   1_655     S
S44     He11    10.0   1_655     S
S44     He47    10.0   1_545     S
S44     H48    10.0   .     S
He45     H46    10.0   .     S
He45     H48    10.0   .     S
H46     S42    10.0   1_565     S
H46     He47    10.0   .     S
He47     S44    10.0   1_565     S
He47     H48    10.0   .     S
He47     S8    10.0   1_655     S
