data_isj
_audit_creation_date              2020-02-04
_audit_creation_method            'Pymatgen'
_symmetry_space_group_name_H-M    'P1'
_symmetry_Int_Tables_number       1
loop_
_symmetry_equiv_pos_as_xyz
  x,y,z
_cell_length_a                    41.7613
_cell_length_b                    80.5335
_cell_length_c                    25.1034
_cell_angle_alpha                 90.0
_cell_angle_beta                 90.0
_cell_angle_gamma                 90.0
loop_
_atom_site_label
_atom_site_type_symbol
_atom_site_fract_x
_atom_site_fract_y
_atom_site_fract_z
Ce1     Ce     0.3112   0.4388   0.5334
S2     S     0.054   0.5673   0.362
H3     H     0.1344   0.5079   0.6853
S4     S     0.446   0.4327   0.862
H5     H     0.3656   0.4921   0.1853
Ce6     Ce     0.1888   0.5612   0.0334
Ce7     Ce     0.8112   0.4388   0.9666
S8     S     0.554   0.5673   0.138
H9     H     0.6344   0.5079   0.8147
Ce10     Ce     0.6888   0.5612   0.4666
S11     S     0.946   0.4327   0.638
H12     H     0.8656   0.4921   0.3147
V13     V     0.1239   0.7561   0.2338
Ti14     Ti     0.4912   0.6826   0.0332
Er15     Er     0.2526   0.6805   0.0014
V16     V     0.6239   0.7439   0.7662
Ti17     Ti     0.9912   0.8174   0.9668
Er18     Er     0.7526   0.8195   0.9986
V19     V     0.6239   0.7561   0.2662
Ti20     Ti     0.9912   0.6826   0.4668
Er21     Er     0.7526   0.6805   0.4986
V22     V     0.1239   0.7439   0.7338
Ti23     Ti     0.4912   0.8174   0.5332
Er24     Er     0.2526   0.8195   0.5014
V25     V     0.3761   0.2561   0.2338
Ti26     Ti     0.0088   0.1826   0.0332
Er27     Er     0.2474   0.1805   0.0014
V28     V     0.8761   0.2439   0.7662
Ti29     Ti     0.5088   0.3174   0.9668
Er30     Er     0.7474   0.3195   0.9986
V31     V     0.8761   0.2561   0.2662
Ti32     Ti     0.5088   0.1826   0.4668
Er33     Er     0.7474   0.1805   0.4986
V34     V     0.3761   0.2439   0.7338
Ti35     Ti     0.0088   0.3174   0.5332
Er36     Er     0.2474   0.3195   0.5014
Ce37     Ce     0.3112   0.0612   0.0334
S38     S     0.054   0.9327   0.862
H39     H     0.1344   0.9921   0.1853
Ce40     Ce     0.1888   0.9388   0.5334
S41     S     0.446   0.0673   0.362
H42     H     0.3656   0.0079   0.6853
Ce43     Ce     0.8112   0.0612   0.4666
S44     S     0.554   0.9327   0.638
H45     H     0.6344   0.9921   0.3147
Ce46     Ce     0.6888   0.9388   0.9666
S47     S     0.946   0.0673   0.138
H48     H     0.8656   0.0079   0.8147
loop_
_geom_bond_atom_site_label_1
_geom_bond_atom_site_label_2
_geom_bond_distance
_geom_bond_site_symmetry_2
_ccdc_geom_bond_type
Ce1     Er36    10.0   .     S
Ce1     S4    10.0   .     S
Ce1     H3    10.0   .     S
Ce1     H5    10.0   .     S
S2     H12    10.0   1_455     S
S2     H3    10.0   .     S
S2     Ti20    10.0   1_455     S
S2     Ce6    10.0   .     S
H3     Ce6    10.0   1_556     S
H3     S11    10.0   1_455     S
S4     H9    10.0   .     S
S4     H5    10.0   1_556     S
S4     Ti29    10.0   .     S
H5     S4    10.0   1_554     S
H5     Ce6    10.0   .     S
H5     S8    10.0   .     S
Ce6     Er15    10.0   .     S
Ce6     H3    10.0   1_554     S
Ce7     Er30    10.0   .     S
Ce7     S11    10.0   .     S
Ce7     H9    10.0   .     S
Ce7     H12    10.0   1_556     S
S8     H9    10.0   1_554     S
S8     Ti14    10.0   .     S
S8     Ce10    10.0   .     S
H9     S8    10.0   1_556     S
H9     Ce10    10.0   .     S
Ce10     Er21    10.0   .     S
Ce10     H12    10.0   .     S
S11     H3    10.0   1_655     S
S11     H12    10.0   .     S
S11     Ti35    10.0   1_655     S
H12     S2    10.0   1_655     S
H12     Ce7    10.0   1_554     S
V13     Er15    10.0   .     S
V13     Ti17    10.0   1_454     S
V13     Ti20    10.0   1_455     S
V13     Er24    10.0   .     S
Ti14     V16    10.0   1_554     S
Ti14     V19    10.0   .     S
Ti14     Er15    10.0   .     S
Er15     V22    10.0   1_554     S
V16     Ti14    10.0   1_556     S
V16     Er18    10.0   .     S
V16     Er21    10.0   .     S
V16     Ti23    10.0   .     S
Ti17     V13    10.0   1_656     S
Ti17     V22    10.0   1_655     S
Ti17     Er18    10.0   .     S
Ti17     S38    10.0   1_655     S
Er18     V19    10.0   1_556     S
Er18     Ce46    10.0   .     S
V19     Er18    10.0   1_554     S
V19     Er21    10.0   .     S
V19     Ti23    10.0   .     S
Ti20     S2    10.0   1_655     S
Ti20     V22    10.0   1_655     S
Ti20     V13    10.0   1_655     S
Ti20     Er21    10.0   .     S
V22     Er15    10.0   1_556     S
V22     Ti17    10.0   1_455     S
V22     Ti20    10.0   1_455     S
V22     Er24    10.0   .     S
Ti23     Er24    10.0   .     S
Ti23     S44    10.0   .     S
Er24     Ce40    10.0   .     S
V25     Er27    10.0   .     S
V25     Ti29    10.0   1_554     S
V25     Ti32    10.0   .     S
V25     Er36    10.0   .     S
Ti26     V28    10.0   1_454     S
Ti26     V31    10.0   1_455     S
Ti26     Er27    10.0   .     S
Ti26     S47    10.0   1_455     S
Er27     V34    10.0   1_554     S
Er27     Ce37    10.0   .     S
V28     Ti26    10.0   1_656     S
V28     Er30    10.0   .     S
V28     Er33    10.0   .     S
V28     Ti35    10.0   1_655     S
Ti29     V25    10.0   1_556     S
Ti29     V34    10.0   .     S
Ti29     Er30    10.0   .     S
Er30     V31    10.0   1_556     S
V31     Ti26    10.0   1_655     S
V31     Er30    10.0   1_554     S
V31     Er33    10.0   .     S
V31     Ti35    10.0   1_655     S
Ti32     V34    10.0   .     S
Ti32     Er33    10.0   .     S
Ti32     S41    10.0   .     S
Er33     Ce43    10.0   .     S
V34     Er27    10.0   1_556     S
V34     Er36    10.0   .     S
Ti35     S11    10.0   1_455     S
Ti35     V31    10.0   1_455     S
Ti35     V28    10.0   1_455     S
Ti35     Er36    10.0   .     S
Ce37     S41    10.0   .     S
Ce37     H39    10.0   1_545     S
Ce37     H42    10.0   1_554     S
S38     H48    10.0   1_465     S
S38     H39    10.0   1_556     S
S38     Ti17    10.0   1_455     S
S38     Ce40    10.0   .     S
H39     S38    10.0   1_554     S
H39     Ce37    10.0   1_565     S
H39     Ce40    10.0   .     S
H39     S47    10.0   1_465     S
Ce40     H42    10.0   1_565     S
S41     H45    10.0   1_545     S
S41     H42    10.0   .     S
H42     Ce40    10.0   1_545     S
H42     Ce37    10.0   1_556     S
H42     S44    10.0   1_545     S
Ce43     S47    10.0   .     S
Ce43     H45    10.0   1_545     S
Ce43     H48    10.0   .     S
S44     H42    10.0   1_565     S
S44     H45    10.0   .     S
S44     Ce46    10.0   .     S
H45     S41    10.0   1_565     S
H45     Ce43    10.0   1_565     S
H45     Ce46    10.0   1_554     S
Ce46     H48    10.0   1_565     S
Ce46     H45    10.0   1_556     S
S47     H39    10.0   1_645     S
S47     H48    10.0   1_554     S
S47     Ti26    10.0   1_655     S
H48     S38    10.0   1_645     S
H48     S47    10.0   1_556     S
H48     Ce46    10.0   1_545     S
