data_isu
_audit_creation_date              2020-02-04
_audit_creation_method            'Pymatgen'
_symmetry_space_group_name_H-M    'P1'
_symmetry_Int_Tables_number       1
loop_
_symmetry_equiv_pos_as_xyz
  x,y,z
_cell_length_a                    46.6073
_cell_length_b                    46.6073
_cell_length_c                    78.8145
_cell_angle_alpha                 90.0
_cell_angle_beta                 90.0
_cell_angle_gamma                 90.0
loop_
_atom_site_label
_atom_site_type_symbol
_atom_site_fract_x
_atom_site_fract_y
_atom_site_fract_z
V1     V     0.3284   0.8379   0.3193
Ce2     Ce     0.3288   0.8064   0.1938
V3     V     0.5879   0.5784   0.9307
Ce4     Ce     0.5564   0.5788   0.0562
V5     V     0.6716   0.6621   0.3193
Ce6     Ce     0.6712   0.6936   0.1938
S7     S     0.5   0.75   0.125
Er8     Er     0.7276   0.5224   0.125
Ce9     Ce     0.4436   0.9212   0.0562
V10     V     0.4121   0.9216   0.9307
Er11     Er     0.2724   0.9776   0.125
V12     V     0.1716   0.6621   0.1807
Ce13     Ce     0.1712   0.6936   0.3062
Ce14     Ce     0.0564   0.5788   0.4438
V15     V     0.0879   0.5784   0.5693
Er16     Er     0.2276   0.5224   0.375
S17     S     0.0   0.75   0.375
V18     V     0.8284   0.8379   0.1807
Ce19     Ce     0.8288   0.8064   0.3062
Ce20     Ce     0.9436   0.9212   0.4438
V21     V     0.9121   0.9216   0.5693
Er22     Er     0.7724   0.9776   0.375
V23     V     0.8284   0.3379   0.8193
Ce24     Ce     0.8288   0.3064   0.6938
Ce25     Ce     0.9436   0.4212   0.5562
V26     V     0.9121   0.4216   0.4307
Er27     Er     0.7724   0.4776   0.625
V28     V     0.0879   0.0784   0.4307
Ce29     Ce     0.0564   0.0788   0.5562
V30     V     0.1716   0.1621   0.8193
Ce31     Ce     0.1712   0.1936   0.6938
Er32     Er     0.2276   0.0224   0.625
S33     S     0.0   0.25   0.625
Ce34     Ce     0.5564   0.0788   0.9438
V35     V     0.5879   0.0784   0.0693
V36     V     0.6716   0.1621   0.6807
Ce37     Ce     0.6712   0.1936   0.8062
Ce38     Ce     0.4436   0.4212   0.9438
V39     V     0.4121   0.4216   0.0693
S40     S     0.5   0.25   0.875
V41     V     0.3284   0.3379   0.6807
Ce42     Ce     0.3288   0.3064   0.8062
Er43     Er     0.2724   0.4776   0.875
Er44     Er     0.7276   0.0224   0.875
Ce45     Ce     0.5564   0.9212   0.5562
V46     V     0.5879   0.9216   0.4307
V47     V     0.4121   0.5784   0.4307
Ce48     Ce     0.4436   0.5788   0.5562
V49     V     0.6716   0.8379   0.8193
Ce50     Ce     0.6712   0.8064   0.6938
V51     V     0.3284   0.6621   0.8193
Ce52     Ce     0.3288   0.6936   0.6938
Er53     Er     0.2724   0.5224   0.625
S54     S     0.5   0.75   0.625
Er55     Er     0.7276   0.9776   0.625
Ce56     Ce     0.5564   0.4212   0.4438
V57     V     0.5879   0.4216   0.5693
Ce58     Ce     0.4436   0.0788   0.4438
V59     V     0.4121   0.0784   0.5693
V60     V     0.6716   0.3379   0.1807
Ce61     Ce     0.6712   0.3064   0.3062
Ce62     Ce     0.3288   0.1936   0.3062
V63     V     0.3284   0.1621   0.1807
Er64     Er     0.2724   0.0224   0.375
S65     S     0.5   0.25   0.375
Er66     Er     0.7276   0.4776   0.375
V67     V     0.1716   0.3379   0.3193
Ce68     Ce     0.1712   0.3064   0.1938
V69     V     0.0879   0.4216   0.9307
Ce70     Ce     0.0564   0.4212   0.0562
S71     S     0.0   0.25   0.125
Er72     Er     0.2276   0.4776   0.125
V73     V     0.9121   0.0784   0.9307
Ce74     Ce     0.9436   0.0788   0.0562
Ce75     Ce     0.8288   0.1936   0.1938
V76     V     0.8284   0.1621   0.3193
Er77     Er     0.7724   0.0224   0.125
V78     V     0.1716   0.8379   0.6807
Ce79     Ce     0.1712   0.8064   0.8062
V80     V     0.8284   0.6621   0.6807
Ce81     Ce     0.8288   0.6936   0.8062
V82     V     0.9121   0.5784   0.0693
Ce83     Ce     0.9436   0.5788   0.9438
Er84     Er     0.7724   0.5224   0.875
S85     S     0.0   0.75   0.875
V86     V     0.0879   0.9216   0.0693
Ce87     Ce     0.0564   0.9212   0.9438
Er88     Er     0.2276   0.9776   0.875
Ti89     Ti     0.5   0.75   0.875
Ti90     Ti     0.0   0.25   0.875
Ti91     Ti     0.0   0.25   0.375
Ti92     Ti     0.0   0.75   0.625
Ti93     Ti     0.0   0.75   0.125
Ti94     Ti     0.5   0.25   0.125
Ti95     Ti     0.5   0.75   0.375
Ti96     Ti     0.5   0.25   0.625
loop_
_geom_bond_atom_site_label_1
_geom_bond_atom_site_label_2
_geom_bond_distance
_geom_bond_site_symmetry_2
_ccdc_geom_bond_type
V1     Ti95    10.0   .     S
V1     Er64    10.0   1_565     S
V1     Ce2    10.0   .     S
V1     Ce13    10.0   .     S
Ce2     Er11    10.0   .     S
Ce2     S7    10.0   .     S
Ce2     V12    10.0   .     S
V3     Ti89    10.0   .     S
V3     Er84    10.0   .     S
V3     Ce4    10.0   1_556     S
V3     Ce38    10.0   .     S
Ce4     S7    10.0   .     S
Ce4     Er8    10.0   .     S
Ce4     V3    10.0   1_554     S
Ce4     V39    10.0   .     S
V5     Ti95    10.0   .     S
V5     Er66    10.0   .     S
V5     Ce6    10.0   .     S
V5     Ce19    10.0   .     S
Ce6     S7    10.0   .     S
Ce6     Er8    10.0   .     S
Ce6     V18    10.0   .     S
S7     Ce9    10.0   .     S
Er8     V60    10.0   .     S
Er8     V82    10.0   .     S
Ce9     Er11    10.0   .     S
Ce9     V10    10.0   1_554     S
Ce9     V35    10.0   1_565     S
V10     Ti89    10.0   .     S
V10     Er88    10.0   .     S
V10     Ce9    10.0   1_556     S
V10     Ce34    10.0   1_565     S
Er11     V63    10.0   1_565     S
Er11     V86    10.0   .     S
V12     Ti93    10.0   .     S
V12     Er72    10.0   .     S
V12     Ce13    10.0   .     S
Ce13     Er16    10.0   .     S
Ce13     S17    10.0   .     S
Ce14     S17    10.0   .     S
Ce14     Er16    10.0   .     S
Ce14     V15    10.0   .     S
Ce14     V26    10.0   1_455     S
V15     Ti92    10.0   .     S
V15     Er53    10.0   .     S
V15     Ce25    10.0   1_455     S
Er16     V47    10.0   .     S
Er16     V67    10.0   .     S
S17     Ce19    10.0   1_455     S
S17     Ce20    10.0   1_455     S
V18     Ti93    10.0   1_655     S
V18     Er77    10.0   1_565     S
V18     Ce19    10.0   .     S
Ce19     Er22    10.0   .     S
Ce19     S17    10.0   1_655     S
Ce20     S17    10.0   1_655     S
Ce20     Er22    10.0   .     S
Ce20     V21    10.0   .     S
Ce20     V28    10.0   1_665     S
V21     Ti92    10.0   1_655     S
V21     Er55    10.0   .     S
V21     Ce29    10.0   1_665     S
Er22     V46    10.0   .     S
Er22     V76    10.0   1_565     S
V23     Ti90    10.0   1_655     S
V23     Er84    10.0   .     S
V23     Ce24    10.0   .     S
V23     Ce37    10.0   .     S
Ce24     S33    10.0   1_655     S
Ce24     Er27    10.0   .     S
Ce24     V36    10.0   .     S
Ce25     S33    10.0   1_655     S
Ce25     Er27    10.0   .     S
Ce25     V26    10.0   .     S
Ce25     V15    10.0   1_655     S
V26     Ti91    10.0   1_655     S
V26     Er66    10.0   .     S
V26     Ce14    10.0   1_655     S
Er27     V57    10.0   .     S
Er27     V80    10.0   .     S
V28     Ce20    10.0   1_445     S
V28     Ti91    10.0   .     S
V28     Er64    10.0   .     S
V28     Ce29    10.0   .     S
Ce29     S33    10.0   .     S
Ce29     Er32    10.0   .     S
Ce29     V21    10.0   1_445     S
V30     Ti90    10.0   .     S
V30     Er88    10.0   1_545     S
V30     Ce31    10.0   .     S
V30     Ce42    10.0   .     S
Ce31     Er32    10.0   .     S
Ce31     S33    10.0   .     S
Ce31     V41    10.0   .     S
Er32     V59    10.0   .     S
Er32     V78    10.0   1_545     S
S33     Ce24    10.0   1_455     S
S33     Ce25    10.0   1_455     S
Ce34     V10    10.0   1_545     S
Ce34     Er44    10.0   .     S
Ce34     S40    10.0   .     S
Ce34     V35    10.0   1_556     S
V35     Ti94    10.0   .     S
V35     Er77    10.0   .     S
V35     Ce34    10.0   1_554     S
V35     Ce9    10.0   1_545     S
V36     Ti96    10.0   .     S
V36     Er55    10.0   1_545     S
V36     Ce37    10.0   .     S
Ce37     S40    10.0   .     S
Ce37     Er44    10.0   .     S
Ce38     Er43    10.0   .     S
Ce38     S40    10.0   .     S
Ce38     V39    10.0   1_556     S
V39     Ti94    10.0   .     S
V39     Er72    10.0   .     S
V39     Ce38    10.0   1_554     S
S40     Ce42    10.0   .     S
V41     Ti96    10.0   .     S
V41     Er53    10.0   .     S
V41     Ce42    10.0   .     S
Ce42     Er43    10.0   .     S
Er43     V51    10.0   .     S
Er43     V69    10.0   .     S
Er44     V49    10.0   1_545     S
Er44     V73    10.0   .     S
Ce45     S54    10.0   .     S
Ce45     Er55    10.0   .     S
Ce45     V46    10.0   .     S
Ce45     V59    10.0   1_565     S
V46     Ti95    10.0   .     S
V46     Ce58    10.0   1_565     S
V47     Ti95    10.0   .     S
V47     Ce48    10.0   .     S
V47     Ce56    10.0   .     S
Ce48     S54    10.0   .     S
Ce48     Er53    10.0   .     S
Ce48     V57    10.0   .     S
V49     Ti89    10.0   .     S
V49     Er44    10.0   1_565     S
V49     Ce50    10.0   .     S
V49     Ce81    10.0   .     S
Ce50     Er55    10.0   .     S
Ce50     S54    10.0   .     S
Ce50     V80    10.0   .     S
V51     Ti89    10.0   .     S
V51     Ce52    10.0   .     S
V51     Ce79    10.0   .     S
Ce52     Er53    10.0   .     S
Ce52     S54    10.0   .     S
Ce52     V78    10.0   .     S
Er55     V36    10.0   1_565     S
Ce56     Er66    10.0   .     S
Ce56     S65    10.0   .     S
Ce56     V57    10.0   .     S
V57     Ti96    10.0   .     S
Ce58     Er64    10.0   .     S
Ce58     S65    10.0   .     S
Ce58     V59    10.0   .     S
Ce58     V46    10.0   1_545     S
V59     Ti96    10.0   .     S
V59     Ce45    10.0   1_545     S
V60     Ti94    10.0   .     S
V60     Ce61    10.0   .     S
V60     Ce75    10.0   .     S
Ce61     S65    10.0   .     S
Ce61     Er66    10.0   .     S
Ce61     V76    10.0   .     S
Ce62     Er64    10.0   .     S
Ce62     S65    10.0   .     S
Ce62     V63    10.0   .     S
Ce62     V67    10.0   .     S
V63     Ti94    10.0   .     S
V63     Er11    10.0   1_545     S
V63     Ce68    10.0   .     S
Er64     V1    10.0   1_545     S
V67     Ti91    10.0   .     S
V67     Ce68    10.0   .     S
Ce68     S71    10.0   .     S
Ce68     Er72    10.0   .     S
V69     Ti90    10.0   .     S
V69     Ce70    10.0   1_556     S
V69     Ce83    10.0   1_455     S
Ce70     S71    10.0   .     S
Ce70     Er72    10.0   .     S
Ce70     V69    10.0   1_554     S
Ce70     V82    10.0   1_455     S
S71     Ce74    10.0   1_455     S
S71     Ce75    10.0   1_455     S
V73     Ti90    10.0   1_655     S
V73     Ce74    10.0   1_556     S
V73     Ce87    10.0   1_645     S
Ce74     S71    10.0   1_655     S
Ce74     Er77    10.0   .     S
Ce74     V73    10.0   1_554     S
Ce74     V86    10.0   1_645     S
Ce75     S71    10.0   1_655     S
Ce75     Er77    10.0   .     S
Ce75     V76    10.0   .     S
V76     Ti91    10.0   1_655     S
V76     Er22    10.0   1_545     S
Er77     V18    10.0   1_545     S
V78     Ti92    10.0   .     S
V78     Er32    10.0   1_565     S
V78     Ce79    10.0   .     S
Ce79     Er88    10.0   .     S
Ce79     S85    10.0   .     S
V80     Ti92    10.0   1_655     S
V80     Ce81    10.0   .     S
Ce81     S85    10.0   1_655     S
Ce81     Er84    10.0   .     S
V82     Ti93    10.0   1_655     S
V82     Ce83    10.0   1_554     S
V82     Ce70    10.0   1_655     S
Ce83     V69    10.0   1_655     S
Ce83     S85    10.0   1_655     S
Ce83     Er84    10.0   .     S
Ce83     V82    10.0   1_556     S
S85     Ce81    10.0   1_455     S
S85     Ce83    10.0   1_455     S
S85     Ce87    10.0   .     S
V86     Ce74    10.0   1_465     S
V86     Ti93    10.0   .     S
V86     Ce87    10.0   1_554     S
Ce87     Er88    10.0   .     S
Ce87     V86    10.0   1_556     S
Ce87     V73    10.0   1_465     S
Er88     V30    10.0   1_565     S
Ti90     V23    10.0   1_455     S
Ti90     V73    10.0   1_455     S
Ti91     V26    10.0   1_455     S
Ti91     V76    10.0   1_455     S
Ti92     V21    10.0   1_455     S
Ti92     V80    10.0   1_455     S
Ti93     V18    10.0   1_455     S
Ti93     V82    10.0   1_455     S
