data_isx
_audit_creation_date              2020-02-04
_audit_creation_method            'Pymatgen'
_symmetry_space_group_name_H-M    'P1'
_symmetry_Int_Tables_number       1
loop_
_symmetry_equiv_pos_as_xyz
  x,y,z
_cell_length_a                    81.4206
_cell_length_b                    23.465
_cell_length_c                    45.0193
_cell_angle_alpha                 90.0
_cell_angle_beta                 90.0
_cell_angle_gamma                 90.0
loop_
_atom_site_label
_atom_site_type_symbol
_atom_site_fract_x
_atom_site_fract_y
_atom_site_fract_z
V1     V     0.3168   0.3065   0.6832
V2     V     0.3168   0.4435   0.0668
Er3     Er     0.2581   0.375   0.875
V4     V     0.1832   0.6935   0.8168
V5     V     0.1832   0.5565   0.4332
Er6     Er     0.2419   0.625   0.625
V7     V     0.3168   0.8065   0.1832
V8     V     0.3168   0.9435   0.5668
Er9     Er     0.2581   0.875   0.375
V10     V     0.1832   0.0565   0.9332
V11     V     0.1832   0.1935   0.3168
Er12     Er     0.2419   0.125   0.125
V13     V     0.5668   0.6935   0.9332
V14     V     0.5668   0.5565   0.3168
Er15     Er     0.5081   0.625   0.125
V16     V     0.4332   0.4435   0.6832
V17     V     0.4332   0.3065   0.0668
Er18     Er     0.4919   0.375   0.875
V19     V     0.4332   0.9435   0.1832
V20     V     0.4332   0.8065   0.5668
Er21     Er     0.4919   0.875   0.375
V22     V     0.5668   0.0565   0.8168
V23     V     0.5668   0.1935   0.4332
Er24     Er     0.5081   0.125   0.625
V25     V     0.0669   0.1935   0.9332
V26     V     0.0669   0.0565   0.3168
Er27     Er     0.0081   0.125   0.125
V28     V     0.9332   0.8065   0.0668
V29     V     0.9332   0.9435   0.6832
Er30     Er     0.9919   0.875   0.875
V31     V     0.0669   0.5565   0.8168
V32     V     0.0669   0.6935   0.4332
Er33     Er     0.0081   0.625   0.625
V34     V     0.9332   0.4435   0.1832
V35     V     0.9332   0.3065   0.5668
Er36     Er     0.9919   0.375   0.375
V37     V     0.8168   0.8065   0.6832
V38     V     0.8168   0.9435   0.0668
Er39     Er     0.7581   0.875   0.875
V40     V     0.6832   0.6935   0.3168
V41     V     0.6832   0.5565   0.9332
Er42     Er     0.7419   0.625   0.125
V43     V     0.8168   0.3065   0.1832
V44     V     0.8168   0.4435   0.5668
Er45     Er     0.7581   0.375   0.375
V46     V     0.6832   0.1935   0.8168
V47     V     0.6832   0.0565   0.4332
Er48     Er     0.7419   0.125   0.625
loop_
_geom_bond_atom_site_label_1
_geom_bond_atom_site_label_2
_geom_bond_distance
_geom_bond_site_symmetry_2
_ccdc_geom_bond_type
V1     Er3    10.0   .     S
V1     Er6    10.0   .     S
V1     V16    10.0   .     S
V1     V8    10.0   1_545     S
V2     Er3    10.0   1_554     S
V2     Er12    10.0   .     S
V2     V17    10.0   .     S
V2     V7    10.0   .     S
Er3     V2    10.0   1_556     S
Er3     V10    10.0   .     S
Er3     V4    10.0   .     S
V4     Er6    10.0   .     S
V4     V31    10.0   .     S
V4     V10    10.0   1_565     S
V5     Er6    10.0   .     S
V5     Er9    10.0   .     S
V5     V32    10.0   .     S
V5     V11    10.0   .     S
Er6     V8    10.0   .     S
V7     Er9    10.0   .     S
V7     Er12    10.0   1_565     S
V7     V19    10.0   .     S
V8     Er9    10.0   .     S
V8     V20    10.0   .     S
V8     V1    10.0   1_565     S
Er9     V11    10.0   1_565     S
V10     Er12    10.0   1_556     S
V10     V25    10.0   .     S
V10     V4    10.0   1_545     S
V11     Er9    10.0   1_545     S
V11     Er12    10.0   .     S
V11     V26    10.0   .     S
Er12     V10    10.0   1_554     S
Er12     V7    10.0   1_545     S
V13     Er15    10.0   1_556     S
V13     Er18    10.0   .     S
V13     V41    10.0   .     S
V13     V22    10.0   1_565     S
V14     Er15    10.0   .     S
V14     Er21    10.0   .     S
V14     V40    10.0   .     S
V14     V23    10.0   .     S
Er15     V13    10.0   1_554     S
Er15     V19    10.0   .     S
Er15     V17    10.0   .     S
V16     Er18    10.0   .     S
V16     Er24    10.0   .     S
V16     V20    10.0   .     S
V17     Er18    10.0   1_554     S
V17     V19    10.0   1_545     S
Er18     V17    10.0   1_556     S
Er18     V22    10.0   .     S
V19     Er21    10.0   .     S
V19     V17    10.0   1_565     S
V20     Er21    10.0   .     S
V20     Er24    10.0   1_565     S
Er21     V23    10.0   1_565     S
V22     Er24    10.0   .     S
V22     V46    10.0   .     S
V22     V13    10.0   1_545     S
V23     Er21    10.0   1_545     S
V23     Er24    10.0   .     S
V23     V47    10.0   .     S
Er24     V20    10.0   1_545     S
V25     Er27    10.0   1_556     S
V25     Er30    10.0   1_445     S
V25     V31    10.0   .     S
V26     Er27    10.0   .     S
V26     Er36    10.0   1_455     S
V26     V32    10.0   1_545     S
Er27     V25    10.0   1_554     S
Er27     V28    10.0   1_445     S
Er27     V34    10.0   1_455     S
V28     Er27    10.0   1_665     S
V28     Er30    10.0   1_554     S
V28     V38    10.0   .     S
V28     V34    10.0   .     S
V29     Er30    10.0   .     S
V29     Er33    10.0   1_655     S
V29     V37    10.0   .     S
V29     V35    10.0   1_565     S
Er30     V28    10.0   1_556     S
Er30     V25    10.0   1_665     S
Er30     V31    10.0   1_655     S
V31     Er30    10.0   1_455     S
V31     Er33    10.0   .     S
V32     Er33    10.0   .     S
V32     Er36    10.0   1_455     S
V32     V26    10.0   1_565     S
Er33     V35    10.0   1_455     S
Er33     V29    10.0   1_455     S
V34     Er27    10.0   1_655     S
V34     Er36    10.0   .     S
V34     V43    10.0   .     S
V35     Er33    10.0   1_655     S
V35     Er36    10.0   .     S
V35     V44    10.0   .     S
V35     V29    10.0   1_545     S
Er36     V32    10.0   1_655     S
Er36     V26    10.0   1_655     S
V37     Er39    10.0   .     S
V37     Er48    10.0   1_565     S
V37     V44    10.0   .     S
V38     Er39    10.0   1_554     S
V38     Er42    10.0   .     S
V38     V43    10.0   1_565     S
Er39     V38    10.0   1_556     S
Er39     V41    10.0   .     S
Er39     V46    10.0   1_565     S
V40     Er42    10.0   .     S
V40     Er45    10.0   .     S
V40     V47    10.0   1_565     S
V41     Er42    10.0   1_556     S
V41     V46    10.0   .     S
Er42     V41    10.0   1_554     S
Er42     V43    10.0   .     S
V43     Er45    10.0   .     S
V43     V38    10.0   1_545     S
V44     Er45    10.0   .     S
V44     Er48    10.0   .     S
Er45     V47    10.0   .     S
V46     Er39    10.0   1_545     S
V46     Er48    10.0   .     S
V47     Er48    10.0   .     S
V47     V40    10.0   1_545     S
Er48     V37    10.0   1_545     S
