data_ithda
_audit_creation_date              2020-02-04
_audit_creation_method            'Pymatgen'
_symmetry_space_group_name_H-M    'P1'
_symmetry_Int_Tables_number       1
loop_
_symmetry_equiv_pos_as_xyz
  x,y,z
_cell_length_a                    59.6906
_cell_length_b                    59.6906
_cell_length_c                    59.6906
_cell_angle_alpha                 90.0
_cell_angle_beta                 90.0
_cell_angle_gamma                 90.0
loop_
_atom_site_label
_atom_site_type_symbol
_atom_site_fract_x
_atom_site_fract_y
_atom_site_fract_z
Er1     Er     0.5736   0.25   0.9264
Er2     Er     0.4264   0.25   0.9264
Er3     Er     0.4264   0.25   0.0736
Er4     Er     0.5736   0.25   0.0736
Ti5     Ti     0.3164   0.25   0.1836
Ti6     Ti     0.3164   0.25   0.8164
Ti7     Ti     0.6836   0.25   0.1836
Ti8     Ti     0.6836   0.25   0.8164
Er9     Er     0.25   0.9264   0.5736
Er10     Er     0.25   0.9264   0.4264
Er11     Er     0.25   0.0736   0.5736
Er12     Er     0.25   0.0736   0.4264
Ti13     Ti     0.25   0.1836   0.3164
Ti14     Ti     0.25   0.1836   0.6836
Ti15     Ti     0.25   0.8164   0.3164
Ti16     Ti     0.25   0.8164   0.6836
Ti17     Ti     0.75   0.1836   0.3164
Er18     Er     0.75   0.9264   0.5736
Er19     Er     0.75   0.9264   0.4264
Er20     Er     0.75   0.0736   0.5736
Er21     Er     0.75   0.0736   0.4264
Ti22     Ti     0.75   0.8164   0.3164
Ti23     Ti     0.75   0.1836   0.6836
Ti24     Ti     0.75   0.8164   0.6836
Ti25     Ti     0.1836   0.3164   0.75
Er26     Er     0.9264   0.5736   0.75
Er27     Er     0.9264   0.4264   0.75
Er28     Er     0.0736   0.4264   0.75
Er29     Er     0.0736   0.5736   0.75
Ti30     Ti     0.1836   0.6836   0.75
Ti31     Ti     0.8164   0.3164   0.75
Ti32     Ti     0.8164   0.6836   0.75
Er33     Er     0.5736   0.75   0.0736
Er34     Er     0.4264   0.75   0.0736
Er35     Er     0.4264   0.75   0.9264
Er36     Er     0.5736   0.75   0.9264
Ti37     Ti     0.3164   0.75   0.8164
Ti38     Ti     0.6836   0.75   0.1836
Ti39     Ti     0.3164   0.75   0.1836
Ti40     Ti     0.6836   0.75   0.8164
Er41     Er     0.0736   0.4264   0.25
Er42     Er     0.0736   0.5736   0.25
Er43     Er     0.9264   0.5736   0.25
Er44     Er     0.9264   0.4264   0.25
Ti45     Ti     0.1836   0.3164   0.25
Ti46     Ti     0.8164   0.3164   0.25
Ti47     Ti     0.1836   0.6836   0.25
Ti48     Ti     0.8164   0.6836   0.25
V49     V     0.0   0.5   0.1008
V50     V     0.0   0.5   0.6008
V51     V     0.0   0.5   0.8992
V52     V     0.1008   0.0   0.5
V53     V     0.5   0.6008   0.0
V54     V     0.8992   0.0   0.5
V55     V     0.5   0.1008   0.0
V56     V     0.5   0.8992   0.0
V57     V     0.6008   0.0   0.5
V58     V     0.5   0.3992   0.0
V59     V     0.3992   0.0   0.5
V60     V     0.0   0.5   0.3992
loop_
_geom_bond_atom_site_label_1
_geom_bond_atom_site_label_2
_geom_bond_distance
_geom_bond_site_symmetry_2
_ccdc_geom_bond_type
Er1     Er2    8.783   .     S
Er1     Er4    8.783   1_556     S
Er1     V55    10.855   1_556     S
Er1     V58    10.855   1_556     S
Er1     Ti8    9.289   .     S
Er2     Er3    8.783   1_556     S
Er2     V55    10.855   1_556     S
Er2     V58    10.855   1_556     S
Er2     Ti6    9.289   .     S
Er3     Er2    8.783   1_554     S
Er3     Er4    8.783   .     S
Er3     V55    10.855   .     S
Er3     V58    10.855   .     S
Er3     Ti5    9.289   .     S
Er4     Er1    8.783   1_554     S
Er4     V55    10.855   .     S
Er4     V58    10.855   .     S
Er4     Ti7    9.289   .     S
Ti5     Ti45    9.707   .     S
Ti5     Ti13    9.707   .     S
Ti6     Ti14    9.707   .     S
Ti6     Ti25    9.707   .     S
Ti7     Ti46    9.707   .     S
Ti7     Ti17    9.707   .     S
Ti8     Ti31    9.707   .     S
Ti8     Ti23    9.707   .     S
Er9     Er10    8.783   .     S
Er9     Er11    8.783   1_565     S
Er9     V52    10.855   1_565     S
Er9     V59    10.855   1_565     S
Er9     Ti16    9.289   .     S
Er10     Er12    8.783   1_565     S
Er10     V52    10.855   1_565     S
Er10     V59    10.855   1_565     S
Er10     Ti15    9.289   .     S
Er11     Er9    8.783   1_545     S
Er11     Er12    8.783   .     S
Er11     V52    10.855   .     S
Er11     V59    10.855   .     S
Er11     Ti14    9.289   .     S
Er12     Er10    8.783   1_545     S
Er12     V52    10.855   .     S
Er12     V59    10.855   .     S
Er12     Ti13    9.289   .     S
Ti13     Ti45    9.707   .     S
Ti14     Ti25    9.707   .     S
Ti15     Ti47    9.707   .     S
Ti15     Ti39    9.707   .     S
Ti16     Ti30    9.707   .     S
Ti16     Ti37    9.707   .     S
Ti17     Ti46    9.707   .     S
Ti17     Er21    9.289   .     S
Er18     Er19    8.783   .     S
Er18     Er20    8.783   1_565     S
Er18     V57    10.855   1_565     S
Er18     V54    10.855   1_565     S
Er18     Ti24    9.289   .     S
Er19     Er21    8.783   1_565     S
Er19     V57    10.855   1_565     S
Er19     V54    10.855   1_565     S
Er19     Ti22    9.289   .     S
Er20     Er18    8.783   1_545     S
Er20     Er21    8.783   .     S
Er20     V57    10.855   .     S
Er20     V54    10.855   .     S
Er20     Ti23    9.289   .     S
Er21     Er19    8.783   1_545     S
Er21     V57    10.855   .     S
Er21     V54    10.855   .     S
Ti22     Ti48    9.707   .     S
Ti22     Ti38    9.707   .     S
Ti23     Ti31    9.707   .     S
Ti24     Ti32    9.707   .     S
Ti24     Ti40    9.707   .     S
Ti25     Er28    9.289   .     S
Er26     Er27    8.783   .     S
Er26     Er29    8.783   1_655     S
Er26     V51    10.855   1_655     S
Er26     V50    10.855   1_655     S
Er26     Ti32    9.289   .     S
Er27     Er28    8.783   1_655     S
Er27     V51    10.855   1_655     S
Er27     V50    10.855   1_655     S
Er27     Ti31    9.289   .     S
Er28     Er27    8.783   1_455     S
Er28     Er29    8.783   .     S
Er28     V51    10.855   .     S
Er28     V50    10.855   .     S
Er29     Er26    8.783   1_455     S
Er29     V51    10.855   .     S
Er29     V50    10.855   .     S
Er29     Ti30    9.289   .     S
Ti30     Ti37    9.707   .     S
Ti32     Ti40    9.707   .     S
Er33     Er36    8.783   1_554     S
Er33     Er34    8.783   .     S
Er33     V56    10.855   .     S
Er33     V53    10.855   .     S
Er33     Ti38    9.289   .     S
Er34     Er35    8.783   1_554     S
Er34     V56    10.855   .     S
Er34     V53    10.855   .     S
Er34     Ti39    9.289   .     S
Er35     Er34    8.783   1_556     S
Er35     Er36    8.783   .     S
Er35     V56    10.855   1_556     S
Er35     V53    10.855   1_556     S
Er35     Ti37    9.289   .     S
Er36     Er33    8.783   1_556     S
Er36     V56    10.855   1_556     S
Er36     V53    10.855   1_556     S
Er36     Ti40    9.289   .     S
Ti38     Ti48    9.707   .     S
Ti39     Ti47    9.707   .     S
Er41     Er44    8.783   1_455     S
Er41     Er42    8.783   .     S
Er41     V49    10.855   .     S
Er41     V60    10.855   .     S
Er41     Ti45    9.289   .     S
Er42     Er43    8.783   1_455     S
Er42     V49    10.855   .     S
Er42     V60    10.855   .     S
Er42     Ti47    9.289   .     S
Er43     Er42    8.783   1_655     S
Er43     Er44    8.783   .     S
Er43     V49    10.855   1_655     S
Er43     V60    10.855   1_655     S
Er43     Ti48    9.289   .     S
Er44     Er41    8.783   1_655     S
Er44     V49    10.855   1_655     S
Er44     V60    10.855   1_655     S
Er44     Ti46    9.289   .     S
V49     V51    12.038   1_554     S
V49     Er44    10.855   1_455     S
V49     Er43    10.855   1_455     S
V50     V60    12.038   .     S
V50     Er26    10.855   1_455     S
V50     Er27    10.855   1_455     S
V51     V49    12.038   1_556     S
V51     Er26    10.855   1_455     S
V51     Er27    10.855   1_455     S
V52     V54    12.038   1_455     S
V52     Er9    10.855   1_545     S
V52     Er10    10.855   1_545     S
V53     V58    12.038   .     S
V53     Er36    10.855   1_554     S
V53     Er35    10.855   1_554     S
V54     V52    12.038   1_655     S
V54     Er18    10.855   1_545     S
V54     Er19    10.855   1_545     S
V55     V56    12.038   1_545     S
V55     Er1    10.855   1_554     S
V55     Er2    10.855   1_554     S
V56     V55    12.038   1_565     S
V56     Er36    10.855   1_554     S
V56     Er35    10.855   1_554     S
V57     V59    12.038   .     S
V57     Er18    10.855   1_545     S
V57     Er19    10.855   1_545     S
V58     Er1    10.855   1_554     S
V58     Er2    10.855   1_554     S
V59     Er10    10.855   1_545     S
V59     Er9    10.855   1_545     S
V60     Er43    10.855   1_455     S
V60     Er44    10.855   1_455     S
