data_jaja
_audit_creation_date              2020-02-04
_audit_creation_method            'Pymatgen'
_symmetry_space_group_name_H-M    'P1'
_symmetry_Int_Tables_number       1
loop_
_symmetry_equiv_pos_as_xyz
  x,y,z
_cell_length_a                    53.1536
_cell_length_b                    53.1536
_cell_length_c                    111.8177
_cell_angle_alpha                 90.0
_cell_angle_beta                 90.0
_cell_angle_gamma                 90.0
loop_
_atom_site_label
_atom_site_type_symbol
_atom_site_fract_x
_atom_site_fract_y
_atom_site_fract_z
V1     V     0.9335   0.9335   0.5447
Ti2     Ti     0.7328   0.8658   0.6851
Ti3     Ti     0.8658   0.7328   0.6851
Er4     Er     0.8623   0.8623   0.6202
V5     V     0.4335   0.5665   0.9553
Ti6     Ti     0.2328   0.6342   0.8149
Ti7     Ti     0.3658   0.7672   0.8149
Er8     Er     0.3623   0.6377   0.8798
V9     V     0.5665   0.4335   0.9553
Ti10     Ti     0.6342   0.2328   0.8149
Ti11     Ti     0.7672   0.3658   0.8149
Er12     Er     0.6377   0.3623   0.8798
Ce13     Ce     0.046   0.418   0.7184
Ce14     Ce     0.954   0.582   0.7184
Ce15     Ce     0.918   0.454   0.7816
Ce16     Ce     0.082   0.546   0.7816
Ce17     Ce     0.418   0.046   0.7184
Ce18     Ce     0.582   0.954   0.7184
Ce19     Ce     0.546   0.082   0.7816
Ce20     Ce     0.454   0.918   0.7816
V21     V     0.0665   0.0665   0.5447
Ti22     Ti     0.2672   0.1342   0.6851
Ti23     Ti     0.1342   0.2672   0.6851
Er24     Er     0.1377   0.1377   0.6202
V25     V     0.5665   0.4335   0.0447
Ti26     Ti     0.6342   0.2328   0.1851
Ti27     Ti     0.7672   0.3658   0.1851
Er28     Er     0.6377   0.3623   0.1202
V29     V     0.4335   0.5665   0.0447
Ti30     Ti     0.2328   0.6342   0.1851
Ti31     Ti     0.3658   0.7672   0.1851
Er32     Er     0.3623   0.6377   0.1202
V33     V     0.9335   0.9335   0.4553
Ti34     Ti     0.8658   0.7328   0.3149
Ti35     Ti     0.7328   0.8658   0.3149
Er36     Er     0.8623   0.8623   0.3797
Ce37     Ce     0.454   0.918   0.2184
Ce38     Ce     0.546   0.082   0.2184
Ce39     Ce     0.418   0.046   0.2816
Ce40     Ce     0.582   0.954   0.2816
Ce41     Ce     0.082   0.546   0.2184
Ce42     Ce     0.918   0.454   0.2184
Ce43     Ce     0.046   0.418   0.2816
Ce44     Ce     0.954   0.582   0.2816
V45     V     0.0665   0.0665   0.4553
Ti46     Ti     0.1342   0.2672   0.3149
Ti47     Ti     0.2672   0.1342   0.3149
Er48     Er     0.1377   0.1377   0.3797
loop_
_geom_bond_atom_site_label_1
_geom_bond_atom_site_label_2
_geom_bond_distance
_geom_bond_site_symmetry_2
_ccdc_geom_bond_type
V1     Er4    9.999   .     S
V1     V21    10.001   1_665     S
V1     V33    10.001   .     S
Ti2     Ti3    10.0   .     S
Ti2     Er4    10.0   .     S
Ti2     Ce18    10.0   .     S
Ti3     Er4    10.0   .     S
Ti3     Ce14    10.0   .     S
V5     Er8    9.999   .     S
V5     V9    10.001   .     S
V5     V29    10.001   1_556     S
Ti6     Ti7    10.0   .     S
Ti6     Er8    10.0   .     S
Ti6     Ce16    10.0   .     S
Ti7     Er8    10.0   .     S
Ti7     Ce20    10.0   .     S
V9     Er12    9.999   .     S
V9     V25    10.001   1_556     S
Ti10     Ti11    10.0   .     S
Ti10     Er12    10.0   .     S
Ti10     Ce19    10.0   .     S
Ti11     Er12    10.0   .     S
Ti11     Ce15    10.0   .     S
Ce13     Ce14    10.0   1_455     S
Ce13     Ce16    10.0   .     S
Ce13     Ti23    10.0   .     S
Ce13     Ce15    10.0   1_455     S
Ce14     Ce13    10.0   1_655     S
Ce14     Ce15    10.0   .     S
Ce14     Ce16    10.0   1_655     S
Ce15     Ce16    10.0   1_655     S
Ce15     Ce13    10.0   1_655     S
Ce16     Ce15    10.0   1_455     S
Ce16     Ce14    10.0   1_455     S
Ce17     Ce18    10.0   1_545     S
Ce17     Ce19    10.0   .     S
Ce17     Ti22    10.0   .     S
Ce17     Ce20    10.0   1_545     S
Ce18     Ce17    10.0   1_565     S
Ce18     Ce20    10.0   .     S
Ce18     Ce19    10.0   1_565     S
Ce19     Ce20    10.0   1_545     S
Ce19     Ce18    10.0   1_545     S
Ce20     Ce19    10.0   1_565     S
Ce20     Ce17    10.0   1_565     S
V21     Er24    9.999   .     S
V21     V1    10.001   1_445     S
V21     V45    10.001   .     S
Ti22     Ti23    10.0   .     S
Ti22     Er24    10.0   .     S
Ti23     Er24    10.0   .     S
V25     Er28    9.999   .     S
V25     V29    10.001   .     S
V25     V9    10.001   1_554     S
Ti26     Ti27    10.0   .     S
Ti26     Er28    10.0   .     S
Ti26     Ce38    10.0   .     S
Ti27     Er28    10.0   .     S
Ti27     Ce42    10.0   .     S
V29     Er32    9.999   .     S
V29     V5    10.001   1_554     S
Ti30     Ti31    10.0   .     S
Ti30     Er32    10.0   .     S
Ti30     Ce41    10.0   .     S
Ti31     Er32    10.0   .     S
Ti31     Ce37    10.0   .     S
V33     Er36    9.999   .     S
V33     V45    10.001   1_665     S
Ti34     Ti35    10.0   .     S
Ti34     Er36    10.0   .     S
Ti34     Ce44    10.0   .     S
Ti35     Er36    10.0   .     S
Ti35     Ce40    10.0   .     S
Ce37     Ce38    10.0   1_565     S
Ce37     Ce39    10.0   1_565     S
Ce37     Ce40    10.0   .     S
Ce38     Ce37    10.0   1_545     S
Ce38     Ce40    10.0   1_545     S
Ce38     Ce39    10.0   .     S
Ce39     Ce37    10.0   1_545     S
Ce39     Ce40    10.0   1_545     S
Ce39     Ti47    10.0   .     S
Ce40     Ce38    10.0   1_565     S
Ce40     Ce39    10.0   1_565     S
Ce41     Ce42    10.0   1_455     S
Ce41     Ce44    10.0   1_455     S
Ce41     Ce43    10.0   .     S
Ce42     Ce41    10.0   1_655     S
Ce42     Ce43    10.0   1_655     S
Ce42     Ce44    10.0   .     S
Ce43     Ce42    10.0   1_455     S
Ce43     Ce44    10.0   1_455     S
Ce43     Ti46    10.0   .     S
Ce44     Ce41    10.0   1_655     S
Ce44     Ce43    10.0   1_655     S
V45     Er48    9.999   .     S
V45     V33    10.001   1_445     S
Ti46     Ti47    10.0   .     S
Ti46     Er48    10.0   .     S
Ti47     Er48    10.0   .     S
