data_jjta
_audit_creation_date              2020-02-04
_audit_creation_method            'Pymatgen'
_symmetry_space_group_name_H-M    'P1'
_symmetry_Int_Tables_number       1
loop_
_symmetry_equiv_pos_as_xyz
  x,y,z
_cell_length_a                    57.3016
_cell_length_b                    57.3016
_cell_length_c                    58.7684
_cell_angle_alpha                 90.0
_cell_angle_beta                 90.0
_cell_angle_gamma                 120.0
loop_
_atom_site_label
_atom_site_type_symbol
_atom_site_fract_x
_atom_site_fract_y
_atom_site_fract_z
V1     V     0.4638   0.389   0.5569
V2     V     0.611   0.0749   0.5569
V3     V     0.9251   0.5362   0.5569
Ce4     Ce     0.5806   0.358   0.6649
Ce5     Ce     0.642   0.2225   0.6649
Ce6     Ce     0.7775   0.4194   0.6649
V7     V     0.4638   0.389   0.9431
V8     V     0.611   0.0749   0.9431
V9     V     0.9251   0.5362   0.9431
Ce10     Ce     0.5806   0.358   0.8351
Ce11     Ce     0.642   0.2225   0.8351
Ce12     Ce     0.7775   0.4194   0.8351
Er13     Er     0.8992   0.0   0.0
Ti14     Ti     0.7247   0.0   0.0
Er15     Er     0.1008   0.1008   0.0
Ti16     Ti     0.2753   0.2753   0.0
Er17     Er     0.0   0.8992   0.0
Ti18     Ti     0.0   0.7247   0.0
V19     V     0.5362   0.9251   0.0569
V20     V     0.389   0.4638   0.0569
V21     V     0.0749   0.611   0.0569
Ce22     Ce     0.2225   0.642   0.1649
Ce23     Ce     0.358   0.5806   0.1649
Ce24     Ce     0.4194   0.7775   0.1649
V25     V     0.5362   0.9251   0.4431
V26     V     0.389   0.4638   0.4431
V27     V     0.0749   0.611   0.4431
Ce28     Ce     0.2225   0.642   0.3351
Ce29     Ce     0.4194   0.7775   0.3351
Ce30     Ce     0.358   0.5806   0.3351
Er31     Er     0.8992   0.0   0.5
Ti32     Ti     0.7247   0.0   0.5
Er33     Er     0.1008   0.1008   0.5
Ti34     Ti     0.2753   0.2753   0.5
Er35     Er     0.0   0.8992   0.5
Ti36     Ti     0.0   0.7247   0.5
loop_
_geom_bond_atom_site_label_1
_geom_bond_atom_site_label_2
_geom_bond_distance
_geom_bond_site_symmetry_2
_ccdc_geom_bond_type
V1     Ce4    10.0   .     S
V1     Ti34    10.0   .     S
V1     V26    10.001   .     S
V2     Ce5    10.0   .     S
V2     Ti32    10.0   .     S
V2     V25    10.001   1_545     S
V3     Ce6    10.0   .     S
V3     Ti36    10.0   1_655     S
V3     V27    10.001   1_655     S
Ce4     Ce6    10.0   .     S
Ce4     Ce5    10.0   .     S
Ce4     Ce10    10.0   .     S
Ce5     Ce6    10.0   .     S
Ce5     Ce11    10.0   .     S
Ce6     Ce12    10.0   .     S
V7     Ce10    10.0   .     S
V7     Ti16    10.0   1_556     S
V7     V20    10.001   1_556     S
V8     Ce11    10.0   .     S
V8     Ti14    10.0   1_556     S
V8     V19    10.001   1_546     S
V9     Ce12    10.0   .     S
V9     Ti18    10.0   1_656     S
V9     V21    10.001   1_656     S
Ce10     Ce12    10.0   .     S
Ce10     Ce11    10.0   .     S
Ce11     Ce12    10.0   .     S
Er13     Ti14    10.0   .     S
Er13     Er17    10.0   1_645     S
Er13     Er15    10.0   1_655     S
Ti14     V19    10.0   1_545     S
Ti14     V8    10.0   1_554     S
Er15     Ti16    10.0   .     S
Er15     Er17    10.0   1_545     S
Er15     Er13    10.0   1_455     S
Ti16     V20    10.0   .     S
Ti16     V7    10.0   1_554     S
Er17     Ti18    10.0   .     S
Er17     Er13    10.0   1_465     S
Er17     Er15    10.0   1_565     S
Ti18     V21    10.0   .     S
Ti18     V9    10.0   1_454     S
V19     Ti14    10.0   1_565     S
V19     V8    10.001   1_564     S
V19     Ce24    10.0   .     S
V20     V7    10.001   1_554     S
V20     Ce23    10.0   .     S
V21     V9    10.001   1_454     S
V21     Ce22    10.0   .     S
Ce22     Ce23    10.0   .     S
Ce22     Ce24    10.0   .     S
Ce22     Ce28    10.0   .     S
Ce23     Ce24    10.0   .     S
Ce23     Ce30    10.0   .     S
Ce24     Ce29    10.0   .     S
V25     Ce29    10.0   .     S
V25     Ti32    10.0   1_565     S
V25     V2    10.001   1_565     S
V26     Ce30    10.0   .     S
V26     Ti34    10.0   .     S
V27     Ce28    10.0   .     S
V27     Ti36    10.0   .     S
V27     V3    10.001   1_455     S
Ce28     Ce30    10.0   .     S
Ce28     Ce29    10.0   .     S
Ce29     Ce30    10.0   .     S
Er31     Ti32    10.0   .     S
Er31     Er35    10.0   1_645     S
Er31     Er33    10.0   1_655     S
Ti32     V25    10.0   1_545     S
Er33     Ti34    10.0   .     S
Er33     Er35    10.0   1_545     S
Er33     Er31    10.0   1_455     S
Er35     Ti36    10.0   .     S
Er35     Er31    10.0   1_465     S
Er35     Er33    10.0   1_565     S
Ti36     V3    10.0   1_455     S
