data_jkza
_audit_creation_date              2020-02-04
_audit_creation_method            'Pymatgen'
_symmetry_space_group_name_H-M    'P1'
_symmetry_Int_Tables_number       1
loop_
_symmetry_equiv_pos_as_xyz
  x,y,z
_cell_length_a                    77.3129
_cell_length_b                    28.2861
_cell_length_c                    56.3326
_cell_angle_alpha                 90.0
_cell_angle_beta                 90.0
_cell_angle_gamma                 90.0
loop_
_atom_site_label
_atom_site_type_symbol
_atom_site_fract_x
_atom_site_fract_y
_atom_site_fract_z
V1     V     0.7998   0.6726   0.1906
V2     V     0.7998   0.3274   0.1906
V3     V     0.7998   0.1726   0.3094
V4     V     0.7998   0.8274   0.3094
V5     V     0.7002   0.1726   0.1906
V6     V     0.7002   0.8274   0.1906
V7     V     0.7002   0.6726   0.3094
V8     V     0.7002   0.3274   0.3094
V9     V     0.2002   0.6726   0.1906
V10     V     0.2002   0.3274   0.1906
V11     V     0.2998   0.1726   0.1906
V12     V     0.2998   0.8274   0.1906
V13     V     0.2002   0.1726   0.3094
V14     V     0.2002   0.8274   0.3094
V15     V     0.2998   0.6726   0.3094
V16     V     0.2998   0.3274   0.3094
V17     V     0.7998   0.6726   0.8094
V18     V     0.7998   0.3274   0.8094
V19     V     0.7998   0.1726   0.6906
V20     V     0.7998   0.8274   0.6906
V21     V     0.7002   0.6726   0.6906
V22     V     0.7002   0.3274   0.6906
V23     V     0.7002   0.1726   0.8094
V24     V     0.7002   0.8274   0.8094
Er25     Er     0.3934   0.6783   0.9148
Er26     Er     0.6066   0.6783   0.9148
Ti27     Ti     0.5   0.6771   0.8322
Er28     Er     0.3934   0.6783   0.0852
Er29     Er     0.6066   0.6783   0.0852
Ti30     Ti     0.5   0.6771   0.1678
Er31     Er     0.6066   0.3217   0.9148
Er32     Er     0.3934   0.3217   0.9148
Ti33     Ti     0.5   0.3229   0.8322
Er34     Er     0.6066   0.3217   0.0852
Er35     Er     0.3934   0.3217   0.0852
Ti36     Ti     0.5   0.3229   0.1678
Er37     Er     0.6066   0.8217   0.4148
Er38     Er     0.3934   0.8217   0.4148
Ti39     Ti     0.5   0.8229   0.3322
Er40     Er     0.6066   0.8217   0.5852
Er41     Er     0.3934   0.8217   0.5852
Ti42     Ti     0.5   0.8229   0.6678
Er43     Er     0.3934   0.1783   0.4148
Er44     Er     0.6066   0.1783   0.4148
Ti45     Ti     0.5   0.1771   0.3322
Er46     Er     0.6066   0.1783   0.5852
Er47     Er     0.3934   0.1783   0.5852
Ti48     Ti     0.5   0.1771   0.6678
Ce49     Ce     0.5   0.8078   0.0
Ce50     Ce     0.5   0.1922   0.0
Ce51     Ce     0.5   0.3078   0.5
Ce52     Ce     0.5   0.6922   0.5
V53     V     0.2002   0.6726   0.8094
V54     V     0.2002   0.3274   0.8094
V55     V     0.2998   0.6726   0.6906
V56     V     0.2998   0.3274   0.6906
V57     V     0.2998   0.1726   0.8094
V58     V     0.2998   0.8274   0.8094
V59     V     0.2002   0.1726   0.6906
V60     V     0.2002   0.8274   0.6906
Er61     Er     0.8934   0.6783   0.4148
Er62     Er     0.1066   0.6783   0.4148
Ti63     Ti     0.0   0.6771   0.3322
Er64     Er     0.8934   0.6783   0.5852
Er65     Er     0.1066   0.6783   0.5852
Ti66     Ti     0.0   0.6771   0.6678
Er67     Er     0.8934   0.3217   0.5852
Er68     Er     0.1066   0.3217   0.5852
Ti69     Ti     0.0   0.3229   0.6678
Er70     Er     0.8934   0.3217   0.4148
Er71     Er     0.1066   0.3217   0.4148
Ti72     Ti     0.0   0.3229   0.3322
Er73     Er     0.8934   0.8217   0.9148
Er74     Er     0.1066   0.8217   0.9148
Ti75     Ti     0.0   0.8229   0.8322
Er76     Er     0.8934   0.8217   0.0852
Er77     Er     0.1066   0.8217   0.0852
Ti78     Ti     0.0   0.8229   0.1678
Er79     Er     0.8934   0.1783   0.9148
Er80     Er     0.1066   0.1783   0.9148
Ti81     Ti     0.0   0.1771   0.8322
Er82     Er     0.8934   0.1783   0.0852
Er83     Er     0.1066   0.1783   0.0852
Ti84     Ti     0.0   0.1771   0.1678
Ce85     Ce     0.0   0.3078   0.0
Ce86     Ce     0.0   0.6922   0.0
Ce87     Ce     0.0   0.8078   0.5
Ce88     Ce     0.0   0.1922   0.5
loop_
_geom_bond_atom_site_label_1
_geom_bond_atom_site_label_2
_geom_bond_distance
_geom_bond_site_symmetry_2
_ccdc_geom_bond_type
V1     Er76    10.261   .     S
V1     V2    9.766   .     S
V1     V7    10.211   .     S
V2     Er82    10.261   .     S
V2     V8    10.211   .     S
V3     Er70    10.261   .     S
V3     V4    9.766   1_545     S
V3     V5    10.211   .     S
V4     Er61    10.261   .     S
V4     V3    9.766   1_565     S
V4     V6    10.211   .     S
V5     Er34    10.261   .     S
V5     V6    9.766   1_545     S
V6     Er29    10.261   .     S
V6     V5    9.766   1_565     S
V7     Er37    10.261   .     S
V7     V8    9.766   .     S
V8     Er44    10.261   .     S
V9     Er77    10.261   .     S
V9     V10    9.766   .     S
V9     V15    10.211   .     S
V10     Er83    10.261   .     S
V10     V16    10.211   .     S
V11     Er35    10.261   .     S
V11     V12    9.766   1_545     S
V11     V13    10.211   .     S
V12     Er28    10.261   .     S
V12     V11    9.766   1_565     S
V12     V14    10.211   .     S
V13     Er71    10.261   .     S
V13     V14    9.766   1_545     S
V14     Er62    10.261   .     S
V14     V13    9.766   1_565     S
V15     Er38    10.261   .     S
V15     V16    9.766   .     S
V16     Er43    10.261   .     S
V17     Er73    10.261   .     S
V17     V18    9.766   .     S
V17     V21    10.211   .     S
V18     Er79    10.261   .     S
V18     V22    10.211   .     S
V19     Er67    10.261   .     S
V19     V20    9.766   1_545     S
V19     V23    10.211   .     S
V20     Er64    10.261   .     S
V20     V19    9.766   1_565     S
V20     V24    10.211   .     S
V21     Er40    10.261   .     S
V21     V22    9.766   .     S
V22     Er46    10.261   .     S
V23     Er31    10.261   .     S
V23     V24    9.766   1_545     S
V24     Er26    10.261   .     S
V24     V23    9.766   1_565     S
Er25     V58    10.261   .     S
Er25     Er32    10.086   .     S
Er25     Ti27    9.468   .     S
Er25     Ce49    10.219   1_556     S
Er25     Er28    9.596   1_556     S
Er26     Er31    10.086   .     S
Er26     Ti27    9.468   .     S
Er26     Ce49    10.219   1_556     S
Er26     Er29    9.596   1_556     S
Ti27     Ti33    10.017   .     S
Ti27     Ce49    10.148   1_556     S
Ti27     Ti42    10.142   .     S
Er28     Er35    10.086   .     S
Er28     Ti30    9.468   .     S
Er28     Ce49    10.219   .     S
Er28     Er25    9.596   1_554     S
Er29     Er34    10.086   .     S
Er29     Ti30    9.468   .     S
Er29     Ce49    10.219   .     S
Er29     Er26    9.596   1_554     S
Ti30     Ti36    10.017   .     S
Ti30     Ce49    10.148   .     S
Ti30     Ti39    10.142   .     S
Er31     Ti33    9.468   .     S
Er31     Ce50    10.219   1_556     S
Er31     Er34    9.596   1_556     S
Er32     V57    10.261   .     S
Er32     Ti33    9.468   .     S
Er32     Ce50    10.219   1_556     S
Er32     Er35    9.596   1_556     S
Ti33     Ce50    10.148   1_556     S
Ti33     Ti48    10.142   .     S
Er34     Ti36    9.468   .     S
Er34     Ce50    10.219   .     S
Er34     Er31    9.596   1_554     S
Er35     Ti36    9.468   .     S
Er35     Ce50    10.219   .     S
Er35     Er32    9.596   1_554     S
Ti36     Ce50    10.148   .     S
Ti36     Ti45    10.142   .     S
Er37     Er44    10.086   1_565     S
Er37     Ti39    9.468   .     S
Er37     Ce52    10.219   .     S
Er37     Er40    9.596   .     S
Er38     Er43    10.086   1_565     S
Er38     Ti39    9.468   .     S
Er38     Ce52    10.219   .     S
Er38     Er41    9.596   .     S
Ti39     Ti45    10.017   1_565     S
Ti39     Ce52    10.148   .     S
Er40     Er46    10.086   1_565     S
Er40     Ti42    9.468   .     S
Er40     Ce52    10.219   .     S
Er41     V55    10.261   .     S
Er41     Er47    10.086   1_565     S
Er41     Ti42    9.468   .     S
Er41     Ce52    10.219   .     S
Ti42     Ti48    10.017   1_565     S
Ti42     Ce52    10.148   .     S
Er43     Er38    10.086   1_545     S
Er43     Ti45    9.468   .     S
Er43     Ce51    10.219   .     S
Er43     Er47    9.596   .     S
Er44     Er37    10.086   1_545     S
Er44     Ti45    9.468   .     S
Er44     Ce51    10.219   .     S
Er44     Er46    9.596   .     S
Ti45     Ti39    10.017   1_545     S
Ti45     Ce51    10.148   .     S
Er46     Er40    10.086   1_545     S
Er46     Ti48    9.468   .     S
Er46     Ce51    10.219   .     S
Er47     V56    10.261   .     S
Er47     Er41    10.086   1_545     S
Er47     Ti48    9.468   .     S
Er47     Ce51    10.219   .     S
Ti48     Ti42    10.017   1_545     S
Ti48     Ce51    10.148   .     S
Ce49     Ce50    10.875   1_565     S
Ce49     Ti27    10.148   1_554     S
Ce49     Er25    10.219   1_554     S
Ce49     Er26    10.219   1_554     S
Ce50     Ce49    10.875   1_545     S
Ce50     Ti33    10.148   1_554     S
Ce50     Er31    10.219   1_554     S
Ce50     Er32    10.219   1_554     S
Ce51     Ce52    10.875   .     S
V53     Er74    10.261   .     S
V53     V54    9.766   .     S
V53     V55    10.211   .     S
V54     Er80    10.261   .     S
V54     V56    10.211   .     S
V55     V56    9.766   .     S
V57     V58    9.766   1_545     S
V57     V59    10.211   .     S
V58     V57    9.766   1_565     S
V58     V60    10.211   .     S
V59     Er68    10.261   .     S
V59     V60    9.766   1_545     S
V60     Er65    10.261   .     S
V60     V59    9.766   1_565     S
Er61     Er70    10.086   .     S
Er61     Ti63    9.468   1_655     S
Er61     Ce87    10.219   1_655     S
Er61     Er64    9.596   .     S
Er62     Er71    10.086   .     S
Er62     Ti63    9.468   .     S
Er62     Ce87    10.219   .     S
Er62     Er65    9.596   .     S
Ti63     Ti72    10.017   .     S
Ti63     Ce87    10.148   .     S
Ti63     Ti78    10.142   .     S
Ti63     Er61    9.468   1_455     S
Er64     Er67    10.086   .     S
Er64     Ti66    9.468   1_655     S
Er64     Ce87    10.219   1_655     S
Er65     Er68    10.086   .     S
Er65     Ti66    9.468   .     S
Er65     Ce87    10.219   .     S
Ti66     Ti69    10.017   .     S
Ti66     Ce87    10.148   .     S
Ti66     Ti75    10.142   .     S
Ti66     Er64    9.468   1_455     S
Er67     Ti69    9.468   1_655     S
Er67     Ce88    10.219   1_655     S
Er67     Er70    9.596   .     S
Er68     Ti69    9.468   .     S
Er68     Ce88    10.219   .     S
Er68     Er71    9.596   .     S
Ti69     Ce88    10.148   .     S
Ti69     Ti81    10.142   .     S
Ti69     Er67    9.468   1_455     S
Er70     Ti72    9.468   1_655     S
Er70     Ce88    10.219   1_655     S
Er71     Ti72    9.468   .     S
Er71     Ce88    10.219   .     S
Ti72     Ce88    10.148   .     S
Ti72     Ti84    10.142   .     S
Ti72     Er70    9.468   1_455     S
Er73     Er79    10.086   1_565     S
Er73     Ti75    9.468   1_655     S
Er73     Ce86    10.219   1_656     S
Er73     Er76    9.596   1_556     S
Er74     Er80    10.086   1_565     S
Er74     Ti75    9.468   .     S
Er74     Ce86    10.219   1_556     S
Er74     Er77    9.596   1_556     S
Ti75     Ti81    10.017   1_565     S
Ti75     Ce86    10.148   1_556     S
Ti75     Er73    9.468   1_455     S
Er76     Er82    10.086   1_565     S
Er76     Ti78    9.468   1_655     S
Er76     Ce86    10.219   1_655     S
Er76     Er73    9.596   1_554     S
Er77     Er83    10.086   1_565     S
Er77     Ti78    9.468   .     S
Er77     Ce86    10.219   .     S
Er77     Er74    9.596   1_554     S
Ti78     Ti84    10.017   1_565     S
Ti78     Ce86    10.148   .     S
Ti78     Er76    9.468   1_455     S
Er79     Er73    10.086   1_545     S
Er79     Ti81    9.468   1_655     S
Er79     Ce85    10.219   1_656     S
Er79     Er82    9.596   1_556     S
Er80     Er74    10.086   1_545     S
Er80     Ti81    9.468   .     S
Er80     Ce85    10.219   1_556     S
Er80     Er83    9.596   1_556     S
Ti81     Ti75    10.017   1_545     S
Ti81     Ce85    10.148   1_556     S
Ti81     Er79    9.468   1_455     S
Er82     Er76    10.086   1_545     S
Er82     Ti84    9.468   1_655     S
Er82     Ce85    10.219   1_655     S
Er82     Er79    9.596   1_554     S
Er83     Er77    10.086   1_545     S
Er83     Ti84    9.468   .     S
Er83     Ce85    10.219   .     S
Er83     Er80    9.596   1_554     S
Ti84     Ti78    10.017   1_545     S
Ti84     Ce85    10.148   .     S
Ti84     Er82    9.468   1_455     S
Ce85     Ce86    10.875   .     S
Ce85     Ti81    10.148   1_554     S
Ce85     Er82    10.219   1_455     S
Ce85     Er80    10.219   1_554     S
Ce85     Er79    10.219   1_454     S
Ce86     Ti75    10.148   1_554     S
Ce86     Er76    10.219   1_455     S
Ce86     Er74    10.219   1_554     S
Ce86     Er73    10.219   1_454     S
Ce87     Ce88    10.875   1_565     S
Ce87     Er64    10.219   1_455     S
Ce87     Er61    10.219   1_455     S
Ce88     Ce87    10.875   1_545     S
Ce88     Er67    10.219   1_455     S
Ce88     Er70    10.219   1_455     S
