data_jsa
_audit_creation_date              2020-02-04
_audit_creation_method            'Pymatgen'
_symmetry_space_group_name_H-M    'P1'
_symmetry_Int_Tables_number       1
loop_
_symmetry_equiv_pos_as_xyz
  x,y,z
_cell_length_a                    23.0941
_cell_length_b                    23.0941
_cell_length_c                    23.0941
_cell_angle_alpha                 90.0
_cell_angle_beta                 90.0
_cell_angle_gamma                 90.0
loop_
_atom_site_label
_atom_site_type_symbol
_atom_site_fract_x
_atom_site_fract_y
_atom_site_fract_z
Er1     Er     0.0   0.5   0.0
Er2     Er     0.5   0.0   0.0
V3     V     0.0   0.0   0.0
Ti4     Ti     0.75   0.75   0.75
Ti5     Ti     0.25   0.25   0.75
Ti6     Ti     0.25   0.75   0.25
Ti7     Ti     0.75   0.25   0.25
Er8     Er     0.0   0.0   0.5
loop_
_geom_bond_atom_site_label_1
_geom_bond_atom_site_label_2
_geom_bond_distance
_geom_bond_site_symmetry_2
_ccdc_geom_bond_type
Er1     Ti4    10.0   1_454     S
Er1     Ti5    10.0   1_554     S
Er1     Ti6    10.0   .     S
Er1     Ti7    10.0   1_455     S
Er2     Ti4    10.0   1_544     S
Er2     Ti5    10.0   1_554     S
Er2     Ti6    10.0   1_545     S
Er2     Ti7    10.0   .     S
V3     Ti4    10.0   1_444     S
V3     Ti5    10.0   1_554     S
V3     Ti6    10.0   1_545     S
V3     Ti7    10.0   1_455     S
Ti4     Er1    10.0   1_656     S
Ti4     Er2    10.0   1_566     S
Ti4     V3    10.0   1_666     S
Ti4     Er8    10.0   1_665     S
Ti5     V3    10.0   1_556     S
Ti5     Er2    10.0   1_556     S
Ti5     Er1    10.0   1_556     S
Ti5     Er8    10.0   .     S
Ti6     V3    10.0   1_565     S
Ti6     Er2    10.0   1_565     S
Ti6     Er8    10.0   1_565     S
Ti7     V3    10.0   1_655     S
Ti7     Er1    10.0   1_655     S
Ti7     Er8    10.0   1_655     S
Er8     Ti4    10.0   1_445     S
Er8     Ti6    10.0   1_545     S
Er8     Ti7    10.0   1_455     S
