data_jsb
_audit_creation_date              2020-02-04
_audit_creation_method            'Pymatgen'
_symmetry_space_group_name_H-M    'P1'
_symmetry_Int_Tables_number       1
loop_
_symmetry_equiv_pos_as_xyz
  x,y,z
_cell_length_a                    78.0614
_cell_length_b                    78.0614
_cell_length_c                    78.0614
_cell_angle_alpha                 90.0
_cell_angle_beta                 90.0
_cell_angle_gamma                 90.0
loop_
_atom_site_label
_atom_site_type_symbol
_atom_site_fract_x
_atom_site_fract_y
_atom_site_fract_z
Er1     Er     0.1352   0.6148   0.375
Ti2     Ti     0.6685   0.4912   0.1298
Ti3     Ti     0.7588   0.5815   0.1202
Ti4     Ti     0.9912   0.6298   0.1685
Ti5     Ti     0.0815   0.6202   0.2588
Er6     Er     0.875   0.6352   0.1148
Ti7     Ti     0.4912   0.1298   0.6685
Ti8     Ti     0.5815   0.1202   0.7588
Er9     Er     0.6148   0.375   0.1352
Ti10     Ti     0.6298   0.1685   0.9912
Ti11     Ti     0.6202   0.2588   0.0815
Er12     Er     0.6352   0.1148   0.875
Er13     Er     0.375   0.1352   0.6148
Ti14     Ti     0.1685   0.9912   0.6298
Ti15     Ti     0.2588   0.0815   0.6202
Ti16     Ti     0.1298   0.6685   0.4912
Ti17     Ti     0.1202   0.7588   0.5815
Er18     Er     0.1148   0.875   0.6352
V19     V     0.25   0.125   0.5
V20     V     0.125   0.5   0.25
V21     V     0.5   0.25   0.125
V22     V     0.25   0.625   0.5
V23     V     0.75   0.375   0.5
V24     V     0.375   0.5   0.75
V25     V     0.5   0.75   0.375
Er26     Er     0.8648   0.3852   0.625
Ti27     Ti     0.8315   0.0088   0.3702
Ti28     Ti     0.7412   0.9185   0.3798
Ti29     Ti     0.8798   0.2412   0.4185
Ti30     Ti     0.8702   0.3315   0.5088
Er31     Er     0.8852   0.125   0.3648
Ti32     Ti     0.5088   0.8702   0.3315
Ti33     Ti     0.4185   0.8798   0.2412
Er34     Er     0.625   0.8648   0.3852
Ti35     Ti     0.9185   0.3798   0.7412
Ti36     Ti     0.0088   0.3702   0.8315
Er37     Er     0.125   0.3648   0.8852
Ti38     Ti     0.3315   0.5088   0.8702
Ti39     Ti     0.2412   0.4185   0.8798
Er40     Er     0.3852   0.625   0.8648
Ti41     Ti     0.3798   0.7412   0.9185
Ti42     Ti     0.3702   0.8315   0.0088
Er43     Er     0.3648   0.8852   0.125
V44     V     0.625   0.5   0.25
V45     V     0.0   0.25   0.875
V46     V     0.125   0.0   0.75
V47     V     0.5   0.75   0.875
Er48     Er     0.375   0.8648   0.8852
Ti49     Ti     0.2588   0.9185   0.8798
Ti50     Ti     0.1685   0.0088   0.8702
Er51     Er     0.1148   0.125   0.8648
Ti52     Ti     0.1202   0.2412   0.9185
Ti53     Ti     0.1298   0.3315   0.0088
Er54     Er     0.1352   0.3852   0.125
Ti55     Ti     0.9912   0.3702   0.3315
Ti56     Ti     0.0815   0.3798   0.2412
Ti57     Ti     0.4912   0.8702   0.8315
Ti58     Ti     0.5815   0.8798   0.7412
Er59     Er     0.875   0.3648   0.3852
Ti60     Ti     0.6202   0.7412   0.4185
Ti61     Ti     0.6298   0.8315   0.5088
Er62     Er     0.6352   0.8852   0.625
Ti63     Ti     0.7588   0.4185   0.3798
Ti64     Ti     0.6685   0.5088   0.3702
Er65     Er     0.6148   0.625   0.3648
V66     V     0.5   0.25   0.625
V67     V     0.25   0.875   0.0
V68     V     0.0   0.75   0.125
V69     V     0.75   0.875   0.5
Er70     Er     0.125   0.8648   0.1148
Ti71     Ti     0.9185   0.8798   0.2588
Ti72     Ti     0.0088   0.8702   0.1685
Er73     Er     0.8648   0.8852   0.375
Ti74     Ti     0.2412   0.9185   0.1202
Ti75     Ti     0.3315   0.0088   0.1298
Er76     Er     0.3852   0.125   0.1352
Ti77     Ti     0.3702   0.3315   0.9912
Ti78     Ti     0.3798   0.2412   0.0815
Ti79     Ti     0.8702   0.8315   0.4912
Ti80     Ti     0.8798   0.7412   0.5815
Er81     Er     0.3648   0.3852   0.875
Ti82     Ti     0.7412   0.4185   0.6202
Ti83     Ti     0.8315   0.5088   0.6298
Er84     Er     0.8852   0.625   0.6352
Ti85     Ti     0.4185   0.3798   0.7588
Ti86     Ti     0.5088   0.3702   0.6685
Er87     Er     0.625   0.3648   0.6148
V88     V     0.375   0.0   0.25
V89     V     0.75   0.625   0.0
Ti90     Ti     0.3702   0.1685   0.4912
Ti91     Ti     0.3798   0.2588   0.5815
Er92     Er     0.3852   0.375   0.6352
Ti93     Ti     0.3315   0.4912   0.6298
Ti94     Ti     0.2412   0.5815   0.6202
Ti95     Ti     0.0088   0.6298   0.6685
Ti96     Ti     0.9185   0.6202   0.7588
Er97     Er     0.125   0.6352   0.6148
Er98     Er     0.3648   0.1148   0.375
Ti99     Ti     0.7412   0.0815   0.1202
Ti100     Ti     0.8315   0.9912   0.1298
Er101     Er     0.8852   0.875   0.1352
Ti102     Ti     0.8798   0.7588   0.0815
Ti103     Ti     0.8702   0.6685   0.9912
Er104     Er     0.8648   0.6148   0.875
Ti105     Ti     0.4185   0.1202   0.2588
Ti106     Ti     0.5088   0.1298   0.1685
Er107     Er     0.625   0.1352   0.1148
V108     V     0.875   0.0   0.25
V109     V     0.75   0.125   0.0
V110     V     0.875   0.5   0.75
Er111     Er     0.125   0.1352   0.3852
Ti112     Ti     0.9185   0.1202   0.2412
Ti113     Ti     0.0088   0.1298   0.3315
Er114     Er     0.8648   0.1148   0.125
Ti115     Ti     0.8798   0.2588   0.9185
Ti116     Ti     0.8702   0.1685   0.0088
Er117     Er     0.8852   0.375   0.8648
Ti118     Ti     0.8315   0.4912   0.8702
Ti119     Ti     0.7412   0.5815   0.8798
Ti120     Ti     0.4185   0.6202   0.7412
Ti121     Ti     0.5088   0.6298   0.8315
Er122     Er     0.625   0.6352   0.8852
Ti123     Ti     0.3702   0.6685   0.5088
Ti124     Ti     0.3798   0.7588   0.4185
Er125     Er     0.3648   0.6148   0.625
Ti126     Ti     0.3315   0.9912   0.3702
Ti127     Ti     0.2412   0.0815   0.3798
Er128     Er     0.3852   0.875   0.3648
V129     V     0.0   0.25   0.375
V130     V     0.625   0.0   0.75
Ti131     Ti     0.1685   0.4912   0.3702
Ti132     Ti     0.2588   0.5815   0.3798
Er133     Er     0.375   0.6352   0.3852
Ti134     Ti     0.6298   0.6685   0.0088
Ti135     Ti     0.6202   0.7588   0.9185
Ti136     Ti     0.5815   0.6202   0.2412
Ti137     Ti     0.4912   0.6298   0.3315
Er138     Er     0.6352   0.6148   0.125
Er139     Er     0.1148   0.375   0.3648
Ti140     Ti     0.1202   0.2588   0.4185
Ti141     Ti     0.1298   0.1685   0.5088
Er142     Er     0.1352   0.1148   0.625
Er143     Er     0.6148   0.875   0.8648
Ti144     Ti     0.7588   0.0815   0.8798
Ti145     Ti     0.6685   0.9912   0.8702
Ti146     Ti     0.0815   0.1202   0.7412
Ti147     Ti     0.9912   0.1298   0.8315
Er148     Er     0.875   0.1352   0.8852
V149     V     0.25   0.375   0.0
V150     V     0.0   0.75   0.625
Ti151     Ti     0.4912   0.3702   0.1685
Ti152     Ti     0.5815   0.3798   0.2588
Er153     Er     0.6352   0.3852   0.375
Ti154     Ti     0.6685   0.0088   0.6298
Ti155     Ti     0.7588   0.9185   0.6202
Ti156     Ti     0.6202   0.2412   0.5815
Ti157     Ti     0.6298   0.3315   0.4912
Er158     Er     0.6148   0.125   0.6352
Er159     Er     0.375   0.3648   0.1148
Ti160     Ti     0.1685   0.5088   0.1298
Ti161     Ti     0.2588   0.4185   0.1202
Er162     Er     0.1148   0.625   0.1352
Ti163     Ti     0.0815   0.8798   0.7588
Ti164     Ti     0.9912   0.8702   0.6685
Er165     Er     0.875   0.8648   0.6148
Ti166     Ti     0.1202   0.7412   0.0815
Ti167     Ti     0.1298   0.8315   0.9912
Er168     Er     0.1352   0.8852   0.875
loop_
_geom_bond_atom_site_label_1
_geom_bond_atom_site_label_2
_geom_bond_distance
_geom_bond_site_symmetry_2
_ccdc_geom_bond_type
Er1     Ti16    10.0   .     S
Er1     Ti5    10.0   .     S
Er1     Ti131    10.0   .     S
Er1     Ti132    10.0   .     S
Ti2     Er138    10.0   .     S
Ti2     Ti3    9.999   .     S
Ti2     Er9    10.0   .     S
Ti2     V44    10.0   .     S
Ti3     Er138    10.0   .     S
Ti3     Er6    10.0   .     S
Ti3     V89    10.0   .     S
Ti4     Er162    10.0   1_655     S
Ti4     Ti5    9.999   1_655     S
Ti4     Er6    10.0   .     S
Ti4     V68    10.0   1_655     S
Ti5     Er162    10.0   .     S
Ti5     Ti4    9.999   1_455     S
Ti5     V20    10.0   .     S
Er6     Ti102    10.0   .     S
Er6     Ti103    10.0   1_554     S
Ti7     Er158    10.0   .     S
Ti7     Ti8    9.999   .     S
Ti7     Er13    10.0   .     S
Ti7     V66    10.0   .     S
Ti8     Er158    10.0   .     S
Ti8     Er12    10.0   .     S
Ti8     V130    10.0   .     S
Er9     Ti11    10.0   .     S
Er9     Ti151    10.0   .     S
Er9     Ti152    10.0   .     S
Ti10     Er107    10.0   1_556     S
Ti10     Ti11    9.999   1_556     S
Ti10     Er12    10.0   .     S
Ti10     V109    10.0   1_556     S
Ti11     Er107    10.0   .     S
Ti11     Ti10    9.999   1_554     S
Ti11     V21    10.0   .     S
Er12     Ti144    10.0   .     S
Er12     Ti145    10.0   1_545     S
Er13     Ti15    10.0   .     S
Er13     Ti90    10.0   .     S
Er13     Ti91    10.0   .     S
Ti14     Er142    10.0   1_565     S
Ti14     Ti15    9.999   1_565     S
Ti14     Er18    10.0   .     S
Ti14     V46    10.0   1_565     S
Ti15     Er142    10.0   .     S
Ti15     Ti14    9.999   1_545     S
Ti15     V19    10.0   .     S
Ti16     Er97    10.0   .     S
Ti16     Ti17    9.999   .     S
Ti16     V22    10.0   .     S
Ti17     Er97    10.0   .     S
Ti17     Er18    10.0   .     S
Ti17     V150    10.0   .     S
Er18     Ti163    10.0   .     S
Er18     Ti164    10.0   1_455     S
V19     Ti127    10.0   .     S
V19     Ti141    10.0   .     S
V19     Ti90    10.0   .     S
V20     Ti56    10.0   .     S
V20     Ti160    10.0   .     S
V20     Ti131    10.0   .     S
V21     Ti78    10.0   .     S
V21     Ti106    10.0   .     S
V21     Ti151    10.0   .     S
V22     Ti94    10.0   .     S
V22     Ti132    10.0   .     S
V22     Ti123    10.0   .     S
V23     Ti63    10.0   .     S
V23     Ti82    10.0   .     S
V23     Ti30    10.0   .     S
V23     Ti157    10.0   .     S
V24     Ti85    10.0   .     S
V24     Ti120    10.0   .     S
V24     Ti38    10.0   .     S
V24     Ti93    10.0   .     S
V25     Ti124    10.0   .     S
V25     Ti60    10.0   .     S
V25     Ti32    10.0   .     S
V25     Ti137    10.0   .     S
Er26     Ti30    10.0   .     S
Er26     Ti35    10.0   .     S
Er26     Ti82    10.0   .     S
Er26     Ti83    10.0   .     S
Ti27     Er73    10.0   1_545     S
Ti27     Ti28    9.999   1_545     S
Ti27     Er31    10.0   .     S
Ti27     V108    10.0   .     S
Ti28     Er73    10.0   .     S
Ti28     Ti27    9.999   1_565     S
Ti28     Er34    10.0   .     S
Ti28     V69    10.0   .     S
Ti29     Er59    10.0   .     S
Ti29     Ti30    9.999   .     S
Ti29     Er31    10.0   .     S
Ti29     V129    10.0   1_655     S
Ti30     Er59    10.0   .     S
Er31     Ti112    10.0   .     S
Er31     Ti113    10.0   1_655     S
Ti32     Er128    10.0   .     S
Ti32     Ti33    9.999   .     S
Ti32     Er34    10.0   .     S
Ti33     Er128    10.0   .     S
Ti33     Er43    10.0   .     S
Ti33     V88    10.0   1_565     S
Er34     Ti60    10.0   .     S
Er34     Ti61    10.0   .     S
Ti35     Er117    10.0   .     S
Ti35     Ti36    9.999   1_655     S
Ti35     V110    10.0   .     S
Ti36     Er117    10.0   1_455     S
Ti36     Ti35    9.999   1_455     S
Ti36     Er37    10.0   .     S
Ti36     V45    10.0   .     S
Er37     Ti39    10.0   .     S
Er37     Ti52    10.0   .     S
Er37     Ti53    10.0   1_556     S
Ti38     Er81    10.0   .     S
Ti38     Ti39    9.999   .     S
Ti38     Er40    10.0   .     S
Ti39     Er81    10.0   .     S
Ti39     V149    10.0   1_556     S
Er40     Ti41    10.0   .     S
Er40     Ti120    10.0   .     S
Er40     Ti121    10.0   .     S
Ti41     Er48    10.0   .     S
Ti41     Ti42    9.999   1_556     S
Ti41     V47    10.0   .     S
Ti42     Er48    10.0   1_554     S
Ti42     Ti41    9.999   1_554     S
Ti42     Er43    10.0   .     S
Ti42     V67    10.0   .     S
Er43     Ti74    10.0   .     S
Er43     Ti75    10.0   1_565     S
V44     Ti136    10.0   .     S
V44     Ti152    10.0   .     S
V44     Ti64    10.0   .     S
V45     Ti147    10.0   1_455     S
V45     Ti115    10.0   1_455     S
V45     Ti52    10.0   .     S
V46     Ti50    10.0   .     S
V46     Ti163    10.0   1_545     S
V46     Ti146    10.0   .     S
V46     Ti14    10.0   1_545     S
V47     Ti135    10.0   .     S
V47     Ti57    10.0   .     S
V47     Ti121    10.0   .     S
Er48     Ti42    10.0   1_556     S
Er48     Ti57    10.0   .     S
Er48     Ti49    10.0   .     S
Ti49     Er168    10.0   .     S
Ti49     Ti50    9.999   1_565     S
Ti49     V67    10.0   1_556     S
Ti50     Er168    10.0   1_545     S
Ti50     Ti49    9.999   1_545     S
Ti50     Er51    10.0   .     S
Er51     Ti52    10.0   .     S
Er51     Ti146    10.0   .     S
Er51     Ti147    10.0   1_455     S
Ti52     Ti53    9.999   1_556     S
Ti53     Er37    10.0   1_554     S
Ti53     Ti52    9.999   1_554     S
Ti53     Er54    10.0   .     S
Ti53     V149    10.0   .     S
Er54     Ti56    10.0   .     S
Er54     Ti160    10.0   .     S
Er54     Ti161    10.0   .     S
Ti55     Er139    10.0   1_655     S
Ti55     Ti56    9.999   1_655     S
Ti55     Er59    10.0   .     S
Ti55     V129    10.0   1_655     S
Ti56     Er139    10.0   .     S
Ti56     Ti55    9.999   1_455     S
Ti57     Er143    10.0   .     S
Ti57     Ti58    9.999   .     S
Ti58     Er143    10.0   .     S
Ti58     Er62    10.0   .     S
Ti58     V130    10.0   1_565     S
Er59     Ti63    10.0   .     S
Ti60     Ti61    9.999   .     S
Ti60     Er65    10.0   .     S
Ti61     Er62    10.0   .     S
Ti61     V69    10.0   .     S
Er62     Ti154    10.0   1_565     S
Er62     Ti155    10.0   .     S
Ti63     Er153    10.0   .     S
Ti63     Ti64    9.999   .     S
Ti64     Er153    10.0   .     S
Ti64     Er65    10.0   .     S
Er65     Ti136    10.0   .     S
Er65     Ti137    10.0   .     S
V66     Ti156    10.0   .     S
V66     Ti91    10.0   .     S
V66     Ti86    10.0   .     S
V67     Ti167    10.0   1_554     S
V67     Ti49    10.0   1_554     S
V67     Ti74    10.0   .     S
V68     Ti72    10.0   .     S
V68     Ti102    10.0   1_455     S
V68     Ti166    10.0   .     S
V68     Ti4    10.0   1_455     S
V69     Ti155    10.0   .     S
V69     Ti79    10.0   .     S
Er70     Ti74    10.0   .     S
Er70     Ti72    10.0   .     S
Er70     Ti166    10.0   .     S
Er70     Ti167    10.0   1_554     S
Ti71     Er101    10.0   .     S
Ti71     Ti72    9.999   1_655     S
Ti71     Er73    10.0   .     S
Ti71     V108    10.0   1_565     S
Ti72     Er101    10.0   1_455     S
Ti72     Ti71    9.999   1_455     S
Er73     Ti27    10.0   1_565     S
Er73     Ti79    10.0   .     S
Ti74     Ti75    9.999   1_565     S
Ti75     Er43    10.0   1_545     S
Ti75     Ti74    9.999   1_545     S
Ti75     Er76    10.0   .     S
Ti75     V88    10.0   .     S
Er76     Ti78    10.0   .     S
Er76     Ti105    10.0   .     S
Er76     Ti106    10.0   .     S
Ti77     Er159    10.0   1_556     S
Ti77     Ti78    9.999   1_556     S
Ti77     Er81    10.0   .     S
Ti77     V149    10.0   1_556     S
Ti78     Er159    10.0   .     S
Ti78     Ti77    9.999   1_554     S
Ti79     Er165    10.0   .     S
Ti79     Ti80    9.999   .     S
Ti80     Er165    10.0   .     S
Ti80     Er84    10.0   .     S
Ti80     V150    10.0   1_655     S
Er81     Ti85    10.0   .     S
Ti82     Ti83    9.999   .     S
Ti82     Er87    10.0   .     S
Ti83     Er84    10.0   .     S
Ti83     V110    10.0   .     S
Er84     Ti95    10.0   1_655     S
Er84     Ti96    10.0   .     S
Ti85     Er92    10.0   .     S
Ti85     Ti86    9.999   .     S
Ti86     Er92    10.0   .     S
Ti86     Er87    10.0   .     S
Er87     Ti156    10.0   .     S
Er87     Ti157    10.0   .     S
V88     Ti33    10.0   1_545     S
V88     Ti105    10.0   .     S
V88     Ti126    10.0   1_545     S
V89     Ti119    10.0   1_554     S
V89     Ti103    10.0   1_554     S
V89     Ti134    10.0   .     S
Ti90     Ti91    9.999   .     S
Ti90     Er98    10.0   .     S
Ti91     Er92    10.0   .     S
Er92     Ti93    10.0   .     S
Ti93     Er125    10.0   .     S
Ti93     Ti94    9.999   .     S
Ti94     Er125    10.0   .     S
Ti94     Er97    10.0   .     S
Ti95     Er84    10.0   1_455     S
Ti95     Ti96    9.999   1_455     S
Ti95     Er97    10.0   .     S
Ti95     V150    10.0   .     S
Ti96     Ti95    9.999   1_655     S
Ti96     Er104    10.0   .     S
Ti96     V110    10.0   .     S
Er98     Ti105    10.0   .     S
Er98     Ti126    10.0   1_545     S
Er98     Ti127    10.0   .     S
Ti99     Er114    10.0   .     S
Ti99     Ti100    9.999   1_545     S
Ti99     Er107    10.0   .     S
Ti99     V109    10.0   .     S
Ti100     Er114    10.0   1_565     S
Ti100     Ti99    9.999   1_565     S
Ti100     Er101    10.0   .     S
Ti100     V108    10.0   1_565     S
Er101     Ti72    10.0   1_655     S
Er101     Ti102    10.0   .     S
Ti102     V68    10.0   1_655     S
Ti102     Ti103    9.999   1_554     S
Ti103     V89    10.0   1_556     S
Ti103     Er6    10.0   1_556     S
Ti103     Ti102    9.999   1_556     S
Ti103     Er104    10.0   .     S
Er104     Ti118    10.0   .     S
Er104     Ti119    10.0   .     S
Ti105     Ti106    9.999   .     S
Ti106     Er107    10.0   .     S
Er107     Ti10    10.0   1_554     S
V108     Ti100    10.0   1_545     S
V108     Ti71    10.0   1_545     S
V108     Ti112    10.0   .     S
V109     Ti144    10.0   1_554     S
V109     Ti116    10.0   .     S
V109     Ti10    10.0   1_554     S
V110     Ti118    10.0   .     S
Er111     Ti113    10.0   .     S
Er111     Ti127    10.0   .     S
Er111     Ti140    10.0   .     S
Er111     Ti141    10.0   .     S
Ti112     Ti113    9.999   1_655     S
Ti112     Er114    10.0   .     S
Ti113     Er31    10.0   1_455     S
Ti113     Ti112    9.999   1_455     S
Ti113     V129    10.0   .     S
Er114     Ti100    10.0   1_545     S
Er114     Ti116    10.0   .     S
Ti115     V45    10.0   1_655     S
Ti115     Er148    10.0   .     S
Ti115     Ti116    9.999   1_556     S
Ti115     Er117    10.0   .     S
Ti116     Er148    10.0   1_554     S
Ti116     Ti115    9.999   1_554     S
Er117     Ti36    10.0   1_655     S
Er117     Ti118    10.0   .     S
Ti118     Ti119    9.999   .     S
Ti119     V89    10.0   1_556     S
Ti119     Er122    10.0   .     S
Ti120     Ti121    9.999   .     S
Ti120     Er125    10.0   .     S
Ti121     Er122    10.0   .     S
Er122     Ti134    10.0   1_556     S
Er122     Ti135    10.0   .     S
Ti123     Er133    10.0   .     S
Ti123     Ti124    9.999   .     S
Ti123     Er125    10.0   .     S
Ti124     Er133    10.0   .     S
Ti124     Er128    10.0   .     S
Ti126     V88    10.0   1_565     S
Ti126     Er98    10.0   1_565     S
Ti126     Ti127    9.999   1_565     S
Ti126     Er128    10.0   .     S
Ti127     Ti126    9.999   1_545     S
V129     Ti29    10.0   1_455     S
V129     Ti55    10.0   1_455     S
V129     Ti140    10.0   .     S
V130     Ti58    10.0   1_545     S
V130     Ti145    10.0   1_545     S
V130     Ti154    10.0   .     S
Ti131     Ti132    9.999   .     S
Ti131     Er139    10.0   .     S
Ti132     Er133    10.0   .     S
Er133     Ti137    10.0   .     S
Ti134     Er122    10.0   1_554     S
Ti134     Ti135    9.999   1_554     S
Ti134     Er138    10.0   .     S
Ti135     Ti134    9.999   1_556     S
Ti135     Er143    10.0   .     S
Ti136     Ti137    9.999   .     S
Ti136     Er138    10.0   .     S
Er139     Ti55    10.0   1_455     S
Er139     Ti140    10.0   .     S
Ti140     Ti141    9.999   .     S
Ti141     Er142    10.0   .     S
Er142     Ti14    10.0   1_545     S
Er142     Ti146    10.0   .     S
Er143     Ti145    10.0   .     S
Ti144     V109    10.0   1_556     S
Ti144     Ti145    9.999   1_545     S
Ti144     Er148    10.0   .     S
Ti145     V130    10.0   1_565     S
Ti145     Er12    10.0   1_565     S
Ti145     Ti144    9.999   1_565     S
Ti146     Ti147    9.999   1_455     S
Ti147     V45    10.0   1_655     S
Ti147     Er51    10.0   1_655     S
Ti147     Ti146    9.999   1_655     S
Ti147     Er148    10.0   .     S
Er148     Ti116    10.0   1_556     S
V149     Ti39    10.0   1_554     S
V149     Ti161    10.0   .     S
V149     Ti77    10.0   1_554     S
V150     Ti80    10.0   1_455     S
V150     Ti164    10.0   1_455     S
Ti151     Ti152    9.999   .     S
Ti151     Er159    10.0   .     S
Ti152     Er153    10.0   .     S
Er153     Ti157    10.0   .     S
Ti154     Er62    10.0   1_545     S
Ti154     Ti155    9.999   1_545     S
Ti154     Er158    10.0   .     S
Ti155     Ti154    9.999   1_565     S
Ti155     Er165    10.0   .     S
Ti156     Ti157    9.999   .     S
Ti156     Er158    10.0   .     S
Er159     Ti77    10.0   1_554     S
Er159     Ti161    10.0   .     S
Ti160     Ti161    9.999   .     S
Ti160     Er162    10.0   .     S
Er162     Ti4    10.0   1_455     S
Er162     Ti166    10.0   .     S
Ti163     V46    10.0   1_565     S
Ti163     Ti164    9.999   1_455     S
Ti163     Er168    10.0   .     S
Ti164     V150    10.0   1_655     S
Ti164     Er18    10.0   1_655     S
Ti164     Ti163    9.999   1_655     S
Ti164     Er165    10.0   .     S
Ti166     Ti167    9.999   1_554     S
Ti167     V67    10.0   1_556     S
Ti167     Er70    10.0   1_556     S
Ti167     Ti166    9.999   1_556     S
Ti167     Er168    10.0   .     S
Er168     Ti50    10.0   1_565     S
