data_jse
_audit_creation_date              2020-02-04
_audit_creation_method            'Pymatgen'
_symmetry_space_group_name_H-M    'P1'
_symmetry_Int_Tables_number       1
loop_
_symmetry_equiv_pos_as_xyz
  x,y,z
_cell_length_a                    19.6741
_cell_length_b                    19.6741
_cell_length_c                    112.4937
_cell_angle_alpha                 90.0
_cell_angle_beta                 90.0
_cell_angle_gamma                 90.0
loop_
_atom_site_label
_atom_site_type_symbol
_atom_site_fract_x
_atom_site_fract_y
_atom_site_fract_z
Ti1     Ti     0.7675   0.6474   0.0516
Ti2     Ti     0.2325   0.8526   0.0516
Er3     Er     0.5   0.75   0.9782
Ti4     Ti     0.7675   0.1474   0.9484
Ti5     Ti     0.2325   0.3526   0.9484
Er6     Er     0.5   0.25   0.0219
V7     V     0.5   0.75   0.125
Ti8     Ti     0.6026   0.0175   0.1984
Ti9     Ti     0.3974   0.4825   0.1984
Er10     Er     0.5   0.75   0.2719
Ti11     Ti     0.1026   0.0175   0.3016
Ti12     Ti     0.8974   0.4825   0.3016
Er13     Er     0.0   0.75   0.2282
V14     V     0.0   0.75   0.375
Ti15     Ti     0.7325   0.3526   0.5516
Ti16     Ti     0.2675   0.1474   0.5516
Er17     Er     0.0   0.25   0.4782
Ti18     Ti     0.2675   0.6474   0.4484
Ti19     Ti     0.7325   0.8526   0.4484
Er20     Er     0.0   0.75   0.5218
V21     V     0.5   0.25   0.875
V22     V     0.0   0.25   0.625
Ti23     Ti     0.3974   0.9825   0.8016
Ti24     Ti     0.6026   0.5175   0.8016
Er25     Er     0.5   0.25   0.7282
Ti26     Ti     0.1026   0.5175   0.6984
Ti27     Ti     0.8974   0.9825   0.6984
Er28     Er     0.0   0.25   0.7718
loop_
_geom_bond_atom_site_label_1
_geom_bond_atom_site_label_2
_geom_bond_distance
_geom_bond_site_symmetry_2
_ccdc_geom_bond_type
Ti1     Er3    9.999   1_554     S
Ti1     Ti2    10.0   1_655     S
Ti1     Er6    10.0   .     S
Ti1     V7    10.0   .     S
Ti2     Er3    9.999   1_554     S
Ti2     Ti1    10.0   1_455     S
Ti2     Er6    10.0   1_565     S
Ti2     V7    10.0   .     S
Er3     Ti1    9.999   1_556     S
Er3     Ti2    9.999   1_556     S
Er3     Ti5    10.0   .     S
Er3     Ti4    10.0   1_565     S
Ti4     Er3    10.0   1_545     S
Ti4     Er6    9.999   1_556     S
Ti4     Ti5    10.0   1_655     S
Ti4     V21    10.0   .     S
Ti5     Er6    9.999   1_556     S
Ti5     Ti4    10.0   1_455     S
Ti5     V21    10.0   .     S
Er6     Ti4    9.999   1_554     S
Er6     Ti5    9.999   1_554     S
Er6     Ti2    10.0   1_545     S
V7     Ti9    10.0   .     S
V7     Ti8    10.0   1_565     S
Ti8     V7    10.0   1_545     S
Ti8     Er10    9.999   1_545     S
Ti8     Ti9    10.0   .     S
Ti8     Er13    10.0   1_645     S
Ti9     Er10    9.999   .     S
Ti9     Er13    10.0   .     S
Er10     Ti8    9.999   1_565     S
Er10     Ti12    10.0   .     S
Er10     Ti11    10.0   1_565     S
Ti11     Er10    10.0   1_545     S
Ti11     Er13    9.999   1_545     S
Ti11     Ti12    10.0   1_455     S
Ti11     V14    10.0   1_545     S
Ti12     Er13    9.999   1_655     S
Ti12     Ti11    10.0   1_655     S
Ti12     V14    10.0   1_655     S
Er13     Ti11    9.999   1_565     S
Er13     Ti12    9.999   1_455     S
Er13     Ti8    10.0   1_465     S
V14     Ti18    10.0   .     S
V14     Ti12    10.0   1_455     S
V14     Ti19    10.0   1_455     S
V14     Ti11    10.0   1_565     S
Ti15     Er17    9.999   1_655     S
Ti15     Ti16    10.0   .     S
Ti15     Er20    10.0   1_655     S
Ti15     V22    10.0   1_655     S
Ti16     Er17    9.999   .     S
Ti16     Er20    10.0   1_545     S
Ti16     V22    10.0   .     S
Er17     Ti15    9.999   1_455     S
Er17     Ti18    10.0   .     S
Er17     Ti19    10.0   1_445     S
Ti18     Er20    9.999   .     S
Ti18     Ti19    10.0   .     S
Ti19     V14    10.0   1_655     S
Ti19     Er17    10.0   1_665     S
Ti19     Er20    9.999   1_655     S
Er20     Ti19    9.999   1_455     S
Er20     Ti16    10.0   1_565     S
Er20     Ti15    10.0   1_455     S
V21     Ti23    10.0   1_545     S
V21     Ti24    10.0   .     S
V22     Ti26    10.0   .     S
V22     Ti15    10.0   1_455     S
V22     Ti27    10.0   1_445     S
Ti23     V21    10.0   1_565     S
Ti23     Er25    9.999   1_565     S
Ti23     Ti24    10.0   .     S
Ti23     Er28    10.0   1_565     S
Ti24     Er25    9.999   .     S
Ti24     Er28    10.0   1_655     S
Er25     Ti23    9.999   1_545     S
Er25     Ti26    10.0   .     S
Er25     Ti27    10.0   1_545     S
Ti26     Er28    9.999   .     S
Ti26     Ti27    10.0   1_455     S
Ti27     V22    10.0   1_665     S
Ti27     Er25    10.0   1_565     S
Ti27     Er28    9.999   1_665     S
Ti27     Ti26    10.0   1_655     S
Er28     Ti27    9.999   1_445     S
Er28     Ti24    10.0   1_455     S
Er28     Ti23    10.0   1_545     S
