data_kce
_audit_creation_date              2020-02-04
_audit_creation_method            'Pymatgen'
_symmetry_space_group_name_H-M    'P1'
_symmetry_Int_Tables_number       1
loop_
_symmetry_equiv_pos_as_xyz
  x,y,z
_cell_length_a                    39.0736
_cell_length_b                    39.0736
_cell_length_c                    39.0736
_cell_angle_alpha                 90.0
_cell_angle_beta                 90.0
_cell_angle_gamma                 90.0
loop_
_atom_site_label
_atom_site_type_symbol
_atom_site_fract_x
_atom_site_fract_y
_atom_site_fract_z
Ti1     Ti     0.75   0.75   0.75
Ti2     Ti     0.75   0.75   0.25
Ti3     Ti     0.75   0.25   0.75
Ti4     Ti     0.25   0.25   0.75
Ti5     Ti     0.25   0.75   0.75
Ti6     Ti     0.75   0.25   0.25
Ti7     Ti     0.25   0.75   0.25
V8     V     0.5   0.2063   0.2938
V9     V     0.5   0.2938   0.2063
V10     V     0.2063   0.5   0.2938
V11     V     0.2938   0.5   0.2063
V12     V     0.7937   0.5   0.7062
V13     V     0.7062   0.5   0.7937
V14     V     0.5   0.2063   0.7062
V15     V     0.5   0.2938   0.7937
Er16     Er     0.5   0.5   0.9398
Er17     Er     0.5   0.5   0.0602
V18     V     0.2063   0.5   0.7062
V19     V     0.2938   0.5   0.7937
V20     V     0.5   0.7937   0.7062
V21     V     0.5   0.7062   0.7937
V22     V     0.7937   0.7062   0.5
V23     V     0.7062   0.7937   0.5
V24     V     0.5   0.7937   0.2938
V25     V     0.5   0.7062   0.2063
Er26     Er     0.5   0.9398   0.5
Er27     Er     0.5   0.0602   0.5
V28     V     0.2063   0.7062   0.5
V29     V     0.2938   0.7937   0.5
V30     V     0.2938   0.2063   0.5
V31     V     0.2063   0.2938   0.5
V32     V     0.7937   0.5   0.2938
V33     V     0.7062   0.5   0.2063
Er34     Er     0.9398   0.5   0.5
Er35     Er     0.0602   0.5   0.5
V36     V     0.7937   0.2938   0.5
V37     V     0.7062   0.2063   0.5
V38     V     0.7938   0.7063   0.0
V39     V     0.7063   0.7938   0.0
V40     V     0.0   0.7063   0.7938
V41     V     0.0   0.7938   0.7063
V42     V     0.7063   0.0   0.7938
V43     V     0.7938   0.0   0.7063
V44     V     0.2937   0.2062   0.0
V45     V     0.2062   0.2937   0.0
V46     V     0.7063   0.0   0.2062
V47     V     0.7938   0.0   0.2937
Er48     Er     0.4398   0.0   0.0
Er49     Er     0.5602   0.0   0.0
V50     V     0.7063   0.2062   0.0
V51     V     0.7938   0.2937   0.0
V52     V     0.2937   0.0   0.2062
V53     V     0.2062   0.0   0.2937
V54     V     0.0   0.7063   0.2062
V55     V     0.0   0.7938   0.2937
Er56     Er     0.0   0.4398   0.0
Er57     Er     0.0   0.5602   0.0
V58     V     0.2937   0.7938   0.0
V59     V     0.2062   0.7063   0.0
V60     V     0.0   0.2937   0.2062
V61     V     0.0   0.2062   0.2937
V62     V     0.0   0.2937   0.7938
V63     V     0.0   0.2062   0.7063
Er64     Er     0.0   0.0   0.4398
Er65     Er     0.0   0.0   0.5602
V66     V     0.2937   0.0   0.7938
V67     V     0.2062   0.0   0.7063
Ti68     Ti     0.25   0.25   0.25
loop_
_geom_bond_atom_site_label_1
_geom_bond_atom_site_label_2
_geom_bond_distance
_geom_bond_site_symmetry_2
_ccdc_geom_bond_type
Ti1     V22    10.063   .     S
Ti1     V23    10.063   .     S
Ti1     V13    10.063   .     S
Ti1     V12    10.063   .     S
Ti1     V20    10.063   .     S
Ti1     V21    10.063   .     S
Ti1     V38    10.063   1_556     S
Ti1     V39    10.063   1_556     S
Ti1     V41    10.063   1_655     S
Ti1     V40    10.063   1_655     S
Ti1     V42    10.063   1_565     S
Ti1     V43    10.063   1_565     S
Ti2     V25    10.063   .     S
Ti2     V24    10.063   .     S
Ti2     V32    10.063   .     S
Ti2     V33    10.063   .     S
Ti2     V47    10.063   1_565     S
Ti2     V46    10.063   1_565     S
Ti2     V54    10.063   1_655     S
Ti2     V55    10.063   1_655     S
Ti2     V23    10.063   .     S
Ti2     V22    10.063   .     S
Ti2     V39    10.063   .     S
Ti2     V38    10.063   .     S
Ti3     V37    10.063   .     S
Ti3     V36    10.063   .     S
Ti3     V15    10.063   .     S
Ti3     V14    10.063   .     S
Ti3     V62    10.063   1_655     S
Ti3     V63    10.063   1_655     S
Ti3     V50    10.063   1_556     S
Ti3     V51    10.063   1_556     S
Ti3     V12    10.063   .     S
Ti3     V13    10.063   .     S
Ti3     V43    10.063   .     S
Ti3     V42    10.063   .     S
Ti4     V31    10.063   .     S
Ti4     V30    10.063   .     S
Ti4     V19    10.063   .     S
Ti4     V18    10.063   .     S
Ti4     V14    10.063   .     S
Ti4     V15    10.063   .     S
Ti4     V63    10.063   .     S
Ti4     V62    10.063   .     S
Ti4     V66    10.063   .     S
Ti4     V67    10.063   .     S
Ti4     V45    10.063   1_556     S
Ti4     V44    10.063   1_556     S
Ti5     V29    10.063   .     S
Ti5     V28    10.063   .     S
Ti5     V18    10.063   .     S
Ti5     V19    10.063   .     S
Ti5     V67    10.063   1_565     S
Ti5     V66    10.063   1_565     S
Ti5     V58    10.063   1_556     S
Ti5     V59    10.063   1_556     S
Ti5     V21    10.063   .     S
Ti5     V20    10.063   .     S
Ti5     V40    10.063   .     S
Ti5     V41    10.063   .     S
Ti6     V36    10.063   .     S
Ti6     V37    10.063   .     S
Ti6     V33    10.063   .     S
Ti6     V32    10.063   .     S
Ti6     V8    10.063   .     S
Ti6     V9    10.063   .     S
Ti6     V51    10.063   .     S
Ti6     V50    10.063   .     S
Ti6     V46    10.063   .     S
Ti6     V47    10.063   .     S
Ti6     V61    10.063   1_655     S
Ti6     V60    10.063   1_655     S
Ti7     V28    10.063   .     S
Ti7     V29    10.063   .     S
Ti7     V11    10.063   .     S
Ti7     V10    10.063   .     S
Ti7     V24    10.063   .     S
Ti7     V25    10.063   .     S
Ti7     V59    10.063   .     S
Ti7     V58    10.063   .     S
Ti7     V55    10.063   .     S
Ti7     V54    10.063   .     S
Ti7     V52    10.063   1_565     S
Ti7     V53    10.063   1_565     S
V8     Er27    9.873   .     S
V8     Ti68    10.063   .     S
V9     Er17    9.873   .     S
V9     Ti68    10.063   .     S
V10     Er35    9.873   .     S
V10     Ti68    10.063   .     S
V11     Er17    9.873   .     S
V11     Ti68    10.063   .     S
V12     Er34    9.873   .     S
V13     Er16    9.873   .     S
V14     Er27    9.873   .     S
V15     Er16    9.873   .     S
Er16     V19    9.873   .     S
Er16     V21    9.873   .     S
Er17     V25    9.873   .     S
Er17     V33    9.873   .     S
V18     Er35    9.873   .     S
V20     Er26    9.873   .     S
V22     Er34    9.873   .     S
V23     Er26    9.873   .     S
V24     Er26    9.873   .     S
Er26     V29    9.873   .     S
Er27     V30    9.873   .     S
Er27     V37    9.873   .     S
V28     Er35    9.873   .     S
V30     Ti68    10.063   .     S
V31     Er35    9.873   .     S
V31     Ti68    10.063   .     S
V32     Er34    9.873   .     S
Er34     V36    9.873   .     S
V38     Er57    9.873   1_655     S
V38     Ti1    10.063   1_554     S
V39     Er49    9.873   1_565     S
V39     Ti1    10.063   1_554     S
V40     Er57    9.873   1_556     S
V40     Ti1    10.063   1_455     S
V41     Er65    9.873   1_565     S
V41     Ti1    10.063   1_455     S
V42     Er49    9.873   1_556     S
V42     Ti1    10.063   1_545     S
V43     Er65    9.873   1_655     S
V43     Ti1    10.063   1_545     S
V44     Er48    9.873   .     S
V44     Ti4    10.063   1_554     S
V44     Ti68    10.063   .     S
V45     Er56    9.873   .     S
V45     Ti4    10.063   1_554     S
V45     Ti68    10.063   .     S
V46     Er49    9.873   .     S
V46     Ti2    10.063   1_545     S
V47     Er64    9.873   1_655     S
V47     Ti2    10.063   1_545     S
Er48     V52    9.873   .     S
Er48     V58    9.873   1_545     S
Er48     V66    9.873   1_554     S
Er49     V39    9.873   1_545     S
Er49     V42    9.873   1_554     S
Er49     V50    9.873   .     S
V50     Ti3    10.063   1_554     S
V51     Er56    9.873   1_655     S
V51     Ti3    10.063   1_554     S
V52     Ti7    10.063   1_545     S
V52     Ti68    10.063   .     S
V53     Er64    9.873   .     S
V53     Ti7    10.063   1_545     S
V53     Ti68    10.063   .     S
V54     Er57    9.873   .     S
V54     Ti2    10.063   1_455     S
V55     Er64    9.873   1_565     S
V55     Ti2    10.063   1_455     S
Er56     V51    9.873   1_455     S
Er56     V60    9.873   .     S
Er56     V62    9.873   1_554     S
Er57     V38    9.873   1_455     S
Er57     V40    9.873   1_554     S
Er57     V59    9.873   .     S
V58     Er48    9.873   1_565     S
V58     Ti5    10.063   1_554     S
V59     Ti5    10.063   1_554     S
V60     Ti6    10.063   1_455     S
V60     Ti68    10.063   .     S
V61     Er64    9.873   .     S
V61     Ti6    10.063   1_455     S
V61     Ti68    10.063   .     S
V62     Er56    9.873   1_556     S
V62     Ti3    10.063   1_455     S
V63     Er65    9.873   .     S
V63     Ti3    10.063   1_455     S
Er64     V47    9.873   1_455     S
Er64     V55    9.873   1_545     S
Er65     V41    9.873   1_545     S
Er65     V43    9.873   1_455     S
Er65     V67    9.873   .     S
V66     Er48    9.873   1_556     S
V66     Ti5    10.063   1_545     S
V67     Ti5    10.063   1_545     S
