data_keae
_audit_creation_date              2020-02-04
_audit_creation_method            'Pymatgen'
_symmetry_space_group_name_H-M    'P1'
_symmetry_Int_Tables_number       1
loop_
_symmetry_equiv_pos_as_xyz
  x,y,z
_cell_length_a                    28.4209
_cell_length_b                    28.4209
_cell_length_c                    35.5811
_cell_angle_alpha                 90.0
_cell_angle_beta                 90.0
_cell_angle_gamma                 90.0
loop_
_atom_site_label
_atom_site_type_symbol
_atom_site_fract_x
_atom_site_fract_y
_atom_site_fract_z
Er1     Er     0.1443   0.8974   0.9827
Er2     Er     0.3557   0.3974   0.7673
Er3     Er     0.6026   0.6443   0.7327
Er4     Er     0.8557   0.1026   0.4827
Er5     Er     0.3974   0.3557   0.2327
Ti6     Ti     0.4851   0.8873   0.913
V7     V     0.8297   0.8603   0.8605
Ti8     Ti     0.6127   0.9851   0.663
V9     V     0.6397   0.3297   0.6105
Ti10     Ti     0.3873   0.0149   0.163
V11     V     0.3603   0.6703   0.1105
Ti12     Ti     0.5149   0.1127   0.413
V13     V     0.1703   0.1397   0.3605
Er14     Er     0.8974   0.1443   0.0173
Er15     Er     0.1026   0.8557   0.5173
Er16     Er     0.6443   0.6026   0.2673
Ti17     Ti     0.9851   0.6127   0.337
V18     V     0.3297   0.6397   0.3895
Ti19     Ti     0.1127   0.5149   0.587
V20     V     0.1397   0.1703   0.6395
Ti21     Ti     0.0149   0.3873   0.837
V22     V     0.6703   0.3603   0.8895
Ti23     Ti     0.8873   0.4851   0.087
V24     V     0.8603   0.8297   0.1395
loop_
_geom_bond_atom_site_label_1
_geom_bond_atom_site_label_2
_geom_bond_distance
_geom_bond_site_symmetry_2
_ccdc_geom_bond_type
Er1     V7    10.0   1_455     S
Er1     Ti10    10.0   1_566     S
Er1     Ti6    10.0   .     S
Er1     V11    10.0   1_556     S
Er1     V24    10.0   1_456     S
Er1     Er14    10.0   1_466     S
Er2     V22    10.0   .     S
Er2     V9    10.0   .     S
Er2     Ti19    10.0   .     S
Er2     Ti21    10.0   .     S
Er2     V20    10.0   .     S
Er2     Er3    10.0   .     S
Er3     V22    10.0   .     S
Er3     V9    10.0   .     S
Er3     Ti8    10.0   .     S
Er3     V7    10.0   .     S
Er3     Ti6    10.0   .     S
Er4     V13    10.0   1_655     S
Er4     Ti8    10.0   1_545     S
Er4     Ti12    10.0   .     S
Er4     V9    10.0   .     S
Er4     V20    10.0   1_655     S
Er4     Er15    10.0   1_645     S
Er5     V11    10.0   .     S
Er5     Ti12    10.0   .     S
Er5     Ti10    10.0   .     S
Er5     V13    10.0   .     S
Er5     Er16    10.0   .     S
Er5     V18    10.0   .     S
Ti6     V7    10.0   .     S
Ti6     Ti8    10.0   .     S
Ti6     V11    10.0   1_556     S
Ti6     Ti10    10.0   1_566     S
V7     Er1    10.0   1_655     S
V7     Er14    10.0   1_566     S
V7     Ti8    10.0   .     S
V7     V24    10.0   1_556     S
Ti8     Er4    10.0   1_565     S
Ti8     V9    10.0   1_565     S
Ti8     Ti12    10.0   1_565     S
V9     V22    10.0   .     S
V9     Ti12    10.0   .     S
V9     Ti8    10.0   1_545     S
Ti10     Er1    10.0   1_544     S
Ti10     V11    10.0   1_545     S
Ti10     Ti6    10.0   1_544     S
Ti10     V13    10.0   .     S
Ti10     Ti12    10.0   .     S
V11     Er16    10.0   .     S
V11     Ti6    10.0   1_554     S
V11     Er1    10.0   1_554     S
V11     Ti10    10.0   1_565     S
V11     V18    10.0   .     S
Ti12     Ti8    10.0   1_545     S
Ti12     V13    10.0   .     S
V13     Er4    10.0   1_455     S
V13     Er15    10.0   1_545     S
V13     V20    10.0   .     S
Er14     V7    10.0   1_544     S
Er14     V24    10.0   1_545     S
Er14     Ti21    10.0   1_654     S
Er14     Ti23    10.0   .     S
Er14     V22    10.0   1_554     S
Er14     Er1    10.0   1_644     S
Er15     V13    10.0   1_565     S
Er15     V20    10.0   1_565     S
Er15     Ti19    10.0   .     S
Er15     V18    10.0   .     S
Er15     Ti17    10.0   1_455     S
Er15     Er4    10.0   1_465     S
Er16     V18    10.0   .     S
Er16     Ti23    10.0   .     S
Er16     Ti17    10.0   .     S
Er16     V24    10.0   .     S
Ti17     V18    10.0   1_655     S
Ti17     Er15    10.0   1_655     S
Ti17     Ti19    10.0   1_655     S
Ti17     V24    10.0   .     S
Ti17     Ti23    10.0   .     S
V18     Ti19    10.0   .     S
V18     Ti17    10.0   1_455     S
Ti19     Ti17    10.0   1_455     S
Ti19     V20    10.0   .     S
Ti19     Ti21    10.0   .     S
V20     Er15    10.0   1_545     S
V20     Er4    10.0   1_455     S
V20     Ti21    10.0   .     S
Ti21     Er14    10.0   1_456     S
Ti21     V22    10.0   1_455     S
Ti21     Ti23    10.0   1_456     S
V22     Ti23    10.0   1_556     S
V22     Er14    10.0   1_556     S
V22     Ti21    10.0   1_655     S
Ti23     V22    10.0   1_554     S
Ti23     Ti21    10.0   1_654     S
Ti23     V24    10.0   .     S
V24     Er14    10.0   1_565     S
V24     Er1    10.0   1_654     S
V24     V7    10.0   1_554     S
