data_kema
_audit_creation_date              2020-02-04
_audit_creation_method            'Pymatgen'
_symmetry_space_group_name_H-M    'P1'
_symmetry_Int_Tables_number       1
loop_
_symmetry_equiv_pos_as_xyz
  x,y,z
_cell_length_a                    73.0123
_cell_length_b                    73.0123
_cell_length_c                    75.7866
_cell_angle_alpha                 90.0
_cell_angle_beta                 90.0
_cell_angle_gamma                 120.0
loop_
_atom_site_label
_atom_site_type_symbol
_atom_site_fract_x
_atom_site_fract_y
_atom_site_fract_z
Ce1     Ce     0.863   0.863   0.066
Ce2     Ce     0.863   0.863   0.934
Ce3     Ce     0.0   0.863   0.934
Ce4     Ce     0.0   0.863   0.066
Ce5     Ce     0.863   0.0   0.934
Ce6     Ce     0.863   0.0   0.066
Ce7     Ce     0.0   0.137   0.066
Ce8     Ce     0.0   0.137   0.934
Ce9     Ce     0.137   0.137   0.934
Ce10     Ce     0.137   0.137   0.066
Ce11     Ce     0.137   0.0   0.934
Ce12     Ce     0.137   0.0   0.066
S13     S     0.7224   0.6688   0.748
He14     He     0.6028   0.6654   0.8147
Ti15     Ti     0.7498   0.7454   0.8628
V16     V     0.6729   0.5875   0.8608
S17     S     0.7224   0.0536   0.748
He18     He     0.6028   0.9373   0.8147
Ti19     Ti     0.7498   0.0043   0.8628
V20     V     0.6729   0.0854   0.8608
S21     S     0.3312   0.0536   0.748
He22     He     0.3346   0.9373   0.8147
Ti23     Ti     0.2546   0.0043   0.8628
V24     V     0.4125   0.0854   0.8608
S25     S     0.3312   0.2776   0.748
He26     He     0.3346   0.3972   0.8147
Ti27     Ti     0.2546   0.2502   0.8628
V28     V     0.4125   0.3271   0.8608
S29     S     0.9464   0.2776   0.748
He30     He     0.0627   0.3972   0.8147
Ti31     Ti     0.9957   0.2502   0.8628
V32     V     0.9146   0.3271   0.8608
S33     S     0.7224   0.6688   0.252
He34     He     0.6028   0.6654   0.1853
Ti35     Ti     0.7498   0.7454   0.1372
V36     V     0.6729   0.5875   0.1392
S37     S     0.7224   0.0536   0.252
He38     He     0.6028   0.9373   0.1853
Ti39     Ti     0.7498   0.0043   0.1372
V40     V     0.6729   0.0854   0.1392
S41     S     0.9464   0.6688   0.748
He42     He     0.0627   0.6654   0.8147
Ti43     Ti     0.9957   0.7454   0.8628
V44     V     0.9146   0.5875   0.8608
S45     S     0.3312   0.0536   0.252
He46     He     0.3346   0.9373   0.1853
Ti47     Ti     0.2546   0.0043   0.1372
V48     V     0.4125   0.0854   0.1392
Ti49     Ti     0.2546   0.2502   0.1372
V50     V     0.4125   0.3271   0.1392
S51     S     0.3312   0.2776   0.252
He52     He     0.3346   0.3972   0.1853
S53     S     0.9464   0.2776   0.252
He54     He     0.0627   0.3972   0.1853
Ti55     Ti     0.9957   0.2502   0.1372
V56     V     0.9146   0.3271   0.1392
H57     H     0.3146   0.0889   0.3765
H58     H     0.3146   0.2258   0.3765
H59     H     0.9111   0.6854   0.3765
H60     H     0.7742   0.6854   0.3765
H61     H     0.3146   0.0889   0.6235
H62     H     0.3146   0.2258   0.6235
H63     H     0.7742   0.0889   0.3765
H64     H     0.9111   0.2258   0.3765
H65     H     0.9111   0.6854   0.6235
H66     H     0.7742   0.6854   0.6235
H67     H     0.7742   0.0889   0.6235
H68     H     0.9111   0.2258   0.6235
C69     C     0.2555   0.3742   0.5
C70     C     0.1187   0.3742   0.5
Be71     Be     0.243   0.486   0.4341
Be72     Be     0.243   0.486   0.5659
N73     N     0.3002   0.2652   0.5
N74     N     0.965   0.2652   0.5
N75     N     0.7348   0.6998   0.5
C76     C     0.6258   0.7445   0.5
C77     C     0.6258   0.8813   0.5
Be78     Be     0.514   0.757   0.4341
Be79     Be     0.514   0.757   0.5659
N80     N     0.7348   0.035   0.5
B81     B     0.2877   0.5754   0.6748
B82     B     0.4246   0.7123   0.6748
B83     B     0.2877   0.7123   0.6748
Li84     Li     0.4704   0.6667   0.7822
Li85     Li     0.3333   0.5296   0.7822
Li86     Li     0.3333   0.8038   0.7822
Li87     Li     0.1962   0.5296   0.7822
Li88     Li     0.4704   0.8038   0.7822
Li89     Li     0.1962   0.6667   0.7822
C90     C     0.2555   0.8813   0.5
C91     C     0.1187   0.7445   0.5
Be92     Be     0.243   0.757   0.4341
Be93     Be     0.243   0.757   0.5659
N94     N     0.965   0.6998   0.5
N95     N     0.3002   0.035   0.5
B96     B     0.2877   0.5754   0.3252
B97     B     0.4246   0.7123   0.3252
B98     B     0.2877   0.7123   0.3252
Li99     Li     0.4704   0.6667   0.2178
Li100     Li     0.3333   0.5296   0.2178
Li101     Li     0.1962   0.5296   0.2178
Li102     Li     0.3333   0.8038   0.2178
Li103     Li     0.4704   0.8038   0.2178
Li104     Li     0.1962   0.6667   0.2178
S105     S     0.9464   0.6688   0.252
He106     He     0.0627   0.6654   0.1853
Ti107     Ti     0.9957   0.7454   0.1372
V108     V     0.9146   0.5875   0.1392
Er109     Er     0.5296   0.3333   0.066
Er110     Er     0.5296   0.3333   0.934
Er111     Er     0.5296   0.1963   0.066
Er112     Er     0.5296   0.1963   0.934
Er113     Er     0.6667   0.4704   0.066
Er114     Er     0.6667   0.4704   0.934
Er115     Er     0.8037   0.4704   0.066
Er116     Er     0.8037   0.4704   0.934
Er117     Er     0.6667   0.1963   0.066
Er118     Er     0.6667   0.1963   0.934
Er119     Er     0.8037   0.3333   0.066
Er120     Er     0.8037   0.3333   0.934
loop_
_geom_bond_atom_site_label_1
_geom_bond_atom_site_label_2
_geom_bond_distance
_geom_bond_site_symmetry_2
_ccdc_geom_bond_type
Ce1     Ce2    9.996   1_554     S
Ce1     Ce4    10.004   1_655     S
Ce1     Ce6    10.004   1_565     S
Ce1     Ti35    10.008   .     S
Ce2     Ce1    9.996   1_556     S
Ce2     Ce3    10.004   1_655     S
Ce2     Ce5    10.004   1_565     S
Ce2     Ti15    10.008   .     S
Ce3     Ce4    9.996   1_556     S
Ce3     Ce2    10.004   1_455     S
Ce3     Ce11    10.004   1_565     S
Ce3     Ti43    10.008   1_455     S
Ce4     Ce3    9.996   1_554     S
Ce4     Ce1    10.004   1_455     S
Ce4     Ce12    10.004   1_565     S
Ce4     Ti107    10.008   1_455     S
Ce5     Ce6    9.996   1_556     S
Ce5     Ce2    10.004   1_545     S
Ce5     Ce8    10.004   1_655     S
Ce5     Ti19    10.008   .     S
Ce6     Ce5    9.996   1_554     S
Ce6     Ce1    10.004   1_545     S
Ce6     Ce7    10.004   1_655     S
Ce6     Ti39    10.008   .     S
Ce7     Ce8    9.996   1_554     S
Ce7     Ce6    10.004   1_455     S
Ce7     Ce10    10.004   .     S
Ce7     Ti55    10.008   1_455     S
Ce8     Ce7    9.996   1_556     S
Ce8     Ce5    10.004   1_455     S
Ce8     Ce9    10.004   .     S
Ce8     Ti31    10.008   1_455     S
Ce9     Ce10    9.996   1_556     S
Ce9     Ce11    10.004   .     S
Ce9     Ti27    10.008   .     S
Ce10     Ce9    9.996   1_554     S
Ce10     Ce12    10.004   .     S
Ce10     Ti49    10.008   .     S
Ce11     Ce12    9.996   1_556     S
Ce11     Ce3    10.004   1_545     S
Ce11     Ti23    10.008   .     S
Ce12     Ce11    9.996   1_554     S
Ce12     Ce4    10.004   1_545     S
Ce12     Ti47    10.008   .     S
S13     He14    9.99   .     S
S13     V16    9.996   .     S
S13     Ti15    9.992   .     S
S13     H66    10.007   .     S
He14     V16    9.999   .     S
He14     Ti15    9.998   .     S
He14     Li84    10.013   .     S
Ti15     V16    9.99   .     S
V16     Er114    10.011   .     S
S17     He18    9.99   1_545     S
S17     V20    9.996   .     S
S17     Ti19    9.992   .     S
S17     H67    10.007   .     S
He18     S17    9.99   1_565     S
He18     V20    9.999   1_565     S
He18     Ti19    9.998   1_565     S
He18     Li88    10.013   .     S
Ti19     He18    9.998   1_545     S
Ti19     V20    9.99   .     S
V20     He18    9.999   1_545     S
V20     Er118    10.011   .     S
S21     He22    9.99   1_545     S
S21     V24    9.996   .     S
S21     Ti23    9.992   .     S
S21     H61    10.007   .     S
He22     S21    9.99   1_565     S
He22     V24    9.999   1_565     S
He22     Ti23    9.998   1_565     S
He22     Li86    10.013   .     S
Ti23     He22    9.998   1_545     S
Ti23     V24    9.99   .     S
V24     He22    9.999   1_545     S
V24     Er112    10.011   .     S
S25     He26    9.99   .     S
S25     V28    9.996   .     S
S25     Ti27    9.992   .     S
S25     H62    10.007   .     S
He26     V28    9.999   .     S
He26     Ti27    9.998   .     S
He26     Li85    10.013   .     S
Ti27     V28    9.99   .     S
V28     Er110    10.011   .     S
S29     He30    9.99   1_655     S
S29     V32    9.996   .     S
S29     Ti31    9.992   .     S
S29     H68    10.007   .     S
He30     S29    9.99   1_455     S
He30     V32    9.999   1_455     S
He30     Ti31    9.998   1_455     S
He30     Li87    10.013   .     S
Ti31     He30    9.998   1_655     S
Ti31     V32    9.99   .     S
Ti31     Ce8    10.008   1_655     S
V32     He30    9.999   1_655     S
V32     Er120    10.011   .     S
S33     He34    9.99   .     S
S33     V36    9.996   .     S
S33     Ti35    9.992   .     S
S33     H60    10.007   .     S
He34     V36    9.999   .     S
He34     Ti35    9.998   .     S
He34     Li99    10.013   .     S
Ti35     V36    9.99   .     S
V36     Er113    10.011   .     S
S37     He38    9.99   1_545     S
S37     V40    9.996   .     S
S37     Ti39    9.992   .     S
S37     H63    10.007   .     S
He38     S37    9.99   1_565     S
He38     V40    9.999   1_565     S
He38     Ti39    9.998   1_565     S
He38     Li103    10.013   .     S
Ti39     He38    9.998   1_545     S
Ti39     V40    9.99   .     S
V40     He38    9.999   1_545     S
V40     Er117    10.011   .     S
S41     He42    9.99   1_655     S
S41     V44    9.996   .     S
S41     Ti43    9.992   .     S
S41     H65    10.007   .     S
He42     S41    9.99   1_455     S
He42     V44    9.999   1_455     S
He42     Ti43    9.998   1_455     S
He42     Li89    10.013   .     S
Ti43     He42    9.998   1_655     S
Ti43     V44    9.99   .     S
Ti43     Ce3    10.008   1_655     S
V44     He42    9.999   1_655     S
V44     Er116    10.011   .     S
S45     He46    9.99   1_545     S
S45     V48    9.996   .     S
S45     Ti47    9.992   .     S
S45     H57    10.007   .     S
He46     S45    9.99   1_565     S
He46     V48    9.999   1_565     S
He46     Ti47    9.998   1_565     S
He46     Li102    10.013   .     S
Ti47     He46    9.998   1_545     S
Ti47     V48    9.99   .     S
V48     He46    9.999   1_545     S
V48     Er111    10.011   .     S
Ti49     V50    9.99   .     S
Ti49     S51    9.992   .     S
Ti49     He52    9.998   .     S
V50     S51    9.996   .     S
V50     He52    9.999   .     S
V50     Er109    10.011   .     S
S51     He52    9.99   .     S
S51     H58    10.007   .     S
He52     Li100    10.013   .     S
S53     He54    9.99   1_655     S
S53     V56    9.996   .     S
S53     Ti55    9.992   .     S
S53     H64    10.007   .     S
He54     S53    9.99   1_455     S
He54     V56    9.999   1_455     S
He54     Ti55    9.998   1_455     S
He54     Li101    10.013   .     S
Ti55     He54    9.998   1_655     S
Ti55     V56    9.99   .     S
Ti55     Ce7    10.008   1_655     S
V56     He54    9.999   1_655     S
V56     Er119    10.011   .     S
H57     H58    9.996   .     S
H57     N95    10.005   .     S
H58     N73    10.005   .     S
H59     H60    9.996   .     S
H59     N94    10.005   .     S
H59     S105    10.007   .     S
H60     N75    10.005   .     S
H61     H62    9.996   .     S
H61     N95    10.005   .     S
H62     N73    10.005   .     S
H63     H64    9.996   .     S
H63     N80    10.005   .     S
H64     N74    10.005   .     S
H65     H66    9.996   .     S
H65     N94    10.005   .     S
H66     N75    10.005   .     S
H67     H68    9.996   .     S
H67     N80    10.005   .     S
H68     N74    10.005   .     S
C69     Be72    9.991   .     S
C69     C70    9.987   .     S
C69     Be71    9.991   .     S
C69     N73    9.999   .     S
C70     Be72    9.991   .     S
C70     Be71    9.991   .     S
C70     N74    9.999   1_455     S
Be71     Be72    9.992   .     S
Be71     B96    10.002   .     S
Be72     B81    10.002   .     S
N74     C70    9.999   1_655     S
N75     C76    9.999   .     S
C76     Be79    9.991   .     S
C76     C77    9.987   .     S
C76     Be78    9.991   .     S
C77     Be79    9.991   .     S
C77     Be78    9.991   .     S
C77     N80    9.999   1_565     S
Be78     Be79    9.992   .     S
Be78     B97    10.002   .     S
Be79     B82    10.002   .     S
N80     C77    9.999   1_545     S
B81     B83    9.991   .     S
B81     B82    9.991   .     S
B81     Li87    9.991   .     S
B81     Li85    9.991   .     S
B82     B83    9.991   .     S
B82     Li88    9.991   .     S
B82     Li84    9.991   .     S
B83     Li86    9.991   .     S
B83     Li89    9.991   .     S
B83     Be93    10.002   .     S
Li84     Li85    10.011   .     S
Li84     Li88    10.01   .     S
Li85     Li87    10.01   .     S
Li86     Li88    10.011   .     S
Li86     Li89    10.01   .     S
Li87     Li89    10.011   .     S
C90     Be92    9.991   .     S
C90     C91    9.987   .     S
C90     Be93    9.991   .     S
C90     N95    9.999   1_565     S
C91     Be92    9.991   .     S
C91     Be93    9.991   .     S
C91     N94    9.999   1_455     S
Be92     Be93    9.992   .     S
Be92     B98    10.002   .     S
N94     C91    9.999   1_655     S
N95     C90    9.999   1_545     S
B96     B98    9.991   .     S
B96     B97    9.991   .     S
B96     Li101    9.991   .     S
B96     Li100    9.991   .     S
B97     B98    9.991   .     S
B97     Li103    9.991   .     S
B97     Li99    9.991   .     S
B98     Li102    9.991   .     S
B98     Li104    9.991   .     S
Li99     Li100    10.011   .     S
Li99     Li103    10.01   .     S
Li100     Li101    10.01   .     S
Li101     Li104    10.011   .     S
Li102     Li103    10.011   .     S
Li102     Li104    10.01   .     S
Li104     He106    10.013   .     S
S105     He106    9.99   1_655     S
S105     V108    9.996   .     S
S105     Ti107    9.992   .     S
He106     S105    9.99   1_455     S
He106     V108    9.999   1_455     S
He106     Ti107    9.998   1_455     S
Ti107     He106    9.998   1_655     S
Ti107     V108    9.99   .     S
Ti107     Ce4    10.008   1_655     S
V108     He106    9.999   1_655     S
V108     Er115    10.011   .     S
Er109     Er110    9.999   1_554     S
Er109     Er111    10.006   .     S
Er109     Er113    10.007   .     S
Er110     Er109    9.999   1_556     S
Er110     Er112    10.006   .     S
Er110     Er114    10.007   .     S
Er111     Er112    9.999   1_554     S
Er111     Er117    10.007   .     S
Er112     Er111    9.999   1_556     S
Er112     Er118    10.007   .     S
Er113     Er114    9.999   1_554     S
Er113     Er115    10.006   .     S
Er114     Er113    9.999   1_556     S
Er114     Er116    10.006   .     S
Er115     Er116    9.999   1_554     S
Er115     Er119    10.007   .     S
Er116     Er115    9.999   1_556     S
Er116     Er120    10.007   .     S
Er117     Er118    9.999   1_554     S
Er117     Er119    10.006   .     S
Er118     Er117    9.999   1_556     S
Er118     Er120    10.006   .     S
Er119     Er120    9.999   1_554     S
Er120     Er119    9.999   1_556     S
