data_kew
_audit_creation_date              2020-02-04
_audit_creation_method            'Pymatgen'
_symmetry_space_group_name_H-M    'P1'
_symmetry_Int_Tables_number       1
loop_
_symmetry_equiv_pos_as_xyz
  x,y,z
_cell_length_a                    28.9382
_cell_length_b                    28.9382
_cell_length_c                    14.8398
_cell_angle_alpha                 90.0
_cell_angle_beta                 90.0
_cell_angle_gamma                 120.0
loop_
_atom_site_label
_atom_site_type_symbol
_atom_site_fract_x
_atom_site_fract_y
_atom_site_fract_z
Ti1     Ti     0.8002   0.1998   0.5
Ti2     Ti     0.8002   0.6004   0.5
V3     V     0.6667   0.3333   0.0
Ti4     Ti     0.3996   0.1998   0.5
V5     V     0.3333   0.6667   0.0
Ti6     Ti     0.1998   0.8002   0.5
Ti7     Ti     0.6004   0.8002   0.5
Ti8     Ti     0.1998   0.3996   0.5
Er9     Er     0.0   0.0   0.5
loop_
_geom_bond_atom_site_label_1
_geom_bond_atom_site_label_2
_geom_bond_distance
_geom_bond_site_symmetry_2
_ccdc_geom_bond_type
Ti1     V3    9.993   1_556     S
Ti1     V3    9.993   .     S
Ti1     Er9    10.013   1_655     S
Ti2     V3    9.993   .     S
Ti2     V3    9.993   1_556     S
Ti2     Er9    10.013   1_665     S
V3     Ti1    9.993   1_554     S
V3     Ti4    9.993   1_554     S
V3     Ti4    9.993   .     S
V3     Ti2    9.993   1_554     S
Ti4     V3    9.993   1_556     S
Ti4     Er9    10.013   .     S
V5     Ti6    9.993   .     S
V5     Ti6    9.993   1_554     S
V5     Ti7    9.993   .     S
V5     Ti7    9.993   1_554     S
V5     Ti8    9.993   1_554     S
V5     Ti8    9.993   .     S
Ti6     V5    9.993   1_556     S
Ti6     Er9    10.013   1_565     S
Ti7     V5    9.993   1_556     S
Ti7     Er9    10.013   1_665     S
Ti8     V5    9.993   1_556     S
Ti8     Er9    10.013   .     S
Er9     Ti2    10.013   1_445     S
Er9     Ti1    10.013   1_455     S
Er9     Ti6    10.013   1_545     S
Er9     Ti7    10.013   1_445     S
