data_kfi
_audit_creation_date              2020-02-04
_audit_creation_method            'Pymatgen'
_symmetry_space_group_name_H-M    'P1'
_symmetry_Int_Tables_number       1
loop_
_symmetry_equiv_pos_as_xyz
  x,y,z
_cell_length_a                    59.8314
_cell_length_b                    59.8314
_cell_length_c                    59.8314
_cell_angle_alpha                 90.0
_cell_angle_beta                 90.0
_cell_angle_gamma                 90.0
loop_
_atom_site_label
_atom_site_type_symbol
_atom_site_fract_x
_atom_site_fract_y
_atom_site_fract_z
V1     V     0.8199   0.4164   0.7018
V2     V     0.9164   0.3199   0.7982
V3     V     0.7018   0.4164   0.8199
V4     V     0.7982   0.3199   0.9164
V5     V     0.5836   0.2982   0.8199
V6     V     0.6801   0.2018   0.9164
V7     V     0.8199   0.2982   0.5836
V8     V     0.9164   0.2018   0.6801
V9     V     0.5836   0.1801   0.7018
V10     V     0.6801   0.0836   0.7982
V11     V     0.7018   0.1801   0.5836
V12     V     0.7982   0.0836   0.6801
V13     V     0.2018   0.0836   0.6801
V14     V     0.2982   0.1801   0.5836
V15     V     0.0836   0.2018   0.6801
V16     V     0.1801   0.2982   0.5836
V17     V     0.2982   0.4164   0.8199
V18     V     0.2018   0.3199   0.9164
V19     V     0.1801   0.4164   0.7018
V20     V     0.0836   0.3199   0.7982
V21     V     0.4164   0.2982   0.8199
V22     V     0.3199   0.2018   0.9164
V23     V     0.4164   0.1801   0.7018
V24     V     0.3199   0.0836   0.7982
V25     V     0.7018   0.8199   0.5836
V26     V     0.7982   0.9164   0.6801
V27     V     0.8199   0.7018   0.5836
V28     V     0.9164   0.7982   0.6801
V29     V     0.5836   0.8199   0.7018
V30     V     0.6801   0.9164   0.7982
V31     V     0.5836   0.7018   0.8199
V32     V     0.6801   0.7982   0.9164
V33     V     0.7018   0.5836   0.8199
V34     V     0.7982   0.6801   0.9164
V35     V     0.8199   0.5836   0.7018
V36     V     0.9164   0.6801   0.7982
V37     V     0.4164   0.7018   0.8199
V38     V     0.3199   0.7982   0.9164
V39     V     0.4164   0.8199   0.7018
V40     V     0.3199   0.9164   0.7982
V41     V     0.2982   0.8199   0.5836
V42     V     0.2018   0.9164   0.6801
V43     V     0.2982   0.5836   0.8199
V44     V     0.2018   0.6801   0.9164
V45     V     0.1801   0.7018   0.5836
V46     V     0.0836   0.7982   0.6801
V47     V     0.1801   0.5836   0.7018
V48     V     0.0836   0.6801   0.7982
V49     V     0.8199   0.2982   0.4164
V50     V     0.9164   0.2018   0.3199
V51     V     0.7018   0.1801   0.4164
V52     V     0.7982   0.0836   0.3199
V53     V     0.6801   0.0836   0.2018
V54     V     0.5836   0.1801   0.2982
V55     V     0.6801   0.2018   0.0836
V56     V     0.5836   0.2982   0.1801
V57     V     0.8199   0.4164   0.2982
V58     V     0.9164   0.3199   0.2018
V59     V     0.7018   0.4164   0.1801
V60     V     0.7982   0.3199   0.0836
V61     V     0.7018   0.8199   0.4164
V62     V     0.7982   0.9164   0.3199
V63     V     0.8199   0.7018   0.4164
V64     V     0.9164   0.7982   0.3199
V65     V     0.8199   0.5836   0.2982
V66     V     0.9164   0.6801   0.2018
V67     V     0.5836   0.8199   0.2982
V68     V     0.6801   0.9164   0.2018
V69     V     0.7018   0.5836   0.1801
V70     V     0.7982   0.6801   0.0836
V71     V     0.5836   0.7018   0.1801
V72     V     0.6801   0.7982   0.0836
V73     V     0.0836   0.3199   0.2018
V74     V     0.1801   0.4164   0.2982
V75     V     0.2018   0.3199   0.0836
V76     V     0.2982   0.4164   0.1801
V77     V     0.3199   0.2018   0.0836
V78     V     0.4164   0.2982   0.1801
V79     V     0.3199   0.0836   0.2018
V80     V     0.4164   0.1801   0.2982
V81     V     0.2018   0.0836   0.3199
V82     V     0.2982   0.1801   0.4164
V83     V     0.0836   0.2018   0.3199
V84     V     0.1801   0.2982   0.4164
V85     V     0.4164   0.8199   0.2982
V86     V     0.3199   0.9164   0.2018
V87     V     0.4164   0.7018   0.1801
V88     V     0.3199   0.7982   0.0836
V89     V     0.2018   0.6801   0.0836
V90     V     0.2982   0.5836   0.1801
V91     V     0.0836   0.6801   0.2018
V92     V     0.1801   0.5836   0.2982
V93     V     0.2982   0.8199   0.4164
V94     V     0.2018   0.9164   0.3199
V95     V     0.1801   0.7018   0.4164
V96     V     0.0836   0.7982   0.3199
loop_
_geom_bond_atom_site_label_1
_geom_bond_atom_site_label_2
_geom_bond_distance
_geom_bond_site_symmetry_2
_ccdc_geom_bond_type
V1     V2    10.0   .     S
V1     V7    10.0   .     S
V1     V35    10.0   .     S
V1     V3    10.001   .     S
V2     V4    10.0   .     S
V2     V20    10.0   1_655     S
V2     V8    10.001   .     S
V3     V4    10.0   .     S
V3     V5    10.0   .     S
V3     V33    10.0   .     S
V4     V60    10.0   1_556     S
V4     V6    10.001   .     S
V5     V6    10.0   .     S
V5     V21    10.0   .     S
V5     V9    10.001   .     S
V6     V10    10.0   .     S
V6     V55    10.0   1_556     S
V7     V8    10.0   .     S
V7     V49    10.0   .     S
V7     V11    10.001   .     S
V8     V12    10.0   .     S
V8     V15    10.0   1_655     S
V9     V10    10.0   .     S
V9     V11    10.0   .     S
V9     V23    10.0   .     S
V10     V30    10.0   1_545     S
V10     V12    10.001   .     S
V11     V12    10.0   .     S
V11     V51    10.0   .     S
V12     V26    10.0   1_545     S
V13     V14    10.0   .     S
V13     V15    10.0   .     S
V13     V42    10.0   1_545     S
V13     V24    10.001   .     S
V14     V23    10.0   .     S
V14     V82    10.0   .     S
V14     V16    10.001   .     S
V15     V16    10.0   .     S
V15     V8    10.0   1_455     S
V15     V20    10.001   .     S
V16     V19    10.0   .     S
V16     V84    10.0   .     S
V17     V18    10.0   .     S
V17     V21    10.0   .     S
V17     V43    10.0   .     S
V17     V19    10.001   .     S
V18     V20    10.0   .     S
V18     V75    10.0   1_556     S
V18     V22    10.001   .     S
V19     V20    10.0   .     S
V19     V47    10.0   .     S
V20     V2    10.0   1_455     S
V21     V22    10.0   .     S
V21     V23    10.001   .     S
V22     V24    10.0   .     S
V22     V77    10.0   1_556     S
V23     V24    10.0   .     S
V24     V40    10.0   1_545     S
V25     V26    10.0   .     S
V25     V29    10.0   .     S
V25     V61    10.0   .     S
V25     V27    10.001   .     S
V26     V12    10.0   1_565     S
V26     V28    10.0   .     S
V26     V30    10.001   .     S
V27     V28    10.0   .     S
V27     V35    10.0   .     S
V27     V63    10.0   .     S
V28     V46    10.0   1_655     S
V28     V36    10.001   .     S
V29     V30    10.0   .     S
V29     V39    10.0   .     S
V29     V31    10.001   .     S
V30     V10    10.0   1_565     S
V30     V32    10.0   .     S
V31     V32    10.0   .     S
V31     V33    10.0   .     S
V31     V37    10.0   .     S
V32     V72    10.0   1_556     S
V32     V34    10.001   .     S
V33     V34    10.0   .     S
V33     V35    10.001   .     S
V34     V36    10.0   .     S
V34     V70    10.0   1_556     S
V35     V36    10.0   .     S
V36     V48    10.0   1_655     S
V37     V38    10.0   .     S
V37     V43    10.0   .     S
V37     V39    10.001   .     S
V38     V40    10.0   .     S
V38     V88    10.0   1_556     S
V38     V44    10.001   .     S
V39     V40    10.0   .     S
V39     V41    10.0   .     S
V40     V24    10.0   1_565     S
V40     V42    10.001   .     S
V41     V42    10.0   .     S
V41     V93    10.0   .     S
V41     V45    10.001   .     S
V42     V13    10.0   1_565     S
V42     V46    10.0   .     S
V43     V44    10.0   .     S
V43     V47    10.001   .     S
V44     V48    10.0   .     S
V44     V89    10.0   1_556     S
V45     V46    10.0   .     S
V45     V47    10.0   .     S
V45     V95    10.0   .     S
V46     V28    10.0   1_455     S
V46     V48    10.001   .     S
V47     V48    10.0   .     S
V48     V36    10.0   1_455     S
V49     V50    10.0   .     S
V49     V57    10.0   .     S
V49     V51    10.001   .     S
V50     V52    10.0   .     S
V50     V83    10.0   1_655     S
V50     V58    10.001   .     S
V51     V52    10.0   .     S
V51     V54    10.0   .     S
V52     V62    10.0   1_545     S
V52     V53    10.001   .     S
V53     V54    10.0   .     S
V53     V55    10.0   .     S
V53     V68    10.0   1_545     S
V54     V80    10.0   .     S
V54     V56    10.001   .     S
V55     V56    10.0   .     S
V55     V6    10.0   1_554     S
V55     V60    10.001   .     S
V56     V59    10.0   .     S
V56     V78    10.0   .     S
V57     V58    10.0   .     S
V57     V65    10.0   .     S
V57     V59    10.001   .     S
V58     V60    10.0   .     S
V58     V73    10.0   1_655     S
V59     V60    10.0   .     S
V59     V69    10.0   .     S
V60     V4    10.0   1_554     S
V61     V62    10.0   .     S
V61     V67    10.0   .     S
V61     V63    10.001   .     S
V62     V52    10.0   1_565     S
V62     V64    10.0   .     S
V62     V68    10.001   .     S
V63     V64    10.0   .     S
V63     V65    10.0   .     S
V64     V96    10.0   1_655     S
V64     V66    10.001   .     S
V65     V66    10.0   .     S
V65     V69    10.001   .     S
V66     V70    10.0   .     S
V66     V91    10.0   1_655     S
V67     V68    10.0   .     S
V67     V85    10.0   .     S
V67     V71    10.001   .     S
V68     V53    10.0   1_565     S
V68     V72    10.0   .     S
V69     V70    10.0   .     S
V69     V71    10.0   .     S
V70     V34    10.0   1_554     S
V70     V72    10.001   .     S
V71     V72    10.0   .     S
V71     V87    10.0   .     S
V72     V32    10.0   1_554     S
V73     V74    10.0   .     S
V73     V75    10.0   .     S
V73     V58    10.0   1_455     S
V73     V83    10.001   .     S
V74     V84    10.0   .     S
V74     V92    10.0   .     S
V74     V76    10.001   .     S
V75     V76    10.0   .     S
V75     V18    10.0   1_554     S
V75     V77    10.001   .     S
V76     V78    10.0   .     S
V76     V90    10.0   .     S
V77     V78    10.0   .     S
V77     V79    10.0   .     S
V77     V22    10.0   1_554     S
V78     V80    10.001   .     S
V79     V80    10.0   .     S
V79     V86    10.0   1_545     S
V79     V81    10.001   .     S
V80     V82    10.0   .     S
V81     V82    10.0   .     S
V81     V83    10.0   .     S
V81     V94    10.0   1_545     S
V82     V84    10.001   .     S
V83     V84    10.0   .     S
V83     V50    10.0   1_455     S
V85     V86    10.0   .     S
V85     V93    10.0   .     S
V85     V87    10.001   .     S
V86     V79    10.0   1_565     S
V86     V88    10.0   .     S
V86     V94    10.001   .     S
V87     V88    10.0   .     S
V87     V90    10.0   .     S
V88     V38    10.0   1_554     S
V88     V89    10.001   .     S
V89     V90    10.0   .     S
V89     V91    10.0   .     S
V89     V44    10.0   1_554     S
V90     V92    10.001   .     S
V91     V92    10.0   .     S
V91     V66    10.0   1_455     S
V91     V96    10.001   .     S
V92     V95    10.0   .     S
V93     V94    10.0   .     S
V93     V95    10.001   .     S
V94     V81    10.0   1_565     S
V94     V96    10.0   .     S
V95     V96    10.0   .     S
V96     V64    10.0   1_455     S
