data_kfo
_audit_creation_date              2020-02-04
_audit_creation_method            'Pymatgen'
_symmetry_space_group_name_H-M    'P1'
_symmetry_Int_Tables_number       1
loop_
_symmetry_equiv_pos_as_xyz
  x,y,z
_cell_length_a                    27.3927
_cell_length_b                    27.3927
_cell_length_c                    27.3927
_cell_angle_alpha                 90.0
_cell_angle_beta                 90.0
_cell_angle_gamma                 90.0
loop_
_atom_site_label
_atom_site_type_symbol
_atom_site_fract_x
_atom_site_fract_y
_atom_site_fract_z
V1     V     0.5   0.25   0.75
V2     V     0.25   0.5   0.75
Er3     Er     0.375   0.375   0.875
V4     V     0.5   0.5   0.0
Er5     Er     0.625   0.625   0.125
V6     V     0.5   0.75   0.25
V7     V     0.25   0.75   0.5
Er8     Er     0.375   0.875   0.375
V9     V     0.5   0.0   0.5
Er10     Er     0.625   0.125   0.625
V11     V     0.25   0.0   0.25
V12     V     0.25   0.25   0.0
V13     V     0.0   0.25   0.25
V14     V     0.0   0.0   0.0
Er15     Er     0.875   0.875   0.875
V16     V     0.75   0.0   0.75
V17     V     0.0   0.75   0.75
V18     V     0.75   0.75   0.0
Er19     Er     0.125   0.125   0.125
V20     V     0.75   0.5   0.25
V21     V     0.75   0.25   0.5
Er22     Er     0.875   0.375   0.375
V23     V     0.0   0.5   0.5
Er24     Er     0.125   0.625   0.625
Ti25     Ti     0.125   0.125   0.625
Ti26     Ti     0.875   0.375   0.875
Ti27     Ti     0.625   0.125   0.125
Ti28     Ti     0.125   0.625   0.125
Ti29     Ti     0.375   0.875   0.875
Ti30     Ti     0.875   0.875   0.375
Ti31     Ti     0.625   0.625   0.625
Ti32     Ti     0.375   0.375   0.375
loop_
_geom_bond_atom_site_label_1
_geom_bond_atom_site_label_2
_geom_bond_distance
_geom_bond_site_symmetry_2
_ccdc_geom_bond_type
V1     Er3    5.931   .     S
V1     Er10    5.931   .     S
V1     Ti31    11.356   .     S
V1     Ti29    11.356   1_545     S
V1     Ti27    11.356   1_556     S
V1     Ti26    11.356   .     S
V1     Ti25    11.356   .     S
V1     Ti32    11.356   .     S
V2     Er3    5.931   .     S
V2     Er24    5.931   .     S
V2     Ti31    11.356   .     S
V2     Ti29    11.356   .     S
V2     Ti28    11.356   1_556     S
V2     Ti26    11.356   1_455     S
V2     Ti25    11.356   .     S
V2     Ti32    11.356   .     S
Er3     V4    5.931   1_556     S
Er3     V12    5.931   1_556     S
V4     Er3    5.931   1_554     S
V4     Er5    5.931   .     S
V4     Ti31    11.356   1_554     S
V4     Ti29    11.356   1_554     S
V4     Ti28    11.356   .     S
V4     Ti27    11.356   .     S
V4     Ti26    11.356   1_554     S
V4     Ti32    11.356   .     S
Er5     V18    5.931   .     S
Er5     V6    5.931   .     S
Er5     V20    5.931   .     S
V6     Er8    5.931   .     S
V6     Ti31    11.356   .     S
V6     Ti30    11.356   .     S
V6     Ti29    11.356   1_554     S
V6     Ti28    11.356   .     S
V6     Ti27    11.356   1_565     S
V6     Ti32    11.356   .     S
V7     Er8    5.931   .     S
V7     Er24    5.931   .     S
V7     Ti31    11.356   .     S
V7     Ti30    11.356   1_455     S
V7     Ti29    11.356   .     S
V7     Ti28    11.356   .     S
V7     Ti25    11.356   1_565     S
V7     Ti32    11.356   .     S
Er8     V9    5.931   1_565     S
Er8     V11    5.931   1_565     S
V9     Er8    5.931   1_545     S
V9     Er10    5.931   .     S
V9     Ti31    11.356   1_545     S
V9     Ti30    11.356   1_545     S
V9     Ti29    11.356   1_545     S
V9     Ti27    11.356   .     S
V9     Ti25    11.356   .     S
V9     Ti32    11.356   .     S
Er10     V16    5.931   .     S
Er10     V21    5.931   .     S
V11     Er8    5.931   1_545     S
V11     Er19    5.931   .     S
V11     Ti30    11.356   1_445     S
V11     Ti29    11.356   1_544     S
V11     Ti28    11.356   1_545     S
V11     Ti27    11.356   .     S
V11     Ti25    11.356   .     S
V11     Ti32    11.356   .     S
V12     Er3    5.931   1_554     S
V12     Er19    5.931   .     S
V12     Ti29    11.356   1_544     S
V12     Ti28    11.356   .     S
V12     Ti27    11.356   .     S
V12     Ti26    11.356   1_454     S
V12     Ti25    11.356   1_554     S
V12     Ti32    11.356   .     S
V13     Er22    5.931   1_455     S
V13     Er19    5.931   .     S
V13     Ti30    11.356   1_445     S
V13     Ti28    11.356   .     S
V13     Ti27    11.356   1_455     S
V13     Ti26    11.356   1_454     S
V13     Ti25    11.356   .     S
V13     Ti32    11.356   .     S
V14     Er15    5.931   1_444     S
V14     Er19    5.931   .     S
V14     Ti30    11.356   1_445     S
V14     Ti29    11.356   1_544     S
V14     Ti28    11.356   1_545     S
V14     Ti27    11.356   1_455     S
V14     Ti26    11.356   1_454     S
V14     Ti25    11.356   1_554     S
Er15     V14    5.931   1_666     S
Er15     V16    5.931   1_565     S
Er15     V17    5.931   1_655     S
Er15     V18    5.931   1_556     S
V16     Er15    5.931   1_545     S
V16     Ti31    11.356   1_545     S
V16     Ti30    11.356   1_545     S
V16     Ti29    11.356   1_545     S
V16     Ti27    11.356   1_556     S
V16     Ti26    11.356   .     S
V16     Ti25    11.356   1_655     S
V17     Er15    5.931   1_455     S
V17     Er24    5.931   .     S
V17     Ti31    11.356   1_455     S
V17     Ti30    11.356   1_455     S
V17     Ti29    11.356   .     S
V17     Ti28    11.356   1_556     S
V17     Ti26    11.356   1_455     S
V17     Ti25    11.356   1_565     S
V18     Er15    5.931   1_554     S
V18     Ti31    11.356   1_554     S
V18     Ti30    11.356   .     S
V18     Ti29    11.356   1_554     S
V18     Ti28    11.356   1_655     S
V18     Ti27    11.356   1_565     S
V18     Ti26    11.356   1_554     S
V20     Er22    5.931   .     S
V20     Ti31    11.356   .     S
V20     Ti30    11.356   .     S
V20     Ti28    11.356   1_655     S
V20     Ti27    11.356   .     S
V20     Ti26    11.356   1_554     S
V20     Ti32    11.356   .     S
V21     Er22    5.931   .     S
V21     Ti31    11.356   .     S
V21     Ti30    11.356   1_545     S
V21     Ti27    11.356   .     S
V21     Ti26    11.356   .     S
V21     Ti25    11.356   1_655     S
V21     Ti32    11.356   .     S
Er22     V13    5.931   1_655     S
Er22     V23    5.931   1_655     S
V23     Er22    5.931   1_455     S
V23     Er24    5.931   .     S
V23     Ti31    11.356   1_455     S
V23     Ti30    11.356   1_455     S
V23     Ti28    11.356   .     S
V23     Ti26    11.356   1_455     S
V23     Ti25    11.356   .     S
V23     Ti32    11.356   .     S
Ti25     V7    11.356   1_545     S
Ti25     V16    11.356   1_455     S
Ti25     V17    11.356   1_545     S
Ti25     V21    11.356   1_455     S
Ti25     V14    11.356   1_556     S
Ti25     V12    11.356   1_556     S
Ti26     V4    11.356   1_556     S
Ti26     V23    11.356   1_655     S
Ti26     V14    11.356   1_656     S
Ti26     V13    11.356   1_656     S
Ti26     V12    11.356   1_656     S
Ti26     V18    11.356   1_556     S
Ti26     V20    11.356   1_556     S
Ti26     V17    11.356   1_655     S
Ti26     V2    11.356   1_655     S
Ti27     V1    11.356   1_554     S
Ti27     V16    11.356   1_554     S
Ti27     V18    11.356   1_545     S
Ti27     V6    11.356   1_545     S
Ti27     V14    11.356   1_655     S
Ti27     V13    11.356   1_655     S
Ti28     V2    11.356   1_554     S
Ti28     V17    11.356   1_554     S
Ti28     V18    11.356   1_455     S
Ti28     V20    11.356   1_455     S
Ti28     V14    11.356   1_565     S
Ti28     V11    11.356   1_565     S
Ti29     V4    11.356   1_556     S
Ti29     V9    11.356   1_565     S
Ti29     V14    11.356   1_566     S
Ti29     V11    11.356   1_566     S
Ti29     V12    11.356   1_566     S
Ti29     V1    11.356   1_565     S
Ti29     V16    11.356   1_565     S
Ti29     V18    11.356   1_556     S
Ti29     V6    11.356   1_556     S
Ti30     V9    11.356   1_565     S
Ti30     V23    11.356   1_655     S
Ti30     V7    11.356   1_655     S
Ti30     V17    11.356   1_655     S
Ti30     V16    11.356   1_565     S
Ti30     V21    11.356   1_565     S
Ti30     V14    11.356   1_665     S
Ti30     V13    11.356   1_665     S
Ti30     V11    11.356   1_665     S
Ti31     V18    11.356   1_556     S
Ti31     V4    11.356   1_556     S
Ti31     V9    11.356   1_565     S
Ti31     V16    11.356   1_565     S
Ti31     V23    11.356   1_655     S
Ti31     V17    11.356   1_655     S
