data_kgi
_audit_creation_date              2020-02-04
_audit_creation_method            'Pymatgen'
_symmetry_space_group_name_H-M    'P1'
_symmetry_Int_Tables_number       1
loop_
_symmetry_equiv_pos_as_xyz
  x,y,z
_cell_length_a                    59.9684
_cell_length_b                    59.9684
_cell_length_c                    59.9684
_cell_angle_alpha                 90.0
_cell_angle_beta                 90.0
_cell_angle_gamma                 90.0
loop_
_atom_site_label
_atom_site_type_symbol
_atom_site_fract_x
_atom_site_fract_y
_atom_site_fract_z
V1     V     0.9026   0.7031   0.6939
V2     V     0.9439   0.5469   0.6526
V3     V     0.0561   0.9531   0.6526
V4     V     0.0974   0.7969   0.6939
Ti5     Ti     0.0515   0.6844   0.6213
Ti6     Ti     0.9485   0.8156   0.6213
Ti7     Ti     0.1287   0.9344   0.8015
Ti8     Ti     0.1287   0.0656   0.6985
V9     V     0.0561   0.0469   0.8474
V10     V     0.0974   0.2031   0.8061
Ti11     Ti     0.0515   0.3156   0.8787
Ti12     Ti     0.9485   0.1844   0.8787
V13     V     0.9026   0.2969   0.8061
V14     V     0.9439   0.4531   0.8474
Ti15     Ti     0.8713   0.5656   0.8015
Ti16     Ti     0.8713   0.4344   0.6985
V17     V     0.6939   0.9026   0.7031
V18     V     0.6526   0.9439   0.5469
V19     V     0.6939   0.0974   0.7969
V20     V     0.6526   0.0561   0.9531
Ti21     Ti     0.6213   0.0515   0.6844
Ti22     Ti     0.6213   0.9485   0.8156
Ti23     Ti     0.8787   0.0515   0.3156
Ti24     Ti     0.8787   0.9485   0.1844
V25     V     0.8474   0.0561   0.0469
V26     V     0.8061   0.0974   0.2031
Ti27     Ti     0.8015   0.1287   0.9344
Ti28     Ti     0.6985   0.1287   0.0656
V29     V     0.8061   0.9026   0.2969
V30     V     0.8474   0.9439   0.4531
Ti31     Ti     0.8015   0.8713   0.5656
Ti32     Ti     0.6985   0.8713   0.4344
Ti33     Ti     0.9344   0.8015   0.1287
Ti34     Ti     0.0656   0.6985   0.1287
V35     V     0.0469   0.8474   0.0561
V36     V     0.2031   0.8061   0.0974
Ti37     Ti     0.3156   0.8787   0.0515
Ti38     Ti     0.1844   0.8787   0.9485
V39     V     0.2969   0.8061   0.9026
V40     V     0.4531   0.8474   0.9439
Ti41     Ti     0.5656   0.8015   0.8713
Ti42     Ti     0.4344   0.6985   0.8713
V43     V     0.7031   0.6939   0.9026
V44     V     0.5469   0.6526   0.9439
V45     V     0.7969   0.6939   0.0974
V46     V     0.9531   0.6526   0.0561
Ti47     Ti     0.6844   0.6213   0.0515
Ti48     Ti     0.8156   0.6213   0.9485
V49     V     0.4439   0.9531   0.3474
V50     V     0.4026   0.7969   0.3061
Ti51     Ti     0.5515   0.8156   0.3787
Ti52     Ti     0.4485   0.6844   0.3787
Ti53     Ti     0.3713   0.0656   0.3015
Ti54     Ti     0.3713   0.9344   0.1985
V55     V     0.4439   0.0469   0.1526
V56     V     0.4026   0.2031   0.1939
Ti57     Ti     0.4485   0.3156   0.1213
Ti58     Ti     0.5515   0.1844   0.1213
V59     V     0.5974   0.7031   0.3061
V60     V     0.5561   0.5469   0.3474
V61     V     0.5974   0.2969   0.1939
V62     V     0.5561   0.4531   0.1526
Ti63     Ti     0.6287   0.4344   0.3015
Ti64     Ti     0.6287   0.5656   0.1985
Ti65     Ti     0.8156   0.3787   0.5515
Ti66     Ti     0.6844   0.3787   0.4485
V67     V     0.7969   0.3061   0.4026
V68     V     0.9531   0.3474   0.4439
Ti69     Ti     0.0656   0.3015   0.3713
Ti70     Ti     0.9344   0.1985   0.3713
V71     V     0.0469   0.1526   0.4439
V72     V     0.2031   0.1939   0.4026
Ti73     Ti     0.1844   0.1213   0.5515
Ti74     Ti     0.3156   0.1213   0.4485
V75     V     0.7031   0.3061   0.5974
V76     V     0.5469   0.3474   0.5561
V77     V     0.2969   0.1939   0.5974
V78     V     0.4531   0.1526   0.5561
Ti79     Ti     0.4344   0.3015   0.6287
Ti80     Ti     0.5656   0.1985   0.6287
Ti81     Ti     0.3015   0.3713   0.0656
Ti82     Ti     0.1985   0.3713   0.9344
V83     V     0.3474   0.4439   0.9531
V84     V     0.3061   0.4026   0.7969
Ti85     Ti     0.3787   0.5515   0.8156
Ti86     Ti     0.3787   0.4485   0.6844
V87     V     0.1526   0.4439   0.0469
V88     V     0.1939   0.4026   0.2031
Ti89     Ti     0.1213   0.4485   0.3156
Ti90     Ti     0.1213   0.5515   0.1844
V91     V     0.1939   0.5974   0.2969
V92     V     0.1526   0.5561   0.4531
V93     V     0.3474   0.5561   0.5469
V94     V     0.3061   0.5974   0.7031
Ti95     Ti     0.3015   0.6287   0.4344
Ti96     Ti     0.1985   0.6287   0.5656
Er97     Er     0.2337   0.7337   0.7663
Er98     Er     0.7663   0.2337   0.7337
Er99     Er     0.7337   0.7663   0.2337
Er100     Er     0.9837   0.0163   0.5163
Er101     Er     0.5163   0.9837   0.0163
Er102     Er     0.5163   0.0163   0.4837
Er103     Er     0.9837   0.9837   0.9837
Er104     Er     0.0163   0.5163   0.9837
Er105     Er     0.0163   0.4837   0.5163
Er106     Er     0.2663   0.2663   0.2663
Er107     Er     0.2663   0.7337   0.2337
Er108     Er     0.2337   0.2663   0.7337
Er109     Er     0.4837   0.5163   0.0163
Er110     Er     0.7337   0.2337   0.2663
Er111     Er     0.7663   0.7663   0.7663
Er112     Er     0.4837   0.4837   0.4837
loop_
_geom_bond_atom_site_label_1
_geom_bond_atom_site_label_2
_geom_bond_distance
_geom_bond_site_symmetry_2
_ccdc_geom_bond_type
V1     V2    9.999   .     S
V1     Ti5    10.0   1_655     S
V1     Er111    10.0   .     S
V2     Ti15    10.0   .     S
V2     Er105    10.0   1_655     S
V3     V4    9.999   .     S
V3     Ti7    10.0   .     S
V3     Er100    10.0   1_465     S
V4     Ti6    10.0   1_455     S
V4     Er97    10.0   .     S
Ti5     Ti6    10.0   1_455     S
Ti5     V1    10.0   1_455     S
Ti5     Ti96    10.0   .     S
Ti6     Ti5    10.0   1_655     S
Ti6     V4    10.0   1_655     S
Ti6     Ti31    10.0   .     S
Ti7     Ti8    10.0   1_565     S
Ti7     Ti38    10.0   .     S
Ti8     Ti7    10.0   1_545     S
Ti8     V9    10.0   .     S
Ti8     Ti73    10.0   .     S
V9     V10    9.999   .     S
V9     Er103    10.0   1_445     S
V10     Ti12    10.0   1_455     S
V10     Er108    10.0   .     S
Ti11     Ti12    10.0   1_455     S
Ti11     V13    10.0   1_455     S
Ti11     Ti82    10.0   .     S
Ti12     Ti11    10.0   1_655     S
Ti12     V10    10.0   1_655     S
Ti12     Ti27    10.0   .     S
V13     Ti11    10.0   1_655     S
V13     V14    9.999   .     S
V13     Er98    10.0   .     S
V14     Ti16    10.0   .     S
V14     Er104    10.0   1_655     S
Ti15     Ti16    10.0   .     S
Ti15     Ti48    10.0   .     S
Ti16     Ti65    10.0   .     S
V17     V18    9.999   .     S
V17     Ti21    10.0   1_565     S
V17     Er111    10.0   .     S
V18     Ti31    10.0   .     S
V18     Er102    10.0   1_565     S
V19     V20    9.999   .     S
V19     Ti22    10.0   1_545     S
V19     Er98    10.0   .     S
V20     Ti27    10.0   .     S
V20     Er101    10.0   1_546     S
Ti21     Ti22    10.0   1_545     S
Ti21     V17    10.0   1_545     S
Ti21     Ti80    10.0   .     S
Ti22     Ti21    10.0   1_565     S
Ti22     V19    10.0   1_565     S
Ti22     Ti41    10.0   .     S
Ti23     Ti24    10.0   1_545     S
Ti23     V29    10.0   1_545     S
Ti23     Ti70    10.0   .     S
Ti24     Ti23    10.0   1_565     S
Ti24     V26    10.0   1_565     S
Ti24     Ti33    10.0   .     S
V25     V26    9.999   .     S
V25     Ti28    10.0   .     S
V25     Er103    10.0   1_544     S
V26     Ti24    10.0   1_545     S
V26     Er110    10.0   .     S
Ti27     Ti28    10.0   1_556     S
Ti28     Ti27    10.0   1_554     S
Ti28     Ti58    10.0   .     S
V29     Ti23    10.0   1_565     S
V29     V30    9.999   .     S
V29     Er99    10.0   .     S
V30     Ti32    10.0   .     S
V30     Er100    10.0   1_565     S
Ti31     Ti32    10.0   .     S
Ti32     Ti51    10.0   .     S
Ti33     Ti34    10.0   1_655     S
Ti33     V46    10.0   .     S
Ti34     Ti33    10.0   1_455     S
Ti34     V35    10.0   .     S
Ti34     Ti90    10.0   .     S
V35     V36    9.999   .     S
V35     Er103    10.0   1_454     S
V36     Ti38    10.0   1_554     S
V36     Er107    10.0   .     S
Ti37     Ti38    10.0   1_554     S
Ti37     V39    10.0   1_554     S
Ti37     Ti54    10.0   .     S
Ti38     Ti37    10.0   1_556     S
Ti38     V36    10.0   1_556     S
V39     Ti37    10.0   1_556     S
V39     V40    9.999   .     S
V39     Er97    10.0   .     S
V40     Ti42    10.0   .     S
V40     Er101    10.0   1_556     S
Ti41     Ti42    10.0   .     S
Ti41     V44    10.0   .     S
Ti42     Ti85    10.0   .     S
V43     V44    9.999   .     S
V43     Ti47    10.0   1_556     S
V43     Er111    10.0   .     S
V44     Er109    10.0   1_556     S
V45     V46    9.999   .     S
V45     Ti48    10.0   1_554     S
V45     Er99    10.0   .     S
V46     Er104    10.0   1_654     S
Ti47     Ti48    10.0   1_554     S
Ti47     V43    10.0   1_554     S
Ti47     Ti64    10.0   .     S
Ti48     Ti47    10.0   1_556     S
Ti48     V45    10.0   1_556     S
V49     V50    9.999   .     S
V49     Ti54    10.0   .     S
V49     Er102    10.0   1_565     S
V50     Ti51    10.0   .     S
V50     Er107    10.0   .     S
Ti51     Ti52    10.0   .     S
Ti52     V59    10.0   .     S
Ti52     Ti95    10.0   .     S
Ti53     Ti54    10.0   1_545     S
Ti53     V55    10.0   .     S
Ti53     Ti74    10.0   .     S
Ti54     Ti53    10.0   1_565     S
V55     V56    9.999   .     S
V55     Er101    10.0   1_545     S
V56     Ti58    10.0   .     S
V56     Er106    10.0   .     S
Ti57     Ti58    10.0   .     S
Ti57     V61    10.0   .     S
Ti57     Ti81    10.0   .     S
V59     V60    9.999   .     S
V59     Er99    10.0   .     S
V60     Ti64    10.0   .     S
V60     Er112    10.0   .     S
V61     V62    9.999   .     S
V61     Er110    10.0   .     S
V62     Ti63    10.0   .     S
V62     Er109    10.0   .     S
Ti63     Ti64    10.0   .     S
Ti63     Ti66    10.0   .     S
Ti65     Ti66    10.0   .     S
Ti65     V67    10.0   .     S
Ti66     V75    10.0   .     S
V67     V68    9.999   .     S
V67     Er110    10.0   .     S
V68     Ti70    10.0   .     S
V68     Er105    10.0   1_655     S
Ti69     Ti70    10.0   1_455     S
Ti69     V71    10.0   .     S
Ti69     Ti89    10.0   .     S
Ti70     Ti69    10.0   1_655     S
V71     V72    9.999   .     S
V71     Er100    10.0   1_455     S
V72     Ti73    10.0   .     S
V72     Er106    10.0   .     S
Ti73     Ti74    10.0   .     S
Ti74     V77    10.0   .     S
V75     V76    9.999   .     S
V75     Er98    10.0   .     S
V76     Ti80    10.0   .     S
V76     Er112    10.0   .     S
V77     V78    9.999   .     S
V77     Er108    10.0   .     S
V78     Ti79    10.0   .     S
V78     Er102    10.0   .     S
Ti79     Ti80    10.0   .     S
Ti79     Ti86    10.0   .     S
Ti81     Ti82    10.0   1_554     S
Ti81     V87    10.0   .     S
Ti82     Ti81    10.0   1_556     S
Ti82     V83    10.0   .     S
V83     V84    9.999   .     S
V83     Er109    10.0   1_556     S
V84     Ti85    10.0   .     S
V84     Er108    10.0   .     S
Ti85     Ti86    10.0   .     S
Ti86     V94    10.0   .     S
V87     V88    9.999   .     S
V87     Er104    10.0   1_554     S
V88     Ti90    10.0   .     S
V88     Er106    10.0   .     S
Ti89     Ti90    10.0   .     S
Ti89     V91    10.0   .     S
V91     V92    9.999   .     S
V91     Er107    10.0   .     S
V92     Ti95    10.0   .     S
V92     Er105    10.0   .     S
V93     V94    9.999   .     S
V93     Ti96    10.0   .     S
V93     Er112    10.0   .     S
V94     Er97    10.0   .     S
Ti95     Ti96    10.0   .     S
Er100     V3    10.0   1_645     S
Er100     V30    10.0   1_545     S
Er100     V71    10.0   1_655     S
Er101     V20    10.0   1_564     S
Er101     V40    10.0   1_554     S
Er101     V55    10.0   1_565     S
Er102     V18    10.0   1_545     S
Er102     V49    10.0   1_545     S
Er103     V9    10.0   1_665     S
Er103     V25    10.0   1_566     S
Er103     V35    10.0   1_656     S
Er104     V14    10.0   1_455     S
Er104     V46    10.0   1_456     S
Er104     V87    10.0   1_556     S
Er105     V2    10.0   1_455     S
Er105     V68    10.0   1_455     S
Er109     V44    10.0   1_554     S
Er109     V83    10.0   1_554     S
