data_kgj
_audit_creation_date              2020-02-04
_audit_creation_method            'Pymatgen'
_symmetry_space_group_name_H-M    'P1'
_symmetry_Int_Tables_number       1
loop_
_symmetry_equiv_pos_as_xyz
  x,y,z
_cell_length_a                    79.8933
_cell_length_b                    79.8933
_cell_length_c                    79.8933
_cell_angle_alpha                 90.0
_cell_angle_beta                 90.0
_cell_angle_gamma                 90.0
loop_
_atom_site_label
_atom_site_type_symbol
_atom_site_fract_x
_atom_site_fract_y
_atom_site_fract_z
Ti1     Ti     0.8342   0.8342   0.8342
Ti2     Ti     0.1658   0.8342   0.1658
Ti3     Ti     0.4158   0.5842   0.5842
Ti4     Ti     0.4158   0.4158   0.4158
Ti5     Ti     0.5842   0.0842   0.9158
Ti6     Ti     0.5842   0.5842   0.4158
Ti7     Ti     0.5842   0.4158   0.5842
Ti8     Ti     0.8342   0.1658   0.1658
Ti9     Ti     0.1658   0.1658   0.8342
V10     V     0.0778   0.1602   0.7453
V11     V     0.0047   0.0898   0.6722
Er12     Er     0.0625   0.0038   0.7424
Er13     Er     0.0076   0.2462   0.6875
V14     V     0.9222   0.8398   0.7453
V15     V     0.9953   0.9102   0.6722
Er16     Er     0.9924   0.7538   0.6875
Er17     Er     0.9375   0.9962   0.7424
V18     V     0.9953   0.5898   0.8278
V19     V     0.9222   0.6602   0.7547
Er20     Er     0.9924   0.7462   0.8125
Er21     Er     0.9375   0.5038   0.7576
V22     V     0.0778   0.3398   0.7547
V23     V     0.0047   0.4102   0.8278
Er24     Er     0.0625   0.4962   0.7576
Er25     Er     0.0076   0.2538   0.8125
Ti26     Ti     0.9158   0.4158   0.9158
Ti27     Ti     0.9158   0.9158   0.4158
Ti28     Ti     0.8342   0.6658   0.6658
Ti29     Ti     0.6658   0.6658   0.8342
Ti30     Ti     0.3342   0.8342   0.3342
V31     V     0.0898   0.8278   0.4953
V32     V     0.1602   0.7547   0.4222
Er33     Er     0.0038   0.7576   0.4375
Er34     Er     0.2462   0.8125   0.4924
V35     V     0.8398   0.7547   0.5778
V36     V     0.9102   0.8278   0.5047
Er37     Er     0.9962   0.7576   0.5625
Er38     Er     0.7538   0.8125   0.5076
V39     V     0.4102   0.6722   0.4953
V40     V     0.3398   0.7453   0.4222
Er41     Er     0.2538   0.6875   0.4924
Er42     Er     0.4962   0.7424   0.4375
V43     V     0.5898   0.6722   0.5047
V44     V     0.6602   0.7453   0.5778
Er45     Er     0.5038   0.7424   0.5625
Er46     Er     0.7462   0.6875   0.5076
Ti47     Ti     0.6658   0.8342   0.6658
V48     V     0.4953   0.0898   0.8278
V49     V     0.4222   0.1602   0.7547
Er50     Er     0.4924   0.2462   0.8125
Er51     Er     0.4375   0.0038   0.7576
V52     V     0.5778   0.8398   0.7547
V53     V     0.5047   0.9102   0.8278
Er54     Er     0.5625   0.9962   0.7576
Er55     Er     0.5076   0.7538   0.8125
V56     V     0.4953   0.4102   0.6722
V57     V     0.4222   0.3398   0.7453
Er58     Er     0.4924   0.2538   0.6875
Er59     Er     0.4375   0.4962   0.7424
V60     V     0.5047   0.5898   0.6722
V61     V     0.5778   0.6602   0.7453
Er62     Er     0.5625   0.5038   0.7424
Er63     Er     0.5076   0.7462   0.6875
Ti64     Ti     0.4158   0.9158   0.9158
V65     V     0.1602   0.7453   0.0778
V66     V     0.0898   0.6722   0.0047
Er67     Er     0.0038   0.7424   0.0625
Er68     Er     0.2462   0.6875   0.0076
V69     V     0.8398   0.7453   0.9222
V70     V     0.9102   0.6722   0.9953
Er71     Er     0.7538   0.6875   0.9924
Er72     Er     0.9962   0.7424   0.9375
V73     V     0.6602   0.7547   0.9222
V74     V     0.5898   0.8278   0.9953
Er75     Er     0.7462   0.8125   0.9924
Er76     Er     0.5038   0.7576   0.9375
V77     V     0.3398   0.7547   0.0778
V78     V     0.4102   0.8278   0.0047
Er79     Er     0.4962   0.7576   0.0625
Er80     Er     0.2538   0.8125   0.0076
Ti81     Ti     0.3342   0.6658   0.1658
Ti82     Ti     0.0842   0.5842   0.9158
Ti83     Ti     0.3342   0.3342   0.8342
V84     V     0.1722   0.5047   0.0898
V85     V     0.2453   0.5778   0.1602
Er86     Er     0.2424   0.5625   0.0038
Er87     Er     0.1875   0.5076   0.2462
V88     V     0.2453   0.4222   0.8398
V89     V     0.1722   0.4953   0.9102
Er90     Er     0.1875   0.4924   0.7538
Er91     Er     0.2424   0.4375   0.9962
V92     V     0.3278   0.4953   0.5898
V93     V     0.2547   0.4222   0.6602
Er94     Er     0.3125   0.4924   0.7462
Er95     Er     0.2576   0.4375   0.5038
V96     V     0.3278   0.5047   0.4102
V97     V     0.2547   0.5778   0.3398
Er98     Er     0.2576   0.5625   0.4962
Er99     Er     0.3125   0.5076   0.2538
Ti100     Ti     0.9158   0.5842   0.0842
Ti101     Ti     0.0842   0.4158   0.0842
Ti102     Ti     0.1658   0.6658   0.3342
V103     V     0.9953   0.0898   0.3278
V104     V     0.9222   0.1602   0.2547
Er105     Er     0.9375   0.0038   0.2576
Er106     Er     0.9924   0.2462   0.3125
V107     V     0.0778   0.8398   0.2547
V108     V     0.0047   0.9102   0.3278
Er109     Er     0.0625   0.9962   0.2576
Er110     Er     0.0076   0.7538   0.3125
V111     V     0.9953   0.4102   0.1722
V112     V     0.9222   0.3398   0.2453
Er113     Er     0.9375   0.4962   0.2424
Er114     Er     0.9924   0.2538   0.1875
V115     V     0.0778   0.6602   0.2453
V116     V     0.0047   0.5898   0.1722
Er117     Er     0.0076   0.7462   0.1875
Er118     Er     0.0625   0.5038   0.2424
Ti119     Ti     0.0842   0.9158   0.5842
Ti120     Ti     0.3342   0.1658   0.6658
Ti121     Ti     0.0842   0.0842   0.4158
V122     V     0.2547   0.0778   0.8398
V123     V     0.3278   0.0047   0.9102
Er124     Er     0.3125   0.0076   0.7538
Er125     Er     0.2576   0.0625   0.9962
V126     V     0.2453   0.0778   0.6602
V127     V     0.1722   0.0047   0.5898
Er128     Er     0.1875   0.0076   0.7462
Er129     Er     0.2424   0.0625   0.5038
V130     V     0.3278   0.9953   0.0898
V131     V     0.2547   0.9222   0.1602
Er132     Er     0.3125   0.9924   0.2462
Er133     Er     0.2576   0.9375   0.0038
V134     V     0.1722   0.9953   0.4102
V135     V     0.2453   0.9222   0.3398
Er136     Er     0.2424   0.9375   0.4962
Er137     Er     0.1875   0.9924   0.2538
Ti138     Ti     0.6658   0.3342   0.1658
Ti139     Ti     0.1658   0.3342   0.6658
V140     V     0.8278   0.4953   0.0898
V141     V     0.7547   0.4222   0.1602
Er142     Er     0.8125   0.4924   0.2462
Er143     Er     0.7576   0.4375   0.0038
V144     V     0.7547   0.5778   0.8398
V145     V     0.8278   0.5047   0.9102
Er146     Er     0.7576   0.5625   0.9962
Er147     Er     0.8125   0.5076   0.7538
V148     V     0.6722   0.5047   0.5898
V149     V     0.7453   0.5778   0.6602
Er150     Er     0.7424   0.5625   0.5038
Er151     Er     0.6875   0.5076   0.7462
V152     V     0.6722   0.4953   0.4102
V153     V     0.7453   0.4222   0.3398
Er154     Er     0.6875   0.4924   0.2538
Er155     Er     0.7424   0.4375   0.4962
Ti156     Ti     0.8342   0.3342   0.3342
Ti157     Ti     0.9158   0.0842   0.5842
V158     V     0.0898   0.1722   0.5047
V159     V     0.1602   0.2453   0.5778
Er160     Er     0.0038   0.2424   0.5625
Er161     Er     0.2462   0.1875   0.5076
V162     V     0.8398   0.2453   0.4222
V163     V     0.9102   0.1722   0.4953
Er164     Er     0.7538   0.1875   0.4924
Er165     Er     0.9962   0.2424   0.4375
V166     V     0.5898   0.3278   0.4953
V167     V     0.6602   0.2547   0.4222
Er168     Er     0.7462   0.3125   0.4924
Er169     Er     0.5038   0.2576   0.4375
V170     V     0.4102   0.3278   0.5047
V171     V     0.3398   0.2547   0.5778
Er172     Er     0.4962   0.2576   0.5625
Er173     Er     0.2538   0.3125   0.5076
Ti174     Ti     0.4158   0.0842   0.0842
V175     V     0.8398   0.2547   0.0778
V176     V     0.9102   0.3278   0.0047
Er177     Er     0.9962   0.2576   0.0625
Er178     Er     0.7538   0.3125   0.0076
V179     V     0.0898   0.3278   0.9953
V180     V     0.1602   0.2547   0.9222
Er181     Er     0.0038   0.2576   0.9375
Er182     Er     0.2462   0.3125   0.9924
V183     V     0.6602   0.2453   0.0778
V184     V     0.5898   0.1722   0.0047
Er185     Er     0.7462   0.1875   0.0076
Er186     Er     0.5038   0.2424   0.0625
V187     V     0.4102   0.1722   0.9953
V188     V     0.3398   0.2453   0.9222
Er189     Er     0.2538   0.1875   0.9924
Er190     Er     0.4962   0.2424   0.9375
Ti191     Ti     0.5842   0.9158   0.0842
V192     V     0.4222   0.8398   0.2453
V193     V     0.4953   0.9102   0.1722
Er194     Er     0.4924   0.7538   0.1875
Er195     Er     0.4375   0.9962   0.2424
V196     V     0.5047   0.0898   0.1722
V197     V     0.5778   0.1602   0.2453
Er198     Er     0.5625   0.0038   0.2424
Er199     Er     0.5076   0.2462   0.1875
V200     V     0.4953   0.5898   0.3278
V201     V     0.4222   0.6602   0.2547
Er202     Er     0.4924   0.7462   0.3125
Er203     Er     0.4375   0.5038   0.2576
V204     V     0.5047   0.4102   0.3278
V205     V     0.5778   0.3398   0.2547
Er206     Er     0.5625   0.4962   0.2576
Er207     Er     0.5076   0.2538   0.3125
Ti208     Ti     0.6658   0.1658   0.3342
V209     V     0.7547   0.9222   0.6602
V210     V     0.8278   0.9953   0.5898
Er211     Er     0.8125   0.9924   0.7462
Er212     Er     0.7576   0.9375   0.5038
V213     V     0.7453   0.9222   0.8398
V214     V     0.6722   0.9953   0.9102
Er215     Er     0.7424   0.9375   0.9962
Er216     Er     0.6875   0.9924   0.7538
V217     V     0.7547   0.0778   0.3398
V218     V     0.8278   0.0047   0.4102
Er219     Er     0.8125   0.0076   0.2538
Er220     Er     0.7576   0.0625   0.4962
V221     V     0.7453   0.0778   0.1602
V222     V     0.6722   0.0047   0.0898
Er223     Er     0.7424   0.0625   0.0038
Er224     Er     0.6875   0.0076   0.2462
loop_
_geom_bond_atom_site_label_1
_geom_bond_atom_site_label_2
_geom_bond_distance
_geom_bond_site_symmetry_2
_ccdc_geom_bond_type
Ti1     V14    10.0   .     S
Ti1     V69    10.0   .     S
Ti1     V213    10.0   .     S
Ti2     V107    10.0   .     S
Ti2     V131    10.0   .     S
Ti2     V65    10.0   .     S
Ti3     V60    10.0   .     S
Ti3     V39    10.0   .     S
Ti3     V92    10.0   .     S
Ti4     V204    10.0   .     S
Ti4     V170    10.0   .     S
Ti4     V96    10.0   .     S
Ti5     V48    10.0   .     S
Ti5     V184    10.0   1_556     S
Ti5     V214    10.0   1_545     S
Ti6     V200    10.0   .     S
Ti6     V43    10.0   .     S
Ti6     V152    10.0   .     S
Ti7     V56    10.0   .     S
Ti7     V148    10.0   .     S
Ti7     V166    10.0   .     S
Ti8     V104    10.0   .     S
Ti8     V221    10.0   .     S
Ti8     V175    10.0   .     S
Ti9     V180    10.0   .     S
Ti9     V122    10.0   .     S
Ti9     V10    10.0   .     S
V10     Er13    10.0   .     S
V10     V11    10.0   .     S
V11     Er12    10.0   .     S
V11     Ti157    10.0   1_455     S
Er12     Er17    10.0   1_445     S
Er12     Er128    10.001   .     S
Er13     Er25    10.0   .     S
Er13     Er160    10.001   .     S
V14     Er16    10.0   .     S
V14     V15    10.0   .     S
V15     Er17    10.0   .     S
V15     Ti119    10.0   1_655     S
Er16     Er20    10.0   .     S
Er16     Er37    10.001   .     S
Er17     Er12    10.0   1_665     S
Er17     Er211    10.001   .     S
V18     Er21    10.0   .     S
V18     V19    10.0   .     S
V18     Ti82    10.0   1_655     S
V19     Er20    10.0   .     S
V19     Ti28    10.0   .     S
Er20     Er72    10.001   .     S
Er21     Er24    10.0   1_655     S
Er21     Er147    10.001   .     S
V22     Er25    10.0   .     S
V22     V23    10.0   .     S
V22     Ti139    10.0   .     S
V23     Er24    10.0   .     S
V23     Ti26    10.0   1_455     S
Er24     Er21    10.0   1_455     S
Er24     Er90    10.001   .     S
Er25     Er181    10.001   .     S
Ti26     V145    10.0   .     S
Ti26     V23    10.0   1_655     S
Ti26     V176    10.0   1_556     S
Ti27     V36    10.0   .     S
Ti27     V218    10.0   1_565     S
Ti27     V108    10.0   1_655     S
Ti28     V35    10.0   .     S
Ti28     V149    10.0   .     S
Ti29     V73    10.0   .     S
Ti29     V144    10.0   .     S
Ti29     V61    10.0   .     S
Ti30     V135    10.0   .     S
Ti30     V192    10.0   .     S
Ti30     V40    10.0   .     S
V31     Er33    10.0   .     S
V31     V32    10.0   .     S
V31     Ti119    10.0   .     S
V32     Er34    10.0   .     S
V32     Ti102    10.0   .     S
Er33     Er37    10.0   1_455     S
Er33     Er110    10.001   .     S
Er34     Er41    10.0   .     S
Er34     Er136    10.001   .     S
V35     Er38    10.0   .     S
V35     V36    10.0   .     S
V36     Er37    10.0   .     S
Er37     Er33    10.0   1_655     S
Er38     Er46    10.0   .     S
Er38     Er212    10.001   .     S
V39     Er42    10.0   .     S
V39     V40    10.0   .     S
V40     Er41    10.0   .     S
Er41     Er98    10.001   .     S
Er42     Er45    10.0   .     S
Er42     Er202    10.001   .     S
V43     Er45    10.0   .     S
V43     V44    10.0   .     S
V44     Er46    10.0   .     S
V44     Ti47    10.0   .     S
Er45     Er63    10.001   .     S
Er46     Er150    10.001   .     S
Ti47     V209    10.0   .     S
Ti47     V52    10.0   .     S
V48     Er51    10.0   .     S
V48     V49    10.0   .     S
V49     Er50    10.0   .     S
V49     Ti120    10.0   .     S
Er50     Er58    10.0   .     S
Er50     Er190    10.001   .     S
Er51     Er54    10.0   1_545     S
Er51     Er124    10.001   .     S
V52     Er55    10.0   .     S
V52     V53    10.0   .     S
V53     Er54    10.0   .     S
V53     Ti64    10.0   .     S
Er54     Er51    10.0   1_565     S
Er54     Er216    10.001   .     S
Er55     Er63    10.0   .     S
Er55     Er76    10.001   .     S
V56     Er59    10.0   .     S
V56     V57    10.0   .     S
V57     Er58    10.0   .     S
V57     Ti83    10.0   .     S
Er58     Er172    10.001   .     S
Er59     Er62    10.0   .     S
Er59     Er94    10.001   .     S
V60     Er62    10.0   .     S
V60     V61    10.0   .     S
V61     Er63    10.0   .     S
Er62     Er151    10.001   .     S
Ti64     V78    10.0   1_556     S
Ti64     V123    10.0   1_565     S
V65     Er68    10.0   .     S
V65     V66    10.0   .     S
V66     Er67    10.0   .     S
V66     Ti82    10.0   1_554     S
Er67     Er72    10.0   1_454     S
Er67     Er117    10.001   .     S
Er68     Er80    10.0   .     S
Er68     Er86    10.001   .     S
V69     Er71    10.0   .     S
V69     V70    10.0   .     S
V70     Er72    10.0   .     S
V70     Ti100    10.0   1_556     S
Er71     Er75    10.0   .     S
Er71     Er146    10.001   .     S
Er72     Er67    10.0   1_656     S
V73     Er75    10.0   .     S
V73     V74    10.0   .     S
V74     Er76    10.0   .     S
V74     Ti191    10.0   1_556     S
Er75     Er215    10.001   .     S
Er76     Er79    10.0   1_556     S
V77     Er80    10.0   .     S
V77     V78    10.0   .     S
V77     Ti81    10.0   .     S
V78     Ti64    10.0   1_554     S
V78     Er79    10.0   .     S
Er79     Er76    10.0   1_554     S
Er79     Er194    10.001   .     S
Er80     Er133    10.001   .     S
Ti81     V85    10.0   .     S
Ti81     V201    10.0   .     S
Ti82     V66    10.0   1_556     S
Ti82     V18    10.0   1_455     S
Ti82     V89    10.0   .     S
Ti83     V188    10.0   .     S
Ti83     V88    10.0   .     S
V84     Er86    10.0   .     S
V84     V85    10.0   .     S
V84     Ti101    10.0   .     S
V85     Er87    10.0   .     S
Er86     Er91    10.0   1_554     S
Er87     Er99    10.0   .     S
Er87     Er118    10.001   .     S
V88     Er90    10.0   .     S
V88     V89    10.0   .     S
V89     Er91    10.0   .     S
Er90     Er94    10.0   .     S
Er91     Er86    10.0   1_556     S
Er91     Er182    10.001   .     S
V92     Er95    10.0   .     S
V92     V93    10.0   .     S
V93     Er94    10.0   .     S
V93     Ti139    10.0   .     S
Er95     Er98    10.0   .     S
Er95     Er173    10.001   .     S
V96     Er98    10.0   .     S
V96     V97    10.0   .     S
V97     Er99    10.0   .     S
V97     Ti102    10.0   .     S
Er99     Er203    10.001   .     S
Ti100     V70    10.0   1_554     S
Ti100     V140    10.0   .     S
Ti100     V116    10.0   1_655     S
Ti101     V179    10.0   1_554     S
Ti101     V111    10.0   1_455     S
Ti102     V115    10.0   .     S
V103     Er105    10.0   .     S
V103     V104    10.0   .     S
V103     Ti121    10.0   1_655     S
V104     Er106    10.0   .     S
Er105     Er109    10.0   1_645     S
Er105     Er219    10.001   .     S
Er106     Er114    10.0   .     S
Er106     Er165    10.001   .     S
V107     Er110    10.0   .     S
V107     V108    10.0   .     S
V108     Ti27    10.0   1_455     S
V108     Er109    10.0   .     S
Er109     Er105    10.0   1_465     S
Er109     Er137    10.001   .     S
Er110     Er117    10.0   .     S
V111     Ti101    10.0   1_655     S
V111     Er113    10.0   .     S
V111     V112    10.0   .     S
V112     Er114    10.0   .     S
V112     Ti156    10.0   .     S
Er113     Er118    10.0   1_655     S
Er113     Er142    10.001   .     S
Er114     Er177    10.001   .     S
V115     Er117    10.0   .     S
V115     V116    10.0   .     S
V116     Ti100    10.0   1_455     S
V116     Er118    10.0   .     S
Er118     Er113    10.0   1_455     S
Ti119     V127    10.0   1_565     S
Ti119     V15    10.0   1_455     S
Ti120     V171    10.0   .     S
Ti120     V126    10.0   .     S
Ti121     V158    10.0   .     S
Ti121     V103    10.0   1_455     S
Ti121     V134    10.0   1_545     S
V122     Er124    10.0   .     S
V122     V123    10.0   .     S
V123     Ti64    10.0   1_545     S
V123     Er125    10.0   .     S
Er124     Er128    10.0   .     S
Er125     Er133    10.0   1_546     S
Er125     Er189    10.001   .     S
V126     Er128    10.0   .     S
V126     V127    10.0   .     S
V127     Ti119    10.0   1_545     S
V127     Er129    10.0   .     S
Er129     Er136    10.0   1_545     S
Er129     Er161    10.001   .     S
V130     Er133    10.0   .     S
V130     V131    10.0   .     S
V130     Ti174    10.0   1_565     S
V131     Er132    10.0   .     S
Er132     Er137    10.0   .     S
Er132     Er195    10.001   .     S
Er133     Er125    10.0   1_564     S
V134     Ti121    10.0   1_565     S
V134     Er136    10.0   .     S
V134     V135    10.0   .     S
V135     Er137    10.0   .     S
Er136     Er129    10.0   1_565     S
Ti138     V205    10.0   .     S
Ti138     V183    10.0   .     S
Ti138     V141    10.0   .     S
Ti139     V159    10.0   .     S
V140     Er143    10.0   .     S
V140     V141    10.0   .     S
V141     Er142    10.0   .     S
Er142     Er154    10.0   .     S
Er143     Er146    10.0   1_554     S
Er143     Er178    10.001   .     S
V144     Er147    10.0   .     S
V144     V145    10.0   .     S
V145     Er146    10.0   .     S
Er146     Er143    10.0   1_556     S
Er147     Er151    10.0   .     S
V148     Er150    10.0   .     S
V148     V149    10.0   .     S
V149     Er151    10.0   .     S
Er150     Er155    10.0   .     S
V152     Er155    10.0   .     S
V152     V153    10.0   .     S
V153     Er154    10.0   .     S
V153     Ti156    10.0   .     S
Er154     Er206    10.001   .     S
Er155     Er168    10.001   .     S
Ti156     V162    10.0   .     S
Ti157     V210    10.0   1_545     S
Ti157     V11    10.0   1_655     S
Ti157     V163    10.0   .     S
V158     Er160    10.0   .     S
V158     V159    10.0   .     S
V159     Er161    10.0   .     S
Er160     Er165    10.0   1_455     S
Er161     Er173    10.0   .     S
V162     Er164    10.0   .     S
V162     V163    10.0   .     S
V163     Er165    10.0   .     S
Er164     Er168    10.0   .     S
Er164     Er220    10.001   .     S
Er165     Er160    10.0   1_655     S
V166     Er169    10.0   .     S
V166     V167    10.0   .     S
V167     Er168    10.0   .     S
V167     Ti208    10.0   .     S
Er169     Er172    10.0   .     S
Er169     Er207    10.001   .     S
V170     Er172    10.0   .     S
V170     V171    10.0   .     S
V171     Er173    10.0   .     S
Ti174     V196    10.0   .     S
Ti174     V130    10.0   1_545     S
Ti174     V187    10.0   1_554     S
V175     Er178    10.0   .     S
V175     V176    10.0   .     S
V176     Ti26    10.0   1_554     S
V176     Er177    10.0   .     S
Er177     Er181    10.0   1_654     S
Er178     Er185    10.0   .     S
V179     Ti101    10.0   1_556     S
V179     Er181    10.0   .     S
V179     V180    10.0   .     S
V180     Er182    10.0   .     S
Er181     Er177    10.0   1_456     S
Er182     Er189    10.0   .     S
V183     Er185    10.0   .     S
V183     V184    10.0   .     S
V184     Ti5    10.0   1_554     S
V184     Er186    10.0   .     S
Er185     Er223    10.001   .     S
Er186     Er190    10.0   1_554     S
Er186     Er199    10.001   .     S
V187     Ti174    10.0   1_556     S
V187     Er190    10.0   .     S
V187     V188    10.0   .     S
V188     Er189    10.0   .     S
Er190     Er186    10.0   1_556     S
Ti191     V193    10.0   .     S
Ti191     V74    10.0   1_554     S
Ti191     V222    10.0   1_565     S
V192     Er194    10.0   .     S
V192     V193    10.0   .     S
V193     Er195    10.0   .     S
Er194     Er202    10.0   .     S
Er195     Er198    10.0   1_565     S
V196     Er198    10.0   .     S
V196     V197    10.0   .     S
V197     Er199    10.0   .     S
V197     Ti208    10.0   .     S
Er198     Er195    10.0   1_545     S
Er198     Er224    10.001   .     S
Er199     Er207    10.0   .     S
V200     Er203    10.0   .     S
V200     V201    10.0   .     S
V201     Er202    10.0   .     S
Er203     Er206    10.0   .     S
V204     Er206    10.0   .     S
V204     V205    10.0   .     S
V205     Er207    10.0   .     S
Ti208     V217    10.0   .     S
V209     Er211    10.0   .     S
V209     V210    10.0   .     S
V210     Ti157    10.0   1_565     S
V210     Er212    10.0   .     S
Er211     Er216    10.0   .     S
Er212     Er220    10.0   1_565     S
V213     Er216    10.0   .     S
V213     V214    10.0   .     S
V214     Ti5    10.0   1_565     S
V214     Er215    10.0   .     S
Er215     Er223    10.0   1_566     S
V217     Er219    10.0   .     S
V217     V218    10.0   .     S
V218     Ti27    10.0   1_545     S
V218     Er220    10.0   .     S
Er219     Er224    10.0   .     S
Er220     Er212    10.0   1_545     S
V221     Er224    10.0   .     S
V221     V222    10.0   .     S
V222     Ti191    10.0   1_545     S
V222     Er223    10.0   .     S
Er223     Er215    10.0   1_544     S
