data_kgn
_audit_creation_date              2020-02-04
_audit_creation_method            'Pymatgen'
_symmetry_space_group_name_H-M    'P1'
_symmetry_Int_Tables_number       1
loop_
_symmetry_equiv_pos_as_xyz
  x,y,z
_cell_length_a                    60.4574
_cell_length_b                    60.4574
_cell_length_c                    60.4574
_cell_angle_alpha                 90.0
_cell_angle_beta                 90.0
_cell_angle_gamma                 90.0
loop_
_atom_site_label
_atom_site_type_symbol
_atom_site_fract_x
_atom_site_fract_y
_atom_site_fract_z
V1     V     0.6802   0.6802   0.6802
V2     V     0.3198   0.3198   0.3198
V3     V     0.6802   0.3198   0.6802
V4     V     0.3198   0.3198   0.6802
V5     V     0.3198   0.6802   0.6802
V6     V     0.6802   0.3198   0.3198
V7     V     0.3198   0.6802   0.3198
Ti8     Ti     0.557   0.9401   0.3624
Ti9     Ti     0.6376   0.0599   0.443
Ti10     Ti     0.3624   0.9401   0.443
Ti11     Ti     0.443   0.0599   0.3624
Ti12     Ti     0.557   0.0599   0.6376
Ti13     Ti     0.6376   0.9401   0.557
Ti14     Ti     0.3624   0.0599   0.557
Ti15     Ti     0.443   0.9401   0.6376
Er16     Er     0.445   0.7866   0.6992
Er17     Er     0.6992   0.2134   0.445
Er18     Er     0.6992   0.7866   0.555
Er19     Er     0.555   0.2134   0.6992
Er20     Er     0.3008   0.7866   0.445
Er21     Er     0.3008   0.2134   0.555
Er22     Er     0.445   0.2134   0.3008
Er23     Er     0.555   0.7866   0.3008
Ti24     Ti     0.9401   0.3624   0.557
Ti25     Ti     0.0599   0.443   0.6376
Ti26     Ti     0.0599   0.6376   0.557
Ti27     Ti     0.9401   0.557   0.6376
Ti28     Ti     0.0599   0.3624   0.443
Ti29     Ti     0.9401   0.443   0.3624
Ti30     Ti     0.0599   0.557   0.3624
Ti31     Ti     0.9401   0.6376   0.443
Er32     Er     0.7866   0.6992   0.445
Er33     Er     0.2134   0.6992   0.555
Er34     Er     0.2134   0.445   0.6992
Er35     Er     0.7866   0.555   0.6992
Er36     Er     0.2134   0.3008   0.445
Er37     Er     0.7866   0.3008   0.555
Er38     Er     0.7866   0.445   0.3008
Er39     Er     0.2134   0.555   0.3008
Ti40     Ti     0.3624   0.557   0.9401
Ti41     Ti     0.443   0.6376   0.0599
Ti42     Ti     0.443   0.3624   0.9401
Ti43     Ti     0.3624   0.443   0.0599
Ti44     Ti     0.6376   0.557   0.0599
Ti45     Ti     0.557   0.6376   0.9401
Ti46     Ti     0.557   0.3624   0.0599
Ti47     Ti     0.6376   0.443   0.9401
Er48     Er     0.6992   0.445   0.7866
Er49     Er     0.555   0.6992   0.7866
Er50     Er     0.6992   0.555   0.2134
Er51     Er     0.445   0.6992   0.2134
Er52     Er     0.3008   0.445   0.2134
Er53     Er     0.3008   0.555   0.7866
Er54     Er     0.445   0.3008   0.7866
Er55     Er     0.555   0.3008   0.2134
V56     V     0.6802   0.6802   0.3198
loop_
_geom_bond_atom_site_label_1
_geom_bond_atom_site_label_2
_geom_bond_distance
_geom_bond_site_symmetry_2
_ccdc_geom_bond_type
V1     Er18    10.0   .     S
V1     Er35    10.0   .     S
V1     Er49    10.0   .     S
V2     Er36    10.0   .     S
V2     Er22    10.0   .     S
V2     Er52    10.0   .     S
V3     Er48    10.0   .     S
V3     Er37    10.0   .     S
V3     Er19    10.0   .     S
V4     Er54    10.0   .     S
V4     Er34    10.0   .     S
V4     Er21    10.0   .     S
V5     Er16    10.0   .     S
V5     Er53    10.0   .     S
V5     Er33    10.0   .     S
V6     Er38    10.0   .     S
V6     Er17    10.0   .     S
V6     Er55    10.0   .     S
V7     Er20    10.0   .     S
V7     Er51    10.0   .     S
V7     Er39    10.0   .     S
Ti8     Ti9    10.0   1_565     S
Ti8     Ti11    10.0   1_565     S
Ti8     Er23    10.0   .     S
Ti9     Ti8    10.0   1_545     S
Ti9     Ti13    10.0   1_545     S
Ti9     Er17    10.0   .     S
Ti10     Ti11    10.0   1_565     S
Ti10     Ti14    10.0   1_565     S
Ti10     Er20    10.0   .     S
Ti11     Ti10    10.0   1_545     S
Ti11     Ti8    10.0   1_545     S
Ti11     Er22    10.0   .     S
Ti12     Ti13    10.0   1_545     S
Ti12     Ti15    10.0   1_545     S
Ti12     Er19    10.0   .     S
Ti13     Ti9    10.0   1_565     S
Ti13     Ti12    10.0   1_565     S
Ti13     Er18    10.0   .     S
Ti14     Ti10    10.0   1_545     S
Ti14     Ti15    10.0   1_545     S
Ti14     Er21    10.0   .     S
Ti15     Ti14    10.0   1_565     S
Ti15     Ti12    10.0   1_565     S
Ti15     Er16    10.0   .     S
Er16     Er49    10.0   .     S
Er17     Er37    10.0   .     S
Er18     Er32    10.0   .     S
Er19     Er54    10.0   .     S
Er20     Er33    10.0   .     S
Er21     Er36    10.0   .     S
Er22     Er55    10.0   .     S
Er23     Er51    10.0   .     S
Er23     V56    10.0   .     S
Ti24     Ti25    10.0   1_655     S
Ti24     Ti28    10.0   1_655     S
Ti24     Er37    10.0   .     S
Ti25     Ti24    10.0   1_455     S
Ti25     Ti27    10.0   1_455     S
Ti25     Er34    10.0   .     S
Ti26     Ti27    10.0   1_455     S
Ti26     Ti31    10.0   1_455     S
Ti26     Er33    10.0   .     S
Ti27     Ti25    10.0   1_655     S
Ti27     Ti26    10.0   1_655     S
Ti27     Er35    10.0   .     S
Ti28     Ti29    10.0   1_455     S
Ti28     Ti24    10.0   1_455     S
Ti28     Er36    10.0   .     S
Ti29     Ti28    10.0   1_655     S
Ti29     Ti30    10.0   1_655     S
Ti29     Er38    10.0   .     S
Ti30     Ti29    10.0   1_455     S
Ti30     Ti31    10.0   1_455     S
Ti30     Er39    10.0   .     S
Ti31     Ti30    10.0   1_655     S
Ti31     Ti26    10.0   1_655     S
Ti31     Er32    10.0   .     S
Er32     V56    10.0   .     S
Er34     Er53    10.0   .     S
Er35     Er48    10.0   .     S
Er38     Er50    10.0   .     S
Er39     Er52    10.0   .     S
Ti40     Ti41    10.0   1_556     S
Ti40     Ti43    10.0   1_556     S
Ti40     Er53    10.0   .     S
Ti41     Ti40    10.0   1_554     S
Ti41     Ti45    10.0   1_554     S
Ti41     Er51    10.0   .     S
Ti42     Ti43    10.0   1_556     S
Ti42     Ti46    10.0   1_556     S
Ti42     Er54    10.0   .     S
Ti43     Ti42    10.0   1_554     S
Ti43     Ti40    10.0   1_554     S
Ti43     Er52    10.0   .     S
Ti44     Ti45    10.0   1_554     S
Ti44     Ti47    10.0   1_554     S
Ti44     Er50    10.0   .     S
Ti45     Ti41    10.0   1_556     S
Ti45     Ti44    10.0   1_556     S
Ti45     Er49    10.0   .     S
Ti46     Ti42    10.0   1_554     S
Ti46     Ti47    10.0   1_554     S
Ti46     Er55    10.0   .     S
Ti47     Ti46    10.0   1_556     S
Ti47     Ti44    10.0   1_556     S
Ti47     Er48    10.0   .     S
Er50     V56    10.0   .     S
