data_kgp
_audit_creation_date              2020-02-04
_audit_creation_method            'Pymatgen'
_symmetry_space_group_name_H-M    'P1'
_symmetry_Int_Tables_number       1
loop_
_symmetry_equiv_pos_as_xyz
  x,y,z
_cell_length_a                    68.5978
_cell_length_b                    68.5978
_cell_length_c                    68.5978
_cell_angle_alpha                 90.0
_cell_angle_beta                 90.0
_cell_angle_gamma                 90.0
loop_
_atom_site_label
_atom_site_type_symbol
_atom_site_fract_x
_atom_site_fract_y
_atom_site_fract_z
Er1     Er     0.6877   0.9495   0.6974
Er2     Er     0.6877   0.0505   0.8026
Er3     Er     0.6974   0.6877   0.9495
Er4     Er     0.8026   0.6877   0.0505
V5     V     0.8682   0.8171   0.6697
V6     V     0.8171   0.6697   0.8682
V7     V     0.6697   0.8682   0.8171
Ti8     Ti     0.785   0.785   0.785
Er9     Er     0.6974   0.3123   0.5505
Er10     Er     0.8026   0.3123   0.4495
Er11     Er     0.3123   0.5505   0.6974
Er12     Er     0.3123   0.4495   0.8026
Er13     Er     0.5505   0.6974   0.3123
Er14     Er     0.4495   0.8026   0.3123
Er15     Er     0.9495   0.6974   0.6877
Er16     Er     0.0505   0.8026   0.6877
V17     V     0.1829   0.8303   0.8682
V18     V     0.3303   0.6318   0.8171
V19     V     0.1318   0.6829   0.6697
Ti20     Ti     0.215   0.715   0.785
Er21     Er     0.3026   0.8123   0.9495
Er22     Er     0.1974   0.8123   0.0505
V23     V     0.3171   0.8303   0.1318
V24     V     0.3682   0.6829   0.3303
V25     V     0.1697   0.6318   0.1829
Ti26     Ti     0.285   0.715   0.215
V27     V     0.3303   0.3682   0.6829
V28     V     0.1829   0.1697   0.6318
V29     V     0.1318   0.3171   0.8303
Ti30     Ti     0.215   0.285   0.715
Er31     Er     0.9495   0.3026   0.8123
Er32     Er     0.0505   0.1974   0.8123
V33     V     0.8682   0.1829   0.8303
V34     V     0.8171   0.3303   0.6318
V35     V     0.6697   0.1318   0.6829
Ti36     Ti     0.785   0.215   0.715
Er37     Er     0.1877   0.5505   0.3026
Er38     Er     0.1877   0.4495   0.1974
Er39     Er     0.3026   0.1877   0.5505
Er40     Er     0.1974   0.1877   0.4495
V41     V     0.3682   0.3171   0.1697
V42     V     0.3171   0.1697   0.3682
V43     V     0.1697   0.3682   0.3171
Ti44     Ti     0.285   0.285   0.285
Er45     Er     0.8123   0.9495   0.3026
Er46     Er     0.8123   0.0505   0.1974
V47     V     0.6318   0.8171   0.3303
V48     V     0.6829   0.6697   0.1318
V49     V     0.8303   0.8682   0.1829
Ti50     Ti     0.715   0.785   0.215
Er51     Er     0.5505   0.3026   0.1877
Er52     Er     0.4495   0.1974   0.1877
V53     V     0.6318   0.1829   0.1697
V54     V     0.6829   0.3303   0.3682
V55     V     0.8303   0.1318   0.3171
Ti56     Ti     0.715   0.215   0.285
Er57     Er     0.9474   0.6995   0.0623
Er58     Er     0.0526   0.8005   0.0623
Er59     Er     0.6995   0.0623   0.9474
Er60     Er     0.8005   0.0623   0.0526
V61     V     0.9329   0.8818   0.0803
V62     V     0.0803   0.9329   0.8818
V63     V     0.8818   0.0803   0.9329
Ti64     Ti     0.965   0.965   0.965
Er65     Er     0.0623   0.9474   0.6995
Er66     Er     0.0623   0.0526   0.8005
Er67     Er     0.9377   0.5526   0.6995
Er68     Er     0.9377   0.4474   0.8005
Er69     Er     0.6995   0.9377   0.5526
Er70     Er     0.8005   0.9377   0.4474
Er71     Er     0.5526   0.6995   0.9377
Er72     Er     0.4474   0.8005   0.9377
V73     V     0.4329   0.6182   0.9197
V74     V     0.3818   0.4197   0.0671
V75     V     0.5803   0.5671   0.1182
Ti76     Ti     0.465   0.535   0.035
Er77     Er     0.1995   0.4377   0.0526
Er78     Er     0.3005   0.4377   0.9474
V79     V     0.0671   0.6182   0.0803
V80     V     0.9197   0.5671   0.8818
V81     V     0.1182   0.4197   0.9329
Ti82     Ti     0.035   0.535   0.965
V83     V     0.9197   0.4329   0.6182
V84     V     0.0671   0.3818   0.4197
V85     V     0.1182   0.5803   0.5671
Ti86     Ti     0.035   0.465   0.535
Er87     Er     0.0526   0.1995   0.4377
Er88     Er     0.9474   0.3005   0.4377
V89     V     0.0803   0.0671   0.6182
V90     V     0.8818   0.9197   0.5671
V91     V     0.9329   0.1182   0.4197
Ti92     Ti     0.965   0.035   0.535
Er93     Er     0.1995   0.5623   0.4474
Er94     Er     0.3005   0.5623   0.5526
Er95     Er     0.4377   0.0526   0.1995
Er96     Er     0.4377   0.9474   0.3005
V97     V     0.6182   0.0803   0.0671
V98     V     0.5671   0.8818   0.9197
V99     V     0.4197   0.9329   0.1182
Ti100     Ti     0.535   0.965   0.035
V101     V     0.6182   0.9197   0.4329
V102     V     0.4197   0.0671   0.3818
V103     V     0.5671   0.1182   0.5803
Ti104     Ti     0.535   0.035   0.465
Er105     Er     0.5623   0.4474   0.1995
Er106     Er     0.5623   0.5526   0.3005
Er107     Er     0.5526   0.3005   0.5623
Er108     Er     0.4474   0.1995   0.5623
V109     V     0.4329   0.3818   0.5803
V110     V     0.5803   0.4329   0.3818
V111     V     0.3818   0.5803   0.4329
Ti112     Ti     0.465   0.465   0.465
loop_
_geom_bond_atom_site_label_1
_geom_bond_atom_site_label_2
_geom_bond_distance
_geom_bond_site_symmetry_2
_ccdc_geom_bond_type
Er1     Er2    9.999   1_565     S
Er1     V7    10.0   .     S
Er1     Er69    10.001   .     S
Er2     Er1    9.999   1_545     S
Er2     V35    10.0   .     S
Er2     Er59    10.001   .     S
Er3     Er4    9.999   1_556     S
Er3     V6    10.0   .     S
Er3     Er71    10.001   .     S
Er4     Er3    9.999   1_554     S
Er4     V48    10.0   .     S
Er4     Er57    10.001   .     S
V5     Er15    10.0   .     S
V5     Ti8    10.0   .     S
V5     V90    10.0   .     S
V6     Ti8    10.0   .     S
V6     V80    10.0   .     S
V7     Ti8    10.0   .     S
V7     V98    10.0   .     S
Er9     Er10    9.999   .     S
Er9     V34    10.0   .     S
Er9     Er107    10.001   .     S
Er10     V54    10.0   .     S
Er10     Er88    10.001   .     S
Er11     Er12    9.999   .     S
Er11     V18    10.0   .     S
Er11     Er94    10.001   .     S
Er12     V27    10.0   .     S
Er12     Er78    10.001   .     S
Er13     Er14    9.999   .     S
Er13     V47    10.0   .     S
Er13     Er106    10.001   .     S
Er14     V24    10.0   .     S
Er14     Er96    10.001   .     S
Er15     Er16    9.999   1_655     S
Er15     Er67    10.001   .     S
Er16     Er15    9.999   1_455     S
Er16     V19    10.0   .     S
Er16     Er65    10.001   .     S
V17     Er21    10.0   .     S
V17     Ti20    10.0   .     S
V17     V62    10.0   .     S
V18     Ti20    10.0   .     S
V18     V73    10.0   .     S
V19     Ti20    10.0   .     S
V19     V85    10.0   .     S
Er21     Er22    9.999   1_556     S
Er21     Er72    10.001   .     S
Er22     Er21    9.999   1_554     S
Er22     V23    10.0   .     S
Er22     Er58    10.001   .     S
V23     Ti26    10.0   .     S
V23     V99    10.0   .     S
V24     Ti26    10.0   .     S
V24     V111    10.0   .     S
V25     Er37    10.0   .     S
V25     Ti26    10.0   .     S
V25     V79    10.0   .     S
V27     Ti30    10.0   .     S
V27     V109    10.0   .     S
V28     Er39    10.0   .     S
V28     Ti30    10.0   .     S
V28     V89    10.0   .     S
V29     Er32    10.0   .     S
V29     Ti30    10.0   .     S
V29     V81    10.0   .     S
Er31     Er32    9.999   1_655     S
Er31     V33    10.0   .     S
Er31     Er68    10.001   .     S
Er32     Er31    9.999   1_455     S
Er32     Er66    10.001   .     S
V33     Ti36    10.0   .     S
V33     V63    10.0   .     S
V34     Ti36    10.0   .     S
V34     V83    10.0   .     S
V35     Ti36    10.0   .     S
V35     V103    10.0   .     S
Er37     Er38    9.999   .     S
Er37     Er93    10.001   .     S
Er38     V43    10.0   .     S
Er38     Er77    10.001   .     S
Er39     Er40    9.999   .     S
Er39     Er108    10.001   .     S
Er40     V42    10.0   .     S
Er40     Er87    10.001   .     S
V41     Er52    10.0   .     S
V41     Ti44    10.0   .     S
V41     V74    10.0   .     S
V42     Ti44    10.0   .     S
V42     V102    10.0   .     S
V43     Ti44    10.0   .     S
V43     V84    10.0   .     S
Er45     Er46    9.999   1_565     S
Er45     V49    10.0   .     S
Er45     Er70    10.001   .     S
Er46     Er45    9.999   1_545     S
Er46     V55    10.0   .     S
Er46     Er60    10.001   .     S
V47     Ti50    10.0   .     S
V47     V101    10.0   .     S
V48     Ti50    10.0   .     S
V48     V75    10.0   .     S
V49     Ti50    10.0   .     S
V49     V61    10.0   .     S
Er51     Er52    9.999   .     S
Er51     V53    10.0   .     S
Er51     Er105    10.001   .     S
Er52     Er95    10.001   .     S
V53     Ti56    10.0   .     S
V53     V97    10.0   .     S
V54     Ti56    10.0   .     S
V54     V110    10.0   .     S
V55     Ti56    10.0   .     S
V55     V91    10.0   .     S
Er57     Er58    9.999   1_655     S
Er57     V79    10.0   1_655     S
Er58     Er57    9.999   1_455     S
Er58     V61    10.0   1_455     S
Er59     Er60    9.999   1_556     S
Er59     V97    10.0   1_556     S
Er60     Er59    9.999   1_554     S
Er60     V63    10.0   1_554     S
V61     Er58    10.0   1_655     S
V61     Ti64    10.0   1_554     S
V62     Er66    10.0   1_565     S
V62     Ti64    10.0   1_455     S
V63     Er60    10.0   1_556     S
V63     Ti64    10.0   1_545     S
Ti64     V61    10.0   1_556     S
Ti64     V62    10.0   1_655     S
Ti64     V63    10.0   1_565     S
Er65     Er66    9.999   1_565     S
Er65     V89    10.0   1_565     S
Er66     V62    10.0   1_545     S
Er66     Er65    9.999   1_545     S
Er67     Er68    9.999   .     S
Er67     V83    10.0   .     S
Er68     V80    10.0   .     S
Er69     Er70    9.999   .     S
Er69     V101    10.0   .     S
Er70     V90    10.0   .     S
Er71     Er72    9.999   .     S
Er71     V73    10.0   .     S
Er72     V98    10.0   .     S
V73     Ti76    10.0   1_556     S
V74     Er78    10.0   1_554     S
V74     Ti76    10.0   .     S
V75     Er105    10.0   .     S
V75     Ti76    10.0   .     S
Ti76     V73    10.0   1_554     S
Er77     Er78    9.999   1_554     S
Er77     V81    10.0   1_554     S
Er78     V74    10.0   1_556     S
Er78     Er77    9.999   1_556     S
V79     Er57    10.0   1_455     S
V79     Ti82    10.0   1_554     S
V80     Ti82    10.0   1_655     S
V81     Er77    10.0   1_556     S
V81     Ti82    10.0   .     S
Ti82     V79    10.0   1_556     S
Ti82     V80    10.0   1_455     S
V83     Ti86    10.0   1_655     S
V84     Er88    10.0   1_455     S
V84     Ti86    10.0   .     S
V85     Er93    10.0   .     S
V85     Ti86    10.0   .     S
Ti86     V83    10.0   1_455     S
Er87     Er88    9.999   1_455     S
Er87     V91    10.0   1_455     S
Er88     V84    10.0   1_655     S
Er88     Er87    9.999   1_655     S
V89     Er65    10.0   1_545     S
V89     Ti92    10.0   1_455     S
V90     Ti92    10.0   1_565     S
V91     Er87    10.0   1_655     S
V91     Ti92    10.0   .     S
Ti92     V89    10.0   1_655     S
Ti92     V90    10.0   1_545     S
Er93     Er94    9.999   .     S
Er94     V111    10.0   .     S
Er95     Er96    9.999   1_545     S
Er95     V99    10.0   1_545     S
Er96     Er95    9.999   1_565     S
Er96     V102    10.0   1_565     S
V97     Er59    10.0   1_554     S
V97     Ti100    10.0   1_545     S
V98     Ti100    10.0   1_556     S
V99     Er95    10.0   1_565     S
V99     Ti100    10.0   .     S
Ti100     V97    10.0   1_565     S
Ti100     V98    10.0   1_554     S
V101     Ti104    10.0   1_565     S
V102     Er96    10.0   1_545     S
V102     Ti104    10.0   .     S
V103     Er108    10.0   .     S
V103     Ti104    10.0   .     S
Ti104     V101    10.0   1_545     S
Er105     Er106    9.999   .     S
Er106     V110    10.0   .     S
Er107     Er108    9.999   .     S
Er107     V109    10.0   .     S
V109     Ti112    10.0   .     S
V110     Ti112    10.0   .     S
V111     Ti112    10.0   .     S
