data_kgq
_audit_creation_date              2020-02-04
_audit_creation_method            'Pymatgen'
_symmetry_space_group_name_H-M    'P1'
_symmetry_Int_Tables_number       1
loop_
_symmetry_equiv_pos_as_xyz
  x,y,z
_cell_length_a                    70.7326
_cell_length_b                    70.7326
_cell_length_c                    70.7326
_cell_angle_alpha                 90.0
_cell_angle_beta                 90.0
_cell_angle_gamma                 90.0
loop_
_atom_site_label
_atom_site_type_symbol
_atom_site_fract_x
_atom_site_fract_y
_atom_site_fract_z
Ti1     Ti     0.9618   0.9618   0.9618
Ti2     Ti     0.2882   0.2882   0.2882
Ti3     Ti     0.7882   0.7882   0.7882
Ti4     Ti     0.4618   0.4618   0.4618
Ti5     Ti     0.2882   0.7118   0.2118
Ti6     Ti     0.7118   0.7882   0.2118
Ti7     Ti     0.7882   0.2118   0.7118
Ti8     Ti     0.2118   0.7118   0.7882
Ti9     Ti     0.9618   0.0382   0.5382
Ti10     Ti     0.7118   0.2118   0.2882
Ti11     Ti     0.2118   0.2882   0.7118
Ti12     Ti     0.5382   0.0382   0.4618
Ti13     Ti     0.4618   0.5382   0.0382
Ti14     Ti     0.0382   0.4618   0.5382
Ti15     Ti     0.5382   0.9618   0.0382
Ti16     Ti     0.0382   0.5382   0.9618
Er17     Er     0.3704   0.8233   0.1834
V18     V     0.4364   0.9293   0.2496
Er19     Er     0.5666   0.9267   0.3796
V20     V     0.5004   0.8207   0.3136
V21     V     0.3207   0.8136   0.0004
Er22     Er     0.4267   0.8796   0.0666
V23     V     0.4293   0.7496   0.9364
Er24     Er     0.3233   0.6834   0.8704
V25     V     0.8136   0.0004   0.3207
Er26     Er     0.8796   0.0666   0.4267
V27     V     0.7496   0.9364   0.4293
Er28     Er     0.6834   0.8704   0.3233
Er29     Er     0.8233   0.1834   0.3704
V30     V     0.9293   0.2496   0.4364
V31     V     0.8207   0.3136   0.5004
Er32     Er     0.9267   0.3796   0.5666
V33     V     0.0004   0.3207   0.8136
Er34     Er     0.0666   0.4267   0.8796
Er35     Er     0.8704   0.3233   0.6834
V36     V     0.9364   0.4293   0.7496
Er37     Er     0.3796   0.5666   0.9267
V38     V     0.3136   0.5004   0.8207
Er39     Er     0.1834   0.3704   0.8233
V40     V     0.2496   0.4364   0.9293
Er41     Er     0.8166   0.1296   0.8233
V42     V     0.7504   0.0636   0.9293
Er43     Er     0.6204   0.9334   0.9267
V44     V     0.6864   0.9996   0.8207
V45     V     0.4996   0.6793   0.3136
Er46     Er     0.4334   0.5733   0.3796
Er47     Er     0.6296   0.6767   0.1834
V48     V     0.5636   0.5707   0.2496
Er49     Er     0.1204   0.4334   0.4267
V50     V     0.1864   0.4996   0.3207
V51     V     0.2504   0.5636   0.4293
Er52     Er     0.3166   0.6296   0.3233
V53     V     0.0636   0.0707   0.7496
Er54     Er     0.1296   0.1767   0.6834
V55     V     0.9996   0.1793   0.8136
Er56     Er     0.9334   0.0733   0.8796
V57     V     0.0707   0.2504   0.4364
Er58     Er     0.1767   0.3166   0.3704
Er59     Er     0.0733   0.1204   0.5666
V60     V     0.1793   0.1864   0.5004
V61     V     0.6793   0.6864   0.0004
Er62     Er     0.5733   0.6204   0.0666
V63     V     0.5707   0.7504   0.9364
Er64     Er     0.6767   0.8166   0.8704
V65     V     0.4364   0.0707   0.2504
Er66     Er     0.3704   0.1767   0.3166
Er67     Er     0.5666   0.0733   0.1204
V68     V     0.5004   0.1793   0.1864
Er69     Er     0.4267   0.1204   0.4334
V70     V     0.3207   0.1864   0.4996
Er71     Er     0.3233   0.3166   0.6296
V72     V     0.4293   0.2504   0.5636
V73     V     0.3136   0.4996   0.6793
Er74     Er     0.3796   0.4334   0.5733
Er75     Er     0.1834   0.6296   0.6767
V76     V     0.2496   0.5636   0.5707
V77     V     0.0004   0.6793   0.6864
Er78     Er     0.0666   0.5733   0.6204
Er79     Er     0.8704   0.6767   0.8166
V80     V     0.9364   0.5707   0.7504
Er81     Er     0.8233   0.8166   0.1296
V82     V     0.9293   0.7504   0.0636
Er83     Er     0.9267   0.6204   0.9334
V84     V     0.8207   0.6864   0.9996
V85     V     0.7496   0.0636   0.0707
Er86     Er     0.6834   0.1296   0.1767
V87     V     0.8136   0.9996   0.1793
Er88     Er     0.8796   0.9334   0.0733
V89     V     0.0707   0.7496   0.0636
Er90     Er     0.1767   0.6834   0.1296
V91     V     0.1793   0.8136   0.9996
Er92     Er     0.0733   0.8796   0.9334
V93     V     0.2504   0.4364   0.0707
Er94     Er     0.3166   0.3704   0.1767
Er95     Er     0.1204   0.5666   0.0733
V96     V     0.1864   0.5004   0.1793
Er97     Er     0.4334   0.4267   0.1204
V98     V     0.4996   0.3207   0.1864
V99     V     0.5636   0.4293   0.2504
Er100     Er     0.6296   0.3233   0.3166
V101     V     0.6793   0.3136   0.4996
Er102     Er     0.5733   0.3796   0.4334
Er103     Er     0.6767   0.1834   0.6296
V104     V     0.5707   0.2496   0.5636
V105     V     0.6864   0.0004   0.6793
Er106     Er     0.6204   0.0666   0.5733
Er107     Er     0.8166   0.8704   0.6767
V108     V     0.7504   0.9364   0.5707
Er109     Er     0.1296   0.8233   0.8166
V110     V     0.0636   0.9293   0.7504
V111     V     0.9996   0.8207   0.6864
Er112     Er     0.9334   0.9267   0.6204
loop_
_geom_bond_atom_site_label_1
_geom_bond_atom_site_label_2
_geom_bond_distance
_geom_bond_site_symmetry_2
_ccdc_geom_bond_type
Ti1     Er92    10.0   1_655     S
Ti1     Er56    10.0   1_565     S
Ti1     Er88    10.0   1_556     S
Ti2     Er58    10.0   .     S
Ti2     Er66    10.0   .     S
Ti2     Er94    10.0   .     S
Ti3     Er79    10.0   .     S
Ti3     Er64    10.0   .     S
Ti3     Er107    10.0   .     S
Ti4     Er46    10.0   .     S
Ti4     Er102    10.0   .     S
Ti4     Er74    10.0   .     S
Ti5     Er52    10.0   .     S
Ti5     Er90    10.0   .     S
Ti5     Er17    10.0   .     S
Ti6     Er28    10.0   .     S
Ti6     Er47    10.0   .     S
Ti6     Er81    10.0   .     S
Ti7     Er35    10.0   .     S
Ti7     Er103    10.0   .     S
Ti7     Er41    10.0   .     S
Ti8     Er24    10.0   .     S
Ti8     Er75    10.0   .     S
Ti8     Er109    10.0   .     S
Ti9     Er26    10.0   .     S
Ti9     Er59    10.0   1_655     S
Ti9     Er112    10.0   1_545     S
Ti10     Er100    10.0   .     S
Ti10     Er86    10.0   .     S
Ti10     Er29    10.0   .     S
Ti11     Er71    10.0   .     S
Ti11     Er54    10.0   .     S
Ti11     Er39    10.0   .     S
Ti12     Er69    10.0   .     S
Ti12     Er106    10.0   .     S
Ti12     Er19    10.0   1_545     S
Ti13     Er97    10.0   .     S
Ti13     Er62    10.0   .     S
Ti13     Er37    10.0   1_554     S
Ti14     Er49    10.0   .     S
Ti14     Er32    10.0   1_455     S
Ti14     Er78    10.0   .     S
Ti15     Er22    10.0   .     S
Ti15     Er67    10.0   1_565     S
Ti15     Er43    10.0   1_554     S
Ti16     Er34    10.0   .     S
Ti16     Er95    10.0   1_556     S
Ti16     Er83    10.0   1_455     S
Er17     V18    10.0   .     S
Er17     Er22    10.0   .     S
V18     V20    10.0   .     S
V18     V65    10.0   1_565     S
Er19     Ti12    10.0   1_565     S
Er19     V20    10.0   .     S
Er19     Er28    10.0   .     S
V20     V45    10.0   .     S
V21     Er22    10.0   .     S
V21     V23    10.0   1_554     S
V21     V91    10.0   1_554     S
V23     Er24    10.0   .     S
V23     V21    10.0   1_556     S
V23     V63    10.0   .     S
Er24     Er37    10.0   .     S
V25     Er26    10.0   .     S
V25     V27    10.0   1_545     S
V25     V87    10.0   1_545     S
Er26     Er29    10.0   .     S
V27     Er28    10.0   .     S
V27     V25    10.0   1_565     S
V27     V108    10.0   .     S
Er29     V30    10.0   .     S
V30     V31    10.0   .     S
V30     V57    10.0   1_655     S
V31     Er32    10.0   .     S
V31     V101    10.0   .     S
Er32     Ti14    10.0   1_655     S
Er32     Er35    10.0   .     S
V33     Er34    10.0   .     S
V33     V36    10.0   1_455     S
V33     V55    10.0   1_455     S
Er34     Er39    10.0   .     S
Er35     V36    10.0   .     S
V36     V33    10.0   1_655     S
V36     V80    10.0   .     S
Er37     Ti13    10.0   1_556     S
Er37     V38    10.0   .     S
V38     V40    10.0   .     S
V38     V73    10.0   .     S
Er39     V40    10.0   .     S
V40     V93    10.0   1_556     S
Er41     V42    10.0   .     S
Er41     Er56    10.0   .     S
V42     V44    10.0   1_545     S
V42     V85    10.0   1_556     S
Er43     Ti15    10.0   1_556     S
Er43     V44    10.0   .     S
Er43     Er64    10.0   .     S
V44     V42    10.0   1_565     S
V44     V105    10.0   1_565     S
V45     Er46    10.0   .     S
V45     V48    10.0   .     S
Er46     Er52    10.0   .     S
Er47     V48    10.0   .     S
Er47     Er62    10.0   .     S
V48     V99    10.0   .     S
Er49     V50    10.0   .     S
Er49     Er58    10.0   .     S
V50     V51    10.0   .     S
V50     V96    10.0   .     S
V51     Er52    10.0   .     S
V51     V76    10.0   .     S
V53     Er54    10.0   .     S
V53     V55    10.0   1_455     S
V53     V110    10.0   1_545     S
Er54     Er59    10.0   .     S
V55     V33    10.0   1_655     S
V55     Er56    10.0   .     S
V55     V53    10.0   1_655     S
Er56     Ti1    10.0   1_545     S
V57     V30    10.0   1_455     S
V57     Er58    10.0   .     S
V57     V60    10.0   .     S
Er59     Ti9    10.0   1_455     S
Er59     V60    10.0   .     S
V60     V70    10.0   .     S
V61     Er62    10.0   .     S
V61     V63    10.0   1_554     S
V61     V84    10.0   1_554     S
V63     Er64    10.0   .     S
V63     V61    10.0   1_556     S
V65     V18    10.0   1_545     S
V65     Er66    10.0   .     S
V65     V68    10.0   .     S
Er66     Er69    10.0   .     S
Er67     Ti15    10.0   1_545     S
Er67     V68    10.0   .     S
Er67     Er86    10.0   .     S
V68     V98    10.0   .     S
Er69     V70    10.0   .     S
V70     V72    10.0   .     S
Er71     V72    10.0   .     S
Er71     Er74    10.0   .     S
V72     V104    10.0   .     S
V73     Er74    10.0   .     S
V73     V76    10.0   .     S
Er75     V76    10.0   .     S
Er75     Er78    10.0   .     S
V77     Er78    10.0   .     S
V77     V80    10.0   1_455     S
V77     V111    10.0   1_455     S
Er79     V80    10.0   .     S
Er79     Er83    10.0   .     S
V80     V77    10.0   1_655     S
Er81     V82    10.0   .     S
Er81     Er88    10.0   .     S
V82     V84    10.0   1_554     S
V82     V89    10.0   1_655     S
Er83     Ti16    10.0   1_655     S
Er83     V84    10.0   .     S
V84     V82    10.0   1_556     S
V84     V61    10.0   1_556     S
V85     Er86    10.0   .     S
V85     V87    10.0   1_545     S
V85     V42    10.0   1_554     S
V87     V25    10.0   1_565     S
V87     Er88    10.0   .     S
V87     V85    10.0   1_565     S
Er88     Ti1    10.0   1_554     S
V89     V82    10.0   1_455     S
V89     Er90    10.0   .     S
V89     V91    10.0   1_554     S
Er90     Er95    10.0   .     S
V91     V21    10.0   1_556     S
V91     Er92    10.0   .     S
V91     V89    10.0   1_556     S
Er92     Ti1    10.0   1_455     S
Er92     Er109    10.0   .     S
V93     V40    10.0   1_554     S
V93     Er94    10.0   .     S
V93     V96    10.0   .     S
Er94     Er97    10.0   .     S
Er95     Ti16    10.0   1_554     S
Er95     V96    10.0   .     S
Er97     V98    10.0   .     S
V98     V99    10.0   .     S
V99     Er100    10.0   .     S
Er100     Er102    10.0   .     S
V101     Er102    10.0   .     S
V101     V104    10.0   .     S
Er103     V104    10.0   .     S
Er103     Er106    10.0   .     S
V105     V44    10.0   1_545     S
V105     Er106    10.0   .     S
V105     V108    10.0   1_545     S
Er107     V108    10.0   .     S
Er107     Er112    10.0   .     S
V108     V105    10.0   1_565     S
Er109     V110    10.0   .     S
V110     V111    10.0   1_455     S
V110     V53    10.0   1_565     S
V111     Er112    10.0   .     S
V111     V110    10.0   1_655     S
V111     V77    10.0   1_655     S
Er112     Ti9    10.0   1_565     S
