data_kgr
_audit_creation_date              2020-02-04
_audit_creation_method            'Pymatgen'
_symmetry_space_group_name_H-M    'P1'
_symmetry_Int_Tables_number       1
loop_
_symmetry_equiv_pos_as_xyz
  x,y,z
_cell_length_a                    79.9979
_cell_length_b                    79.9979
_cell_length_c                    79.9979
_cell_angle_alpha                 90.0
_cell_angle_beta                 90.0
_cell_angle_gamma                 90.0
loop_
_atom_site_label
_atom_site_type_symbol
_atom_site_fract_x
_atom_site_fract_y
_atom_site_fract_z
V1     V     0.6588   0.8412   0.6588
V2     V     0.8412   0.8412   0.8412
V3     V     0.9088   0.0912   0.5912
V4     V     0.0912   0.4088   0.0912
V5     V     0.1588   0.3412   0.6588
V6     V     0.4088   0.5912   0.5912
V7     V     0.8412   0.3412   0.3412
V8     V     0.4088   0.9088   0.9088
V9     V     0.4088   0.0912   0.0912
V10     V     0.3412   0.3412   0.8412
V11     V     0.3412   0.8412   0.3412
V12     V     0.9088   0.9088   0.4088
V13     V     0.9088   0.4088   0.9088
V14     V     0.0912   0.0912   0.4088
V15     V     0.4088   0.4088   0.4088
V16     V     0.6588   0.3412   0.1588
V17     V     0.5912   0.0912   0.9088
V18     V     0.9088   0.5912   0.0912
V19     V     0.5912   0.9088   0.0912
V20     V     0.0912   0.5912   0.9088
V21     V     0.8412   0.1588   0.1588
V22     V     0.3412   0.1588   0.6588
V23     V     0.3412   0.6588   0.1588
V24     V     0.5912   0.5912   0.4088
V25     V     0.1588   0.8412   0.1588
V26     V     0.0912   0.9088   0.5912
V27     V     0.1588   0.1588   0.8412
V28     V     0.1588   0.6588   0.3412
V29     V     0.5912   0.4088   0.5912
V30     V     0.6588   0.1588   0.3412
V31     V     0.8412   0.6588   0.6588
V32     V     0.6588   0.6588   0.8412
Ti33     Ti     0.5332   0.3049   0.6296
Ti34     Ti     0.4451   0.2168   0.6204
Ti35     Ti     0.2832   0.1204   0.5549
Ti36     Ti     0.1951   0.1296   0.4668
Ti37     Ti     0.7168   0.6204   0.9451
Ti38     Ti     0.8049   0.6296   0.0332
Ti39     Ti     0.4668   0.3049   0.3704
Ti40     Ti     0.5549   0.2168   0.3796
Ti41     Ti     0.5332   0.8049   0.1296
Ti42     Ti     0.4451   0.7168   0.1204
Er43     Er     0.4996   0.9375   0.249
Er44     Er     0.499   0.8125   0.2496
Er45     Er     0.501   0.1875   0.2496
Er46     Er     0.5004   0.0625   0.249
Er47     Er     0.501   0.3125   0.2504
Er48     Er     0.5004   0.4375   0.251
Er49     Er     0.499   0.6875   0.2504
Er50     Er     0.4996   0.5625   0.251
Ti51     Ti     0.4451   0.7832   0.3796
Ti52     Ti     0.5332   0.6951   0.3704
Ti53     Ti     0.6296   0.9668   0.1951
Ti54     Ti     0.6204   0.0549   0.2832
Ti55     Ti     0.6204   0.9451   0.7168
Ti56     Ti     0.6296   0.0332   0.8049
Ti57     Ti     0.5549   0.7832   0.6204
Ti58     Ti     0.4668   0.6951   0.6296
Ti59     Ti     0.9451   0.2832   0.3796
Ti60     Ti     0.0332   0.1951   0.3704
Ti61     Ti     0.9668   0.8049   0.3704
Ti62     Ti     0.0549   0.7168   0.3796
Er63     Er     0.0004   0.9375   0.251
Er64     Er     0.001   0.8125   0.2504
Er65     Er     0.999   0.1875   0.2504
Er66     Er     0.9996   0.0625   0.251
Er67     Er     0.999   0.3125   0.2496
Er68     Er     0.9996   0.4375   0.249
Er69     Er     0.001   0.6875   0.2496
Er70     Er     0.0004   0.5625   0.249
Ti71     Ti     0.9451   0.2168   0.1204
Ti72     Ti     0.0332   0.3049   0.1296
Ti73     Ti     0.7832   0.3796   0.4451
Ti74     Ti     0.6951   0.3704   0.5332
Ti75     Ti     0.2168   0.3796   0.5549
Ti76     Ti     0.3049   0.3704   0.4668
Er77     Er     0.9375   0.249   0.4996
Er78     Er     0.8125   0.2496   0.499
Er79     Er     0.6875   0.2504   0.499
Er80     Er     0.5625   0.251   0.4996
Er81     Er     0.3125   0.2504   0.501
Er82     Er     0.4375   0.251   0.5004
Er83     Er     0.1875   0.2496   0.501
Er84     Er     0.0625   0.249   0.5004
Ti85     Ti     0.8049   0.1296   0.5332
Ti86     Ti     0.7168   0.1204   0.4451
Ti87     Ti     0.6951   0.1296   0.9668
Ti88     Ti     0.7832   0.1204   0.0549
Ti89     Ti     0.8796   0.9451   0.7832
Ti90     Ti     0.8704   0.0332   0.6951
Er91     Er     0.749   0.9996   0.9375
Er92     Er     0.7496   0.999   0.8125
Er93     Er     0.7496   0.001   0.1875
Er94     Er     0.749   0.0004   0.0625
Er95     Er     0.7504   0.001   0.3125
Er96     Er     0.751   0.0004   0.4375
Er97     Er     0.7504   0.999   0.6875
Er98     Er     0.751   0.9996   0.5625
Ti99     Ti     0.8796   0.0549   0.2168
Ti100     Ti     0.8704   0.9668   0.3049
Ti101     Ti     0.3049   0.6296   0.5332
Ti102     Ti     0.2168   0.6204   0.4451
Ti103     Ti     0.8049   0.8704   0.4668
Ti104     Ti     0.7168   0.8796   0.5549
Er105     Er     0.9375   0.751   0.5004
Er106     Er     0.8125   0.7504   0.501
Er107     Er     0.6875   0.7496   0.501
Er108     Er     0.5625   0.749   0.5004
Er109     Er     0.3125   0.7496   0.499
Er110     Er     0.4375   0.749   0.4996
Er111     Er     0.1875   0.7504   0.499
Er112     Er     0.0625   0.751   0.4996
Ti113     Ti     0.1951   0.8704   0.5332
Ti114     Ti     0.2832   0.8796   0.4451
Ti115     Ti     0.9451   0.7168   0.6204
Ti116     Ti     0.0332   0.8049   0.6296
Ti117     Ti     0.1951   0.6296   0.9668
Ti118     Ti     0.2832   0.6204   0.0549
Ti119     Ti     0.5549   0.2832   0.1204
Ti120     Ti     0.4668   0.1951   0.1296
Ti121     Ti     0.9668   0.1951   0.6296
Ti122     Ti     0.0549   0.2832   0.6204
Ti123     Ti     0.6951   0.6296   0.4668
Ti124     Ti     0.7832   0.6204   0.5549
Ti125     Ti     0.6296   0.5332   0.3049
Ti126     Ti     0.6204   0.4451   0.2168
Ti127     Ti     0.8704   0.4668   0.8049
Ti128     Ti     0.8796   0.5549   0.7168
Er129     Er     0.751   0.5004   0.9375
Er130     Er     0.7504   0.501   0.8125
Er131     Er     0.7496   0.501   0.6875
Er132     Er     0.749   0.5004   0.5625
Er133     Er     0.7496   0.499   0.3125
Er134     Er     0.749   0.4996   0.4375
Er135     Er     0.7504   0.499   0.1875
Er136     Er     0.751   0.4996   0.0625
Ti137     Ti     0.8704   0.5332   0.1951
Ti138     Ti     0.8796   0.4451   0.2832
Ti139     Ti     0.3796   0.5549   0.2168
Ti140     Ti     0.3704   0.4668   0.3049
Ti141     Ti     0.9451   0.7832   0.8796
Ti142     Ti     0.0332   0.6951   0.8704
Er143     Er     0.9996   0.9375   0.749
Er144     Er     0.999   0.8125   0.7496
Er145     Er     0.001   0.1875   0.7496
Er146     Er     0.0004   0.0625   0.749
Er147     Er     0.001   0.3125   0.7504
Er148     Er     0.0004   0.4375   0.751
Er149     Er     0.999   0.6875   0.7504
Er150     Er     0.9996   0.5625   0.751
Ti151     Ti     0.9668   0.3049   0.8704
Ti152     Ti     0.0549   0.2168   0.8796
Ti153     Ti     0.1204   0.5549   0.2832
Ti154     Ti     0.1296   0.4668   0.1951
Ti155     Ti     0.3704   0.5332   0.6951
Ti156     Ti     0.3796   0.4451   0.7832
Er157     Er     0.249   0.4996   0.9375
Er158     Er     0.2496   0.499   0.8125
Er159     Er     0.2504   0.499   0.6875
Er160     Er     0.251   0.4996   0.5625
Er161     Er     0.2504   0.501   0.3125
Er162     Er     0.251   0.5004   0.4375
Er163     Er     0.2496   0.501   0.1875
Er164     Er     0.249   0.5004   0.0625
Ti165     Ti     0.1296   0.5332   0.8049
Ti166     Ti     0.1204   0.4451   0.7168
Ti167     Ti     0.2832   0.3796   0.9451
Ti168     Ti     0.1951   0.3704   0.0332
Ti169     Ti     0.8049   0.3704   0.9668
Ti170     Ti     0.7168   0.3796   0.0549
Er171     Er     0.9375   0.251   0.0004
Er172     Er     0.8125   0.2504   0.001
Er173     Er     0.1875   0.2504   0.999
Er174     Er     0.0625   0.251   0.9996
Er175     Er     0.6875   0.2496   0.001
Er176     Er     0.5625   0.249   0.0004
Er177     Er     0.3125   0.2496   0.999
Er178     Er     0.4375   0.249   0.9996
Ti179     Ti     0.2168   0.1204   0.9451
Ti180     Ti     0.3049   0.1296   0.0332
Ti181     Ti     0.3796   0.9451   0.2832
Ti182     Ti     0.3704   0.0332   0.1951
Ti183     Ti     0.3704   0.9668   0.8049
Ti184     Ti     0.3796   0.0549   0.7168
Ti185     Ti     0.1204   0.0549   0.7832
Ti186     Ti     0.1296   0.9668   0.6951
Er187     Er     0.251   0.0004   0.9375
Er188     Er     0.2504   0.001   0.8125
Er189     Er     0.2504   0.999   0.1875
Er190     Er     0.251   0.9996   0.0625
Er191     Er     0.2496   0.999   0.3125
Er192     Er     0.249   0.9996   0.4375
Er193     Er     0.2496   0.001   0.6875
Er194     Er     0.249   0.0004   0.5625
Ti195     Ti     0.1204   0.9451   0.2168
Ti196     Ti     0.1296   0.0332   0.3049
Ti197     Ti     0.6296   0.4668   0.6951
Ti198     Ti     0.6204   0.5549   0.7832
Ti199     Ti     0.4668   0.8049   0.8704
Ti200     Ti     0.5549   0.7168   0.8796
Er201     Er     0.5004   0.9375   0.751
Er202     Er     0.501   0.8125   0.7504
Er203     Er     0.501   0.6875   0.7496
Er204     Er     0.5004   0.5625   0.749
Er205     Er     0.499   0.3125   0.7496
Er206     Er     0.4996   0.4375   0.749
Er207     Er     0.499   0.1875   0.7504
Er208     Er     0.4996   0.0625   0.751
Ti209     Ti     0.5332   0.1951   0.8704
Ti210     Ti     0.4451   0.2832   0.8796
Ti211     Ti     0.9668   0.6951   0.1296
Ti212     Ti     0.0549   0.7832   0.1204
Ti213     Ti     0.7832   0.8796   0.9451
Ti214     Ti     0.6951   0.8704   0.0332
Er215     Er     0.9375   0.749   0.9996
Er216     Er     0.8125   0.7496   0.999
Er217     Er     0.1875   0.7496   0.001
Er218     Er     0.0625   0.749   0.0004
Er219     Er     0.3125   0.7504   0.001
Er220     Er     0.4375   0.751   0.0004
Er221     Er     0.6875   0.7504   0.999
Er222     Er     0.5625   0.751   0.9996
Ti223     Ti     0.3049   0.8704   0.9668
Ti224     Ti     0.2168   0.8796   0.0549
loop_
_geom_bond_atom_site_label_1
_geom_bond_atom_site_label_2
_geom_bond_distance
_geom_bond_site_symmetry_2
_ccdc_geom_bond_type
V1     Ti57    10.0   .     S
V1     Ti55    10.0   .     S
V1     Ti104    10.0   .     S
V2     Ti213    10.0   .     S
V2     Ti141    10.0   .     S
V2     Ti89    10.0   .     S
V3     Ti90    10.0   .     S
V3     Ti85    10.0   .     S
V3     Ti121    10.0   .     S
V4     Ti154    10.0   .     S
V4     Ti168    10.0   .     S
V4     Ti72    10.0   .     S
V5     Ti75    10.0   .     S
V5     Ti166    10.0   .     S
V5     Ti122    10.0   .     S
V6     Ti155    10.0   .     S
V6     Ti58    10.0   .     S
V6     Ti101    10.0   .     S
V7     Ti59    10.0   .     S
V7     Ti73    10.0   .     S
V7     Ti138    10.0   .     S
V8     Ti199    10.0   .     S
V8     Ti183    10.0   .     S
V8     Ti223    10.0   .     S
V9     Ti120    10.0   .     S
V9     Ti182    10.0   .     S
V9     Ti180    10.0   .     S
V10     Ti167    10.0   .     S
V10     Ti156    10.0   .     S
V10     Ti210    10.0   .     S
V11     Ti181    10.0   .     S
V11     Ti51    10.0   .     S
V11     Ti114    10.0   .     S
V12     Ti103    10.0   .     S
V12     Ti61    10.0   .     S
V12     Ti100    10.0   .     S
V13     Ti127    10.0   .     S
V13     Ti169    10.0   .     S
V13     Ti151    10.0   .     S
V14     Ti60    10.0   .     S
V14     Ti36    10.0   .     S
V14     Ti196    10.0   .     S
V15     Ti140    10.0   .     S
V15     Ti39    10.0   .     S
V15     Ti76    10.0   .     S
V16     Ti119    10.0   .     S
V16     Ti126    10.0   .     S
V16     Ti170    10.0   .     S
V17     Ti87    10.0   .     S
V17     Ti56    10.0   .     S
V17     Ti209    10.0   .     S
V18     Ti137    10.0   .     S
V18     Ti211    10.0   .     S
V18     Ti38    10.0   .     S
V19     Ti41    10.0   .     S
V19     Ti53    10.0   .     S
V19     Ti214    10.0   .     S
V20     Ti165    10.0   .     S
V20     Ti117    10.0   .     S
V20     Ti142    10.0   .     S
V21     Ti71    10.0   .     S
V21     Ti88    10.0   .     S
V21     Ti99    10.0   .     S
V22     Ti34    10.0   .     S
V22     Ti184    10.0   .     S
V22     Ti35    10.0   .     S
V23     Ti42    10.0   .     S
V23     Ti118    10.0   .     S
V23     Ti139    10.0   .     S
V24     Ti123    10.0   .     S
V24     Ti125    10.0   .     S
V24     Ti52    10.0   .     S
V25     Ti195    10.0   .     S
V25     Ti212    10.0   .     S
V25     Ti224    10.0   .     S
V26     Ti113    10.0   .     S
V26     Ti116    10.0   .     S
V26     Ti186    10.0   .     S
V27     Ti179    10.0   .     S
V27     Ti185    10.0   .     S
V27     Ti152    10.0   .     S
V28     Ti62    10.0   .     S
V28     Ti102    10.0   .     S
V28     Ti153    10.0   .     S
V29     Ti33    10.0   .     S
V29     Ti74    10.0   .     S
V29     Ti197    10.0   .     S
V30     Ti86    10.0   .     S
V30     Ti54    10.0   .     S
V30     Ti40    10.0   .     S
V31     Ti115    10.0   .     S
V31     Ti124    10.0   .     S
V31     Ti128    10.0   .     S
V32     Ti37    10.0   .     S
V32     Ti198    10.0   .     S
V32     Ti200    10.0   .     S
Ti33     Ti34    9.999   .     S
Ti33     Er205    10.001   .     S
Ti34     Er82    10.001   .     S
Ti35     Ti36    9.999   .     S
Ti35     Er194    10.001   .     S
Ti36     Er83    10.001   .     S
Ti37     Ti38    9.999   1_556     S
Ti37     Er129    10.001   .     S
Ti38     Ti37    9.999   1_554     S
Ti38     Er216    10.001   1_554     S
Ti39     Ti40    9.999   .     S
Ti39     Er47    10.001   .     S
Ti40     Er80    10.001   .     S
Ti41     Ti42    9.999   .     S
Ti41     Er44    10.001   .     S
Ti42     Er220    10.001   .     S
Er43     Er44    10.0   .     S
Er43     Er46    10.0   1_565     S
Er43     Ti181    10.001   .     S
Er44     Er49    10.0   .     S
Er45     Er46    10.0   .     S
Er45     Er47    10.0   .     S
Er45     Ti120    10.001   .     S
Er46     Er43    10.0   1_545     S
Er46     Ti54    10.001   .     S
Er47     Er48    10.0   .     S
Er48     Er50    10.0   .     S
Er48     Ti126    10.001   .     S
Er49     Er50    10.0   .     S
Er49     Ti52    10.001   .     S
Er50     Ti139    10.001   .     S
Ti51     Ti52    9.999   .     S
Ti51     Er110    10.001   .     S
Ti53     Ti54    9.999   1_565     S
Ti53     Er93    10.001   1_565     S
Ti54     Ti53    9.999   1_545     S
Ti55     Ti56    9.999   1_565     S
Ti55     Er201    10.001   .     S
Ti56     Ti55    9.999   1_545     S
Ti56     Er92    10.001   1_545     S
Ti57     Ti58    9.999   .     S
Ti57     Er108    10.001   .     S
Ti58     Er203    10.001   .     S
Ti59     Ti60    9.999   1_655     S
Ti59     Er77    10.001   .     S
Ti60     Ti59    9.999   1_455     S
Ti60     Er65    10.001   1_455     S
Ti61     Ti62    9.999   1_655     S
Ti61     Er64    10.001   1_655     S
Ti62     Ti61    9.999   1_455     S
Ti62     Er112    10.001   .     S
Er63     Er64    10.0   .     S
Er63     Er66    10.0   1_465     S
Er63     Ti195    10.001   .     S
Er64     Ti61    10.001   1_455     S
Er64     Er69    10.0   .     S
Er65     Ti60    10.001   1_655     S
Er65     Er66    10.0   .     S
Er65     Er67    10.0   .     S
Er66     Er63    10.0   1_645     S
Er66     Ti99    10.001   .     S
Er67     Er68    10.0   .     S
Er67     Ti72    10.001   1_655     S
Er68     Er70    10.0   1_655     S
Er68     Ti138    10.001   .     S
Er69     Er70    10.0   .     S
Er69     Ti211    10.001   1_455     S
Er70     Er68    10.0   1_455     S
Er70     Ti153    10.001   .     S
Ti71     Ti72    9.999   1_655     S
Ti71     Er171    10.001   .     S
Ti72     Ti71    9.999   1_455     S
Ti72     Er67    10.001   1_455     S
Ti73     Ti74    9.999   .     S
Ti73     Er134    10.001   .     S
Ti74     Er79    10.001   .     S
Ti75     Ti76    9.999   .     S
Ti75     Er160    10.001   .     S
Ti76     Er81    10.001   .     S
Er77     Er78    10.0   .     S
Er77     Er84    10.0   1_655     S
Er78     Er79    10.0   .     S
Er78     Ti85    10.001   .     S
Er79     Er80    10.0   .     S
Er80     Er82    10.0   .     S
Er81     Er82    10.0   .     S
Er81     Er83    10.0   .     S
Er83     Er84    10.0   .     S
Er84     Er77    10.0   1_455     S
Er84     Ti122    10.001   .     S
Ti85     Ti86    9.999   .     S
Ti86     Er96    10.001   .     S
Ti87     Ti88    9.999   1_556     S
Ti87     Er175    10.001   1_556     S
Ti88     Ti87    9.999   1_554     S
Ti88     Er94    10.001   .     S
Ti89     Ti90    9.999   1_565     S
Ti89     Er143    10.001   .     S
Ti90     Ti89    9.999   1_545     S
Ti90     Er97    10.001   1_545     S
Er91     Er92    10.0   .     S
Er91     Er94    10.0   1_566     S
Er91     Ti213    10.001   .     S
Er92     Ti56    10.001   1_565     S
Er92     Er97    10.0   .     S
Er93     Ti53    10.001   1_545     S
Er93     Er94    10.0   .     S
Er93     Er95    10.0   .     S
Er94     Er91    10.0   1_544     S
Er95     Er96    10.0   .     S
Er95     Ti100    10.001   1_545     S
Er96     Er98    10.0   1_545     S
Er97     Ti90    10.001   1_565     S
Er97     Er98    10.0   .     S
Er98     Er96    10.0   1_565     S
Er98     Ti104    10.001   .     S
Ti99     Ti100    9.999   1_545     S
Ti100     Ti99    9.999   1_565     S
Ti100     Er95    10.001   1_565     S
Ti101     Ti102    9.999   .     S
Ti101     Er109    10.001   .     S
Ti102     Er162    10.001   .     S
Ti103     Ti104    9.999   .     S
Ti103     Er106    10.001   .     S
Er105     Er106    10.0   .     S
Er105     Er112    10.0   1_655     S
Er105     Ti115    10.001   .     S
Er106     Er107    10.0   .     S
Er107     Er108    10.0   .     S
Er107     Ti123    10.001   .     S
Er108     Er110    10.0   .     S
Er109     Er110    10.0   .     S
Er109     Er111    10.0   .     S
Er111     Er112    10.0   .     S
Er111     Ti113    10.001   .     S
Er112     Er105    10.0   1_455     S
Ti113     Ti114    9.999   .     S
Ti114     Er192    10.001   .     S
Ti115     Ti116    9.999   1_655     S
Ti116     Ti115    9.999   1_455     S
Ti116     Er144    10.001   1_455     S
Ti117     Ti118    9.999   1_556     S
Ti117     Er217    10.001   1_556     S
Ti118     Ti117    9.999   1_554     S
Ti118     Er164    10.001   .     S
Ti119     Ti120    9.999   .     S
Ti119     Er176    10.001   .     S
Ti121     Ti122    9.999   1_655     S
Ti121     Er145    10.001   1_655     S
Ti122     Ti121    9.999   1_455     S
Ti123     Ti124    9.999   .     S
Ti124     Er132    10.001   .     S
Ti125     Ti126    9.999   .     S
Ti125     Er133    10.001   .     S
Ti127     Ti128    9.999   .     S
Ti127     Er130    10.001   .     S
Ti128     Er150    10.001   .     S
Er129     Er130    10.0   .     S
Er129     Er136    10.0   1_556     S
Er130     Er131    10.0   .     S
Er131     Er132    10.0   .     S
Er131     Ti197    10.001   .     S
Er132     Er134    10.0   .     S
Er133     Er134    10.0   .     S
Er133     Er135    10.0   .     S
Er135     Er136    10.0   .     S
Er135     Ti137    10.001   .     S
Er136     Er129    10.0   1_554     S
Er136     Ti170    10.001   .     S
Ti137     Ti138    9.999   .     S
Ti139     Ti140    9.999   .     S
Ti140     Er161    10.001   .     S
Ti141     Ti142    9.999   1_655     S
Ti141     Er215    10.001   .     S
Ti142     Ti141    9.999   1_455     S
Ti142     Er149    10.001   1_455     S
Er143     Er144    10.0   .     S
Er143     Er146    10.0   1_665     S
Er144     Ti116    10.001   1_655     S
Er144     Er149    10.0   .     S
Er145     Ti121    10.001   1_455     S
Er145     Er146    10.0   .     S
Er145     Er147    10.0   .     S
Er146     Er143    10.0   1_445     S
Er146     Ti185    10.001   .     S
Er147     Er148    10.0   .     S
Er147     Ti151    10.001   1_455     S
Er148     Er150    10.0   1_455     S
Er148     Ti166    10.001   .     S
Er149     Ti142    10.001   1_655     S
Er149     Er150    10.0   .     S
Er150     Er148    10.0   1_655     S
Ti151     Ti152    9.999   1_655     S
Ti151     Er147    10.001   1_655     S
Ti152     Ti151    9.999   1_455     S
Ti152     Er174    10.001   .     S
Ti153     Ti154    9.999   .     S
Ti154     Er163    10.001   .     S
Ti155     Ti156    9.999   .     S
Ti155     Er159    10.001   .     S
Ti156     Er206    10.001   .     S
Er157     Er158    10.0   .     S
Er157     Er164    10.0   1_556     S
Er157     Ti167    10.001   .     S
Er158     Er159    10.0   .     S
Er158     Ti165    10.001   .     S
Er159     Er160    10.0   .     S
Er160     Er162    10.0   .     S
Er161     Er162    10.0   .     S
Er161     Er163    10.0   .     S
Er163     Er164    10.0   .     S
Er164     Er157    10.0   1_554     S
Ti165     Ti166    9.999   .     S
Ti167     Ti168    9.999   1_556     S
Ti168     Ti167    9.999   1_554     S
Ti168     Er173    10.001   1_554     S
Ti169     Ti170    9.999   1_556     S
Ti169     Er172    10.001   1_556     S
Ti170     Ti169    9.999   1_554     S
Er171     Er172    10.0   .     S
Er171     Er174    10.0   1_654     S
Er172     Ti169    10.001   1_554     S
Er172     Er175    10.0   .     S
Er173     Ti168    10.001   1_556     S
Er173     Er174    10.0   .     S
Er173     Er177    10.0   .     S
Er174     Er171    10.0   1_456     S
Er175     Ti87    10.001   1_554     S
Er175     Er176    10.0   .     S
Er176     Er178    10.0   1_554     S
Er177     Er178    10.0   .     S
Er177     Ti180    10.001   1_556     S
Er178     Er176    10.0   1_556     S
Er178     Ti210    10.001   .     S
Ti179     Ti180    9.999   1_556     S
Ti179     Er187    10.001   .     S
Ti180     Ti179    9.999   1_554     S
Ti180     Er177    10.001   1_554     S
Ti181     Ti182    9.999   1_565     S
Ti182     Ti181    9.999   1_545     S
Ti182     Er189    10.001   1_545     S
Ti183     Ti184    9.999   1_565     S
Ti183     Er188    10.001   1_565     S
Ti184     Ti183    9.999   1_545     S
Ti184     Er208    10.001   .     S
Ti185     Ti186    9.999   1_545     S
Ti186     Ti185    9.999   1_565     S
Ti186     Er193    10.001   1_565     S
Er187     Er188    10.0   .     S
Er187     Er190    10.0   1_546     S
Er188     Ti183    10.001   1_545     S
Er188     Er193    10.0   .     S
Er189     Ti182    10.001   1_565     S
Er189     Er190    10.0   .     S
Er189     Er191    10.0   .     S
Er190     Er187    10.0   1_564     S
Er190     Ti224    10.001   .     S
Er191     Er192    10.0   .     S
Er191     Ti196    10.001   1_565     S
Er192     Er194    10.0   1_565     S
Er193     Ti186    10.001   1_545     S
Er193     Er194    10.0   .     S
Er194     Er192    10.0   1_545     S
Ti195     Ti196    9.999   1_565     S
Ti196     Ti195    9.999   1_545     S
Ti196     Er191    10.001   1_545     S
Ti197     Ti198    9.999   .     S
Ti198     Er204    10.001   .     S
Ti199     Ti200    9.999   .     S
Ti199     Er202    10.001   .     S
Ti200     Er222    10.001   .     S
Er201     Er202    10.0   .     S
Er201     Er208    10.0   1_565     S
Er202     Er203    10.0   .     S
Er203     Er204    10.0   .     S
Er204     Er206    10.0   .     S
Er205     Er206    10.0   .     S
Er205     Er207    10.0   .     S
Er207     Er208    10.0   .     S
Er207     Ti209    10.001   .     S
Er208     Er201    10.0   1_545     S
Ti209     Ti210    9.999   .     S
Ti211     Ti212    9.999   1_655     S
Ti211     Er69    10.001   1_655     S
Ti212     Ti211    9.999   1_455     S
Ti212     Er218    10.001   .     S
Ti213     Ti214    9.999   1_556     S
Ti214     Ti213    9.999   1_554     S
Ti214     Er221    10.001   1_554     S
Er215     Er216    10.0   .     S
Er215     Er218    10.0   1_656     S
Er216     Ti38    10.001   1_556     S
Er216     Er221    10.0   .     S
Er217     Ti117    10.001   1_554     S
Er217     Er218    10.0   .     S
Er217     Er219    10.0   .     S
Er218     Er215    10.0   1_454     S
Er219     Er220    10.0   .     S
Er219     Ti223    10.001   1_554     S
Er220     Er222    10.0   1_554     S
Er221     Ti214    10.001   1_556     S
Er221     Er222    10.0   .     S
Er222     Er220    10.0   1_556     S
Ti223     Ti224    9.999   1_556     S
Ti223     Er219    10.001   1_556     S
Ti224     Ti223    9.999   1_554     S
