data_kgz
_audit_creation_date              2020-02-04
_audit_creation_method            'Pymatgen'
_symmetry_space_group_name_H-M    'P1'
_symmetry_Int_Tables_number       1
loop_
_symmetry_equiv_pos_as_xyz
  x,y,z
_cell_length_a                    114.788
_cell_length_b                    114.788
_cell_length_c                    114.788
_cell_angle_alpha                 90.0
_cell_angle_beta                 90.0
_cell_angle_gamma                 90.0
loop_
_atom_site_label
_atom_site_type_symbol
_atom_site_fract_x
_atom_site_fract_y
_atom_site_fract_z
Er1     Er     0.6635   0.6453   0.5222
Er2     Er     0.5865   0.6047   0.5222
Er3     Er     0.6453   0.5222   0.6635
Er4     Er     0.6047   0.5222   0.5865
Er5     Er     0.5222   0.6635   0.6453
Er6     Er     0.5222   0.5865   0.6047
Er7     Er     0.6635   0.6047   0.7278
Er8     Er     0.5865   0.6453   0.7278
Er9     Er     0.7278   0.6635   0.6047
Er10     Er     0.7278   0.5865   0.6453
Er11     Er     0.6047   0.7278   0.6635
Er12     Er     0.6453   0.7278   0.5865
Ti13     Ti     0.5841   0.6659   0.5841
Ti14     Ti     0.6659   0.6659   0.6659
Ti15     Ti     0.6659   0.5841   0.5841
Ti16     Ti     0.5841   0.5841   0.6659
V17     V     0.5316   0.5444   0.4913
V18     V     0.5444   0.4913   0.5316
V19     V     0.4913   0.5316   0.5444
V20     V     0.4684   0.4556   0.5087
V21     V     0.4556   0.5087   0.4684
V22     V     0.5087   0.4684   0.4556
V23     V     0.2184   0.5444   0.2587
V24     V     0.2816   0.4556   0.2413
V25     V     0.2587   0.5316   0.2056
V26     V     0.2944   0.5087   0.2816
V27     V     0.2413   0.4684   0.2944
V28     V     0.2056   0.4913   0.2184
V29     V     0.5444   0.2587   0.2184
V30     V     0.4556   0.2413   0.2816
V31     V     0.4684   0.2944   0.2413
V32     V     0.5316   0.2056   0.2587
V33     V     0.5087   0.2816   0.2944
V34     V     0.4913   0.2184   0.2056
Er35     Er     0.4135   0.3547   0.2722
Er36     Er     0.3365   0.3953   0.2722
Er37     Er     0.3547   0.2722   0.4135
Er38     Er     0.3953   0.2722   0.3365
Er39     Er     0.2722   0.4135   0.3547
Er40     Er     0.2722   0.3365   0.3953
Er41     Er     0.3953   0.4778   0.4135
Er42     Er     0.3547   0.4778   0.3365
Er43     Er     0.4778   0.4135   0.3953
Er44     Er     0.4778   0.3365   0.3547
Er45     Er     0.4135   0.3953   0.4778
Er46     Er     0.3365   0.3547   0.4778
Ti47     Ti     0.3341   0.4159   0.4159
Ti48     Ti     0.4159   0.3341   0.4159
Ti49     Ti     0.4159   0.4159   0.3341
Ti50     Ti     0.3341   0.3341   0.3341
V51     V     0.2587   0.2184   0.5444
V52     V     0.2413   0.2816   0.4556
V53     V     0.2944   0.2413   0.4684
V54     V     0.2056   0.2587   0.5316
V55     V     0.2816   0.2944   0.5087
V56     V     0.2184   0.2056   0.4913
Er57     Er     0.2278   0.0865   0.6453
Er58     Er     0.2278   0.1635   0.6047
Er59     Er     0.0222   0.1635   0.6453
Er60     Er     0.0222   0.0865   0.6047
Er61     Er     0.1453   0.0222   0.6635
Er62     Er     0.1047   0.0222   0.5865
Er63     Er     0.1635   0.1047   0.7278
Er64     Er     0.0865   0.1453   0.7278
Ti65     Ti     0.0841   0.0841   0.6659
Ti66     Ti     0.1659   0.1659   0.6659
Er67     Er     0.1047   0.2278   0.6635
Er68     Er     0.1453   0.2278   0.5865
Er69     Er     0.1635   0.1453   0.5222
Er70     Er     0.0865   0.1047   0.5222
Ti71     Ti     0.1659   0.0841   0.5841
Ti72     Ti     0.0841   0.1659   0.5841
V73     V     0.7944   0.2413   0.9684
V74     V     0.7184   0.2056   0.9913
V75     V     0.7056   0.2587   0.0316
V76     V     0.7587   0.2184   0.0444
V77     V     0.7816   0.2944   0.0087
V78     V     0.7413   0.2816   0.9556
V79     V     0.7944   0.5087   0.7816
V80     V     0.7413   0.4684   0.7944
V81     V     0.7184   0.5444   0.7587
V82     V     0.7587   0.5316   0.7056
V83     V     0.7056   0.4913   0.7184
V84     V     0.7816   0.4556   0.7413
V85     V     0.0316   0.5444   0.9913
V86     V     0.9684   0.4556   0.0087
V87     V     0.0087   0.4684   0.9556
V88     V     0.9913   0.5316   0.0444
V89     V     0.9556   0.5087   0.9684
V90     V     0.0444   0.4913   0.0316
V91     V     0.0087   0.2816   0.7944
V92     V     0.9913   0.2184   0.7056
V93     V     0.9556   0.2413   0.7816
V94     V     0.0316   0.2056   0.7587
V95     V     0.0444   0.2587   0.7184
V96     V     0.9684   0.2944   0.7413
Er97     Er     0.8365   0.3953   0.7722
Er98     Er     0.9135   0.3547   0.7722
Er99     Er     0.9135   0.3953   0.9778
Er100     Er     0.8365   0.3547   0.9778
Er101     Er     0.8547   0.2722   0.9135
Er102     Er     0.8953   0.2722   0.8365
Er103     Er     0.7722   0.4135   0.8547
Er104     Er     0.7722   0.3365   0.8953
Er105     Er     0.8953   0.4778   0.9135
Er106     Er     0.8547   0.4778   0.8365
Ti107     Ti     0.9159   0.4159   0.8341
Ti108     Ti     0.8341   0.4159   0.9159
Er109     Er     0.9778   0.4135   0.8953
Er110     Er     0.9778   0.3365   0.8547
Ti111     Ti     0.9159   0.3341   0.9159
Ti112     Ti     0.8341   0.3341   0.8341
Er113     Er     0.6453   0.2278   0.0865
Er114     Er     0.6047   0.2278   0.1635
Er115     Er     0.6453   0.0222   0.1635
Er116     Er     0.6047   0.0222   0.0865
Er117     Er     0.6635   0.1047   0.2278
Er118     Er     0.5865   0.1453   0.2278
Er119     Er     0.5222   0.1635   0.1453
Er120     Er     0.5222   0.0865   0.1047
Ti121     Ti     0.5841   0.1659   0.0841
Ti122     Ti     0.5841   0.0841   0.1659
Er123     Er     0.6635   0.1453   0.0222
Er124     Er     0.5865   0.1047   0.0222
Er125     Er     0.7278   0.1635   0.1047
Er126     Er     0.7278   0.0865   0.1453
Ti127     Ti     0.6659   0.0841   0.0841
Ti128     Ti     0.6659   0.1659   0.1659
V129     V     0.9684   0.7944   0.2413
V130     V     0.9913   0.7184   0.2056
V131     V     0.0316   0.7056   0.2587
V132     V     0.0444   0.7587   0.2184
V133     V     0.0087   0.7816   0.2944
V134     V     0.9556   0.7413   0.2816
V135     V     0.7816   0.7944   0.5087
V136     V     0.7944   0.7413   0.4684
V137     V     0.7587   0.7184   0.5444
V138     V     0.7056   0.7587   0.5316
V139     V     0.7184   0.7056   0.4913
V140     V     0.7413   0.7816   0.4556
V141     V     0.7944   0.0087   0.2816
V142     V     0.7056   0.9913   0.2184
V143     V     0.7816   0.9556   0.2413
V144     V     0.7587   0.0316   0.2056
V145     V     0.7184   0.0444   0.2587
V146     V     0.7413   0.9684   0.2944
V147     V     0.9913   0.0316   0.5444
V148     V     0.0087   0.9684   0.4556
V149     V     0.9556   0.0087   0.4684
V150     V     0.0444   0.9913   0.5316
V151     V     0.9684   0.9556   0.5087
V152     V     0.0316   0.0444   0.4913
Er153     Er     0.7722   0.8365   0.3953
Er154     Er     0.7722   0.9135   0.3547
Er155     Er     0.9778   0.9135   0.3953
Er156     Er     0.9778   0.8365   0.3547
Er157     Er     0.9135   0.8547   0.2722
Er158     Er     0.8365   0.8953   0.2722
Er159     Er     0.8547   0.7722   0.4135
Er160     Er     0.8953   0.7722   0.3365
Er161     Er     0.9135   0.8953   0.4778
Er162     Er     0.8365   0.8547   0.4778
Ti163     Ti     0.8341   0.9159   0.4159
Ti164     Ti     0.9159   0.8341   0.4159
Er165     Er     0.8953   0.9778   0.4135
Er166     Er     0.8547   0.9778   0.3365
Ti167     Ti     0.9159   0.9159   0.3341
Ti168     Ti     0.8341   0.8341   0.3341
Er169     Er     0.0865   0.6453   0.2278
Er170     Er     0.1635   0.6047   0.2278
Er171     Er     0.1635   0.6453   0.0222
Er172     Er     0.0865   0.6047   0.0222
Er173     Er     0.2278   0.6635   0.1047
Er174     Er     0.2278   0.5865   0.1453
Er175     Er     0.1453   0.5222   0.1635
Er176     Er     0.1047   0.5222   0.0865
Ti177     Ti     0.0841   0.5841   0.1659
Ti178     Ti     0.1659   0.5841   0.0841
Er179     Er     0.0222   0.6635   0.1453
Er180     Er     0.0222   0.5865   0.1047
Er181     Er     0.1047   0.7278   0.1635
Er182     Er     0.1453   0.7278   0.0865
Ti183     Ti     0.0841   0.6659   0.0841
Ti184     Ti     0.1659   0.6659   0.1659
V185     V     0.2413   0.9684   0.7944
V186     V     0.2056   0.9913   0.7184
V187     V     0.2587   0.0316   0.7056
V188     V     0.2184   0.0444   0.7587
V189     V     0.2944   0.0087   0.7816
V190     V     0.2816   0.9556   0.7413
V191     V     0.5087   0.7816   0.7944
V192     V     0.4684   0.7944   0.7413
V193     V     0.5444   0.7587   0.7184
V194     V     0.5316   0.7056   0.7587
V195     V     0.4913   0.7184   0.7056
V196     V     0.4556   0.7413   0.7816
V197     V     0.5444   0.9913   0.0316
V198     V     0.4556   0.0087   0.9684
V199     V     0.4684   0.9556   0.0087
V200     V     0.5316   0.0444   0.9913
V201     V     0.5087   0.9684   0.9556
V202     V     0.4913   0.0316   0.0444
V203     V     0.2816   0.7944   0.0087
V204     V     0.2184   0.7056   0.9913
V205     V     0.2413   0.7816   0.9556
V206     V     0.2056   0.7587   0.0316
V207     V     0.2587   0.7184   0.0444
V208     V     0.2944   0.7413   0.9684
Er209     Er     0.3953   0.7722   0.8365
Er210     Er     0.3547   0.7722   0.9135
Er211     Er     0.3953   0.9778   0.9135
Er212     Er     0.3547   0.9778   0.8365
Er213     Er     0.2722   0.9135   0.8547
Er214     Er     0.2722   0.8365   0.8953
Er215     Er     0.4135   0.8547   0.7722
Er216     Er     0.3365   0.8953   0.7722
Er217     Er     0.4778   0.9135   0.8953
Er218     Er     0.4778   0.8365   0.8547
Ti219     Ti     0.4159   0.8341   0.9159
Ti220     Ti     0.4159   0.9159   0.8341
Er221     Er     0.4135   0.8953   0.9778
Er222     Er     0.3365   0.8547   0.9778
Ti223     Ti     0.3341   0.9159   0.9159
Ti224     Ti     0.3341   0.8341   0.8341
loop_
_geom_bond_atom_site_label_1
_geom_bond_atom_site_label_2
_geom_bond_distance
_geom_bond_site_symmetry_2
_ccdc_geom_bond_type
Er1     Ti15    10.0   .     S
Er1     Er2    9.999   .     S
Er1     V139    10.0   .     S
Er2     Ti13    10.0   .     S
Er2     V17    10.0   .     S
Er3     Ti16    10.0   .     S
Er3     Er4    9.999   .     S
Er3     V83    10.0   .     S
Er4     Ti15    10.0   .     S
Er4     V18    10.0   .     S
Er5     Ti13    10.0   .     S
Er5     Er6    9.999   .     S
Er5     V195    10.0   .     S
Er6     Ti16    10.0   .     S
Er6     V19    10.0   .     S
Er7     Ti14    10.0   .     S
Er7     Er8    9.999   .     S
Er7     V81    10.0   .     S
Er8     Ti16    10.0   .     S
Er8     V194    10.0   .     S
Er9     Ti14    10.0   .     S
Er9     Er10    9.999   .     S
Er9     V137    10.0   .     S
Er10     Ti15    10.0   .     S
Er10     V82    10.0   .     S
Er11     Ti14    10.0   .     S
Er11     Er12    9.999   .     S
Er11     V193    10.0   .     S
Er12     Ti13    10.0   .     S
Er12     V138    10.0   .     S
V17     V21    10.0   .     S
V17     V22    10.0   .     S
V18     V22    10.0   .     S
V18     V20    10.0   .     S
V19     V21    10.0   .     S
V19     V20    10.0   .     S
V20     Er45    10.0   .     S
V21     Er41    10.0   .     S
V22     Er43    10.0   .     S
V23     Er170    10.0   .     S
V23     V26    10.0   .     S
V23     V27    10.0   .     S
V24     Er36    10.0   .     S
V24     V28    10.0   .     S
V24     V25    10.0   .     S
V25     Er174    10.0   .     S
V25     V26    10.0   .     S
V26     Er42    10.0   .     S
V27     Er39    10.0   .     S
V27     V28    10.0   .     S
V28     Er175    10.0   .     S
V29     Er114    10.0   .     S
V29     V33    10.0   .     S
V29     V31    10.0   .     S
V30     Er38    10.0   .     S
V30     V34    10.0   .     S
V30     V32    10.0   .     S
V31     Er35    10.0   .     S
V31     V34    10.0   .     S
V32     Er118    10.0   .     S
V32     V33    10.0   .     S
V33     Er44    10.0   .     S
V34     Er119    10.0   .     S
Er35     Ti49    10.0   .     S
Er35     Er36    9.999   .     S
Er36     Ti50    10.0   .     S
Er37     Ti48    10.0   .     S
Er37     Er38    9.999   .     S
Er37     V53    10.0   .     S
Er38     Ti50    10.0   .     S
Er39     Ti47    10.0   .     S
Er39     Er40    9.999   .     S
Er40     Ti50    10.0   .     S
Er40     V52    10.0   .     S
Er41     Ti47    10.0   .     S
Er41     Er42    9.999   .     S
Er42     Ti49    10.0   .     S
Er43     Ti49    10.0   .     S
Er43     Er44    9.999   .     S
Er44     Ti48    10.0   .     S
Er45     Ti48    10.0   .     S
Er45     Er46    9.999   .     S
Er46     Ti47    10.0   .     S
Er46     V55    10.0   .     S
V51     Er58    10.0   .     S
V51     V55    10.0   .     S
V51     V53    10.0   .     S
V52     V56    10.0   .     S
V52     V54    10.0   .     S
V53     V56    10.0   .     S
V54     Er68    10.0   .     S
V54     V55    10.0   .     S
V56     Er69    10.0   .     S
Er57     Ti71    10.0   .     S
Er57     Er58    9.999   .     S
Er57     V187    10.0   .     S
Er58     Ti66    10.0   .     S
Er59     Ti72    10.0   .     S
Er59     Er60    9.999   .     S
Er59     V92    10.0   1_455     S
Er60     Ti65    10.0   .     S
Er60     V147    10.0   1_455     S
Er61     Ti65    10.0   .     S
Er61     Er62    9.999   .     S
Er61     V186    10.0   1_545     S
Er62     Ti71    10.0   .     S
Er62     V150    10.0   1_545     S
Er63     Ti66    10.0   .     S
Er63     Er64    9.999   .     S
Er63     V188    10.0   .     S
Er64     Ti65    10.0   .     S
Er64     V94    10.0   .     S
Ti66     Er67    10.0   .     S
Er67     Er68    9.999   .     S
Er67     V95    10.0   .     S
Er68     Ti72    10.0   .     S
Er69     Ti71    10.0   .     S
Er69     Er70    9.999   .     S
Er70     Ti72    10.0   .     S
Er70     V152    10.0   .     S
V73     Er101    10.0   .     S
V73     V74    10.0   .     S
V73     V76    10.0   1_556     S
V74     Er123    10.0   1_556     S
V74     V78    10.0   .     S
V75     Er113    10.0   .     S
V75     V77    10.0   .     S
V75     V78    10.0   1_554     S
V76     Er125    10.0   .     S
V76     V73    10.0   1_554     S
V76     V77    10.0   .     S
V77     Er100    10.0   1_554     S
V78     V75    10.0   1_556     S
V78     Er104    10.0   .     S
V79     Er106    10.0   .     S
V79     V81    10.0   .     S
V79     V82    10.0   .     S
V80     Er103    10.0   .     S
V80     V83    10.0   .     S
V80     V81    10.0   .     S
V82     V84    10.0   .     S
V83     V84    10.0   .     S
V84     Er97    10.0   .     S
V85     Er172    10.0   1_556     S
V85     V89    10.0   1_455     S
V85     V87    10.0   .     S
V86     Er99    10.0   1_554     S
V86     V90    10.0   1_655     S
V86     V88    10.0   .     S
V87     Er109    10.0   1_455     S
V87     V90    10.0   1_556     S
V88     Er180    10.0   1_655     S
V88     V89    10.0   1_554     S
V89     Er105    10.0   .     S
V89     V85    10.0   1_655     S
V89     V88    10.0   1_556     S
V90     V86    10.0   1_455     S
V90     V87    10.0   1_554     S
V90     Er176    10.0   .     S
V91     Er110    10.0   1_455     S
V91     V94    10.0   .     S
V91     V95    10.0   .     S
V92     Er59    10.0   1_655     S
V92     V96    10.0   .     S
V92     V93    10.0   .     S
V93     Er102    10.0   .     S
V93     V94    10.0   1_655     S
V94     V93    10.0   1_455     S
V95     V96    10.0   1_455     S
V96     V95    10.0   1_655     S
V96     Er98    10.0   .     S
Er97     Ti112    10.0   .     S
Er97     Er98    9.999   .     S
Er98     Ti107    10.0   .     S
Er99     V86    10.0   1_556     S
Er99     Ti111    10.0   .     S
Er99     Er100    9.999   .     S
Er100     V77    10.0   1_556     S
Er100     Ti108    10.0   .     S
Er101     Ti111    10.0   .     S
Er101     Er102    9.999   .     S
Er102     Ti112    10.0   .     S
Er103     Ti108    10.0   .     S
Er103     Er104    9.999   .     S
Er104     Ti112    10.0   .     S
Er105     Ti108    10.0   .     S
Er105     Er106    9.999   .     S
Er106     Ti107    10.0   .     S
Ti107     Er109    10.0   .     S
Er109     V87    10.0   1_655     S
Er109     Er110    9.999   .     S
Er110     V91    10.0   1_655     S
Er110     Ti111    10.0   .     S
Er113     Ti121    10.0   .     S
Er113     Er114    9.999   .     S
Er114     Ti128    10.0   .     S
Er115     Ti122    10.0   .     S
Er115     Er116    9.999   .     S
Er115     V142    10.0   1_545     S
Er116     Ti127    10.0   .     S
Er116     V197    10.0   1_545     S
Er117     Ti128    10.0   .     S
Er117     Er118    9.999   .     S
Er117     V145    10.0   .     S
Er118     Ti122    10.0   .     S
Er119     Ti121    10.0   .     S
Er119     Er120    9.999   .     S
Er120     Ti122    10.0   .     S
Er120     V202    10.0   .     S
Ti121     Er124    10.0   .     S
Er123     V74    10.0   1_554     S
Er123     Ti127    10.0   .     S
Er123     Er124    9.999   .     S
Er124     V200    10.0   1_554     S
Er125     Ti128    10.0   .     S
Er125     Er126    9.999   .     S
Er126     Ti127    10.0   .     S
Er126     V144    10.0   .     S
V129     Er157    10.0   .     S
V129     V130    10.0   .     S
V129     V132    10.0   1_655     S
V130     Er179    10.0   1_655     S
V130     V134    10.0   .     S
V131     Er169    10.0   .     S
V131     V133    10.0   .     S
V131     V134    10.0   1_455     S
V132     Er181    10.0   .     S
V132     V129    10.0   1_455     S
V132     V133    10.0   .     S
V133     Er156    10.0   1_455     S
V134     V131    10.0   1_655     S
V134     Er160    10.0   .     S
V135     Er162    10.0   .     S
V135     V137    10.0   .     S
V135     V138    10.0   .     S
V136     Er159    10.0   .     S
V136     V139    10.0   .     S
V136     V137    10.0   .     S
V138     V140    10.0   .     S
V139     V140    10.0   .     S
V140     Er153    10.0   .     S
V141     Er166    10.0   1_545     S
V141     V144    10.0   .     S
V141     V145    10.0   .     S
V142     Er115    10.0   1_565     S
V142     V146    10.0   .     S
V142     V143    10.0   .     S
V143     Er158    10.0   .     S
V143     V144    10.0   1_565     S
V144     V143    10.0   1_545     S
V145     V146    10.0   1_545     S
V146     V145    10.0   1_565     S
V146     Er154    10.0   .     S
V147     Er60    10.0   1_655     S
V147     V151    10.0   1_545     S
V147     V149    10.0   .     S
V148     Er155    10.0   1_455     S
V148     V152    10.0   1_565     S
V148     V150    10.0   .     S
V149     Er165    10.0   1_545     S
V149     V152    10.0   1_655     S
V150     Er62    10.0   1_565     S
V150     V151    10.0   1_455     S
V151     Er161    10.0   .     S
V151     V147    10.0   1_565     S
V151     V150    10.0   1_655     S
V152     V148    10.0   1_545     S
V152     V149    10.0   1_455     S
Er153     Ti168    10.0   .     S
Er153     Er154    9.999   .     S
Er154     Ti163    10.0   .     S
Er155     V148    10.0   1_655     S
Er155     Ti167    10.0   .     S
Er155     Er156    9.999   .     S
Er156     V133    10.0   1_655     S
Er156     Ti164    10.0   .     S
Er157     Ti167    10.0   .     S
Er157     Er158    9.999   .     S
Er158     Ti168    10.0   .     S
Er159     Ti164    10.0   .     S
Er159     Er160    9.999   .     S
Er160     Ti168    10.0   .     S
Er161     Ti164    10.0   .     S
Er161     Er162    9.999   .     S
Er162     Ti163    10.0   .     S
Ti163     Er165    10.0   .     S
Er165     V149    10.0   1_565     S
Er165     Er166    9.999   .     S
Er166     V141    10.0   1_565     S
Er166     Ti167    10.0   .     S
Er169     Ti177    10.0   .     S
Er169     Er170    9.999   .     S
Er170     Ti184    10.0   .     S
Er171     Ti178    10.0   .     S
Er171     Er172    9.999   .     S
Er171     V204    10.0   1_554     S
Er172     V85    10.0   1_554     S
Er172     Ti183    10.0   .     S
Er173     Ti184    10.0   .     S
Er173     Er174    9.999   .     S
Er173     V207    10.0   .     S
Er174     Ti178    10.0   .     S
Er175     Ti177    10.0   .     S
Er175     Er176    9.999   .     S
Er176     Ti178    10.0   .     S
Ti177     Er180    10.0   .     S
Er179     V130    10.0   1_455     S
Er179     Ti183    10.0   .     S
Er179     Er180    9.999   .     S
Er180     V88    10.0   1_455     S
Er181     Ti184    10.0   .     S
Er181     Er182    9.999   .     S
Er182     Ti183    10.0   .     S
Er182     V206    10.0   .     S
V185     Er213    10.0   .     S
V185     V186    10.0   .     S
V185     V188    10.0   1_565     S
V186     Er61    10.0   1_565     S
V186     V190    10.0   .     S
V187     V189    10.0   .     S
V187     V190    10.0   1_545     S
V188     V185    10.0   1_545     S
V188     V189    10.0   .     S
V189     Er212    10.0   1_545     S
V190     V187    10.0   1_565     S
V190     Er216    10.0   .     S
V191     Er218    10.0   .     S
V191     V193    10.0   .     S
V191     V194    10.0   .     S
V192     Er215    10.0   .     S
V192     V195    10.0   .     S
V192     V193    10.0   .     S
V194     V196    10.0   .     S
V195     V196    10.0   .     S
V196     Er209    10.0   .     S
V197     Er116    10.0   1_565     S
V197     V201    10.0   1_554     S
V197     V199    10.0   .     S
V198     Er211    10.0   1_545     S
V198     V202    10.0   1_556     S
V198     V200    10.0   .     S
V199     Er221    10.0   1_554     S
V199     V202    10.0   1_565     S
V200     Er124    10.0   1_556     S
V200     V201    10.0   1_545     S
V201     Er217    10.0   .     S
V201     V197    10.0   1_556     S
V201     V200    10.0   1_565     S
V202     V198    10.0   1_554     S
V202     V199    10.0   1_545     S
V203     Er222    10.0   1_554     S
V203     V206    10.0   .     S
V203     V207    10.0   .     S
V204     Er171    10.0   1_556     S
V204     V208    10.0   .     S
V204     V205    10.0   .     S
V205     Er214    10.0   .     S
V205     V206    10.0   1_556     S
V206     V205    10.0   1_554     S
V207     V208    10.0   1_554     S
V208     V207    10.0   1_556     S
V208     Er210    10.0   .     S
Er209     Ti224    10.0   .     S
Er209     Er210    9.999   .     S
Er210     Ti219    10.0   .     S
Er211     V198    10.0   1_565     S
Er211     Ti223    10.0   .     S
Er211     Er212    9.999   .     S
Er212     V189    10.0   1_565     S
Er212     Ti220    10.0   .     S
Er213     Ti223    10.0   .     S
Er213     Er214    9.999   .     S
Er214     Ti224    10.0   .     S
Er215     Ti220    10.0   .     S
Er215     Er216    9.999   .     S
Er216     Ti224    10.0   .     S
Er217     Ti220    10.0   .     S
Er217     Er218    9.999   .     S
Er218     Ti219    10.0   .     S
Ti219     Er221    10.0   .     S
Er221     V199    10.0   1_556     S
Er221     Er222    9.999   .     S
Er222     V203    10.0   1_556     S
Er222     Ti223    10.0   .     S
