data_klea
_audit_creation_date              2020-02-04
_audit_creation_method            'Pymatgen'
_symmetry_space_group_name_H-M    'P1'
_symmetry_Int_Tables_number       1
loop_
_symmetry_equiv_pos_as_xyz
  x,y,z
_cell_length_a                    90.4201
_cell_length_b                    90.4201
_cell_length_c                    90.4201
_cell_angle_alpha                 90.0
_cell_angle_beta                 90.0
_cell_angle_gamma                 90.0
loop_
_atom_site_label
_atom_site_type_symbol
_atom_site_fract_x
_atom_site_fract_y
_atom_site_fract_z
Ti1     Ti     0.4446   0.2693   0.0
Ce2     Ce     0.3488   0.2687   0.0554
Ce3     Ce     0.3488   0.2687   0.9446
Ti4     Ti     0.5554   0.2693   0.0
Ce5     Ce     0.6512   0.2687   0.0554
Ce6     Ce     0.6512   0.2687   0.9446
Ti7     Ti     0.2693   0.0   0.4446
Ce8     Ce     0.2687   0.0554   0.3488
Ce9     Ce     0.2687   0.9446   0.3488
Ti10     Ti     0.2693   0.0   0.5554
Ce11     Ce     0.2687   0.0554   0.6512
Ce12     Ce     0.2687   0.9446   0.6512
Ti13     Ti     0.0   0.4446   0.2693
Ce14     Ce     0.0554   0.3488   0.2687
Ce15     Ce     0.9446   0.3488   0.2687
Ti16     Ti     0.0   0.5554   0.2693
Ce17     Ce     0.0554   0.6512   0.2687
Ce18     Ce     0.9446   0.6512   0.2687
Ti19     Ti     0.4446   0.7307   0.0
Ce20     Ce     0.3488   0.7313   0.0554
Ce21     Ce     0.3488   0.7313   0.9446
Ti22     Ti     0.5554   0.7307   0.0
Ce23     Ce     0.6512   0.7313   0.0554
Ce24     Ce     0.6512   0.7313   0.9446
Ti25     Ti     0.7307   0.0   0.4446
Ce26     Ce     0.7313   0.0554   0.3488
Ce27     Ce     0.7313   0.9446   0.3488
Ti28     Ti     0.7307   0.0   0.5554
Ce29     Ce     0.7313   0.0554   0.6512
Ce30     Ce     0.7313   0.9446   0.6512
Ti31     Ti     0.0   0.4446   0.7307
Ce32     Ce     0.0554   0.3488   0.7313
Ce33     Ce     0.9446   0.3488   0.7313
Ti34     Ti     0.0   0.5554   0.7307
Ce35     Ce     0.0554   0.6512   0.7313
Ce36     Ce     0.9446   0.6512   0.7313
Ti37     Ti     0.0554   0.2307   0.5
Ce38     Ce     0.1512   0.2313   0.4446
Ce39     Ce     0.1512   0.2313   0.5554
Ti40     Ti     0.9446   0.2307   0.5
Ce41     Ce     0.8488   0.2313   0.4446
Ce42     Ce     0.8488   0.2313   0.5554
Ti43     Ti     0.0554   0.7693   0.5
Ce44     Ce     0.1512   0.7687   0.4446
Ce45     Ce     0.1512   0.7687   0.5554
Ti46     Ti     0.9446   0.7693   0.5
Ce47     Ce     0.8488   0.7687   0.4446
Ce48     Ce     0.8488   0.7687   0.5554
Ti49     Ti     0.2307   0.5   0.0554
Ce50     Ce     0.2313   0.4446   0.1512
Ce51     Ce     0.2313   0.5554   0.1512
Ti52     Ti     0.2307   0.5   0.9446
Ce53     Ce     0.2313   0.4446   0.8488
Ce54     Ce     0.2313   0.5554   0.8488
Ti55     Ti     0.7693   0.5   0.0554
Ce56     Ce     0.7687   0.4446   0.1512
Ce57     Ce     0.7687   0.5554   0.1512
Ti58     Ti     0.7693   0.5   0.9446
Ce59     Ce     0.7687   0.4446   0.8488
Ce60     Ce     0.7687   0.5554   0.8488
Ti61     Ti     0.5   0.0554   0.2307
Ce62     Ce     0.4446   0.1512   0.2313
Ce63     Ce     0.5554   0.1512   0.2313
Ti64     Ti     0.5   0.9446   0.2307
Ce65     Ce     0.4446   0.8488   0.2313
Ce66     Ce     0.5554   0.8488   0.2313
Ti67     Ti     0.5   0.0554   0.7693
Ce68     Ce     0.4446   0.1512   0.7687
Ce69     Ce     0.5554   0.1512   0.7687
Ti70     Ti     0.5   0.9446   0.7693
Ce71     Ce     0.4446   0.8488   0.7687
Ce72     Ce     0.5554   0.8488   0.7687
Er73     Er     0.286   0.2852   0.3637
V74     V     0.1922   0.2314   0.3416
Er75     Er     0.2852   0.3637   0.286
V76     V     0.2314   0.3416   0.1922
Er77     Er     0.3637   0.286   0.2852
V78     V     0.3416   0.1922   0.2314
Er79     Er     0.286   0.2852   0.6363
V80     V     0.1922   0.2314   0.6584
Er81     Er     0.2852   0.3637   0.714
V82     V     0.2314   0.3416   0.8078
Er83     Er     0.3637   0.286   0.7148
V84     V     0.3416   0.1922   0.7686
S85     S     0.4448   0.2605   0.6443
S86     S     0.5552   0.2605   0.6443
H87     H     0.5   0.2953   0.4448
H88     H     0.5   0.2953   0.5552
S89     S     0.4448   0.2605   0.3557
S90     S     0.5552   0.2605   0.3557
Er91     Er     0.6363   0.286   0.7148
V92     V     0.6584   0.1922   0.7686
Er93     Er     0.714   0.2852   0.6363
V94     V     0.8078   0.2314   0.6584
Er95     Er     0.7148   0.3637   0.714
V96     V     0.7686   0.3416   0.8078
S97     S     0.6443   0.4448   0.7395
S98     S     0.6443   0.5552   0.7395
H99     H     0.4448   0.5   0.7047
H100     H     0.5552   0.5   0.7047
S101     S     0.3557   0.5552   0.7395
S102     S     0.3557   0.4448   0.7395
Er103     Er     0.2852   0.6363   0.286
V104     V     0.2314   0.6584   0.1922
Er105     Er     0.3637   0.714   0.2852
V106     V     0.3416   0.8078   0.2314
Er107     Er     0.286   0.7148   0.3637
V108     V     0.1922   0.7686   0.3416
S109     S     0.2605   0.6443   0.4448
S110     S     0.2605   0.6443   0.5552
H111     H     0.2953   0.4448   0.5
H112     H     0.2953   0.5552   0.5
S113     S     0.2605   0.3557   0.4448
S114     S     0.2605   0.3557   0.5552
Er115     Er     0.286   0.7148   0.6363
V116     V     0.1922   0.7686   0.6584
Er117     Er     0.2852   0.6363   0.714
V118     V     0.2314   0.6584   0.8078
Er119     Er     0.3637   0.714   0.7148
V120     V     0.3416   0.8078   0.7686
S121     S     0.4448   0.7395   0.6443
S122     S     0.5552   0.7395   0.6443
H123     H     0.5   0.7047   0.4448
H124     H     0.5   0.7047   0.5552
S125     S     0.5552   0.7395   0.3557
S126     S     0.4448   0.7395   0.3557
Er127     Er     0.7148   0.6363   0.714
V128     V     0.7686   0.6584   0.8078
Er129     Er     0.714   0.7148   0.6363
V130     V     0.8078   0.7686   0.6584
Er131     Er     0.6363   0.714   0.7148
V132     V     0.6584   0.8078   0.7686
S133     S     0.7395   0.6443   0.5552
S134     S     0.7395   0.6443   0.4448
H135     H     0.7047   0.4448   0.5
H136     H     0.7047   0.5552   0.5
S137     S     0.7395   0.3557   0.5552
S138     S     0.7395   0.3557   0.4448
Er139     Er     0.6363   0.286   0.2852
V140     V     0.6584   0.1922   0.2314
Er141     Er     0.714   0.2852   0.3637
V142     V     0.8078   0.2314   0.3416
Er143     Er     0.7148   0.3637   0.286
V144     V     0.7686   0.3416   0.1922
S145     S     0.6443   0.4448   0.2605
S146     S     0.6443   0.5552   0.2605
H147     H     0.4448   0.5   0.2953
H148     H     0.5552   0.5   0.2953
S149     S     0.3557   0.4448   0.2605
S150     S     0.3557   0.5552   0.2605
Er151     Er     0.7148   0.6363   0.286
V152     V     0.7686   0.6584   0.1922
Er153     Er     0.6363   0.714   0.2852
V154     V     0.6584   0.8078   0.2314
Er155     Er     0.714   0.7148   0.3637
V156     V     0.8078   0.7686   0.3416
Er157     Er     0.786   0.7852   0.8637
V158     V     0.6922   0.7314   0.8416
Er159     Er     0.7852   0.8637   0.786
V160     V     0.7314   0.8416   0.6922
Er161     Er     0.8637   0.786   0.7852
V162     V     0.8416   0.6922   0.7314
S163     S     0.7605   0.1443   0.9448
S164     S     0.7605   0.1443   0.0552
H165     H     0.7953   0.9448   0.0
H166     H     0.7953   0.0552   0.0
S167     S     0.7605   0.8557   0.9448
S168     S     0.7605   0.8557   0.0552
Er169     Er     0.8637   0.214   0.7852
V170     V     0.8416   0.3078   0.7314
Er171     Er     0.786   0.2148   0.8637
V172     V     0.6922   0.2686   0.8416
Er173     Er     0.7852   0.1363   0.786
V174     V     0.7314   0.1584   0.6922
S175     S     0.1443   0.9448   0.7605
S176     S     0.1443   0.0552   0.7605
H177     H     0.9448   0.0   0.7953
H178     H     0.0552   0.0   0.7953
S179     S     0.8557   0.9448   0.7605
S180     S     0.8557   0.0552   0.7605
Er181     Er     0.214   0.7852   0.8637
V182     V     0.3078   0.7314   0.8416
Er183     Er     0.2148   0.8637   0.786
V184     V     0.2686   0.8416   0.6922
Er185     Er     0.1363   0.786   0.7852
V186     V     0.1584   0.6922   0.7314
S187     S     0.2395   0.1443   0.9448
S188     S     0.2395   0.1443   0.0552
H189     H     0.2047   0.9448   0.0
H190     H     0.2047   0.0552   0.0
S191     S     0.2395   0.8557   0.9448
S192     S     0.2395   0.8557   0.0552
Er193     Er     0.214   0.2148   0.8637
V194     V     0.3078   0.2686   0.8416
Er195     Er     0.2148   0.1363   0.786
V196     V     0.2686   0.1584   0.6922
Er197     Er     0.1363   0.214   0.7852
V198     V     0.1584   0.3078   0.7314
S199     S     0.1443   0.9448   0.2395
S200     S     0.1443   0.0552   0.2395
H201     H     0.9448   0.0   0.2047
H202     H     0.0552   0.0   0.2047
S203     S     0.8557   0.9448   0.2395
S204     S     0.8557   0.0552   0.2395
Er205     Er     0.2148   0.8637   0.214
V206     V     0.2686   0.8416   0.3078
Er207     Er     0.1363   0.786   0.2148
V208     V     0.1584   0.6922   0.2686
Er209     Er     0.214   0.7852   0.1363
V210     V     0.3078   0.7314   0.1584
Er211     Er     0.2148   0.1363   0.214
V212     V     0.2686   0.1584   0.3078
Er213     Er     0.1363   0.214   0.2148
V214     V     0.1584   0.3078   0.2686
Er215     Er     0.214   0.2148   0.1363
V216     V     0.3078   0.2686   0.1584
S217     S     0.9448   0.2395   0.1443
S218     S     0.0552   0.2395   0.1443
H219     H     0.0   0.2047   0.9448
H220     H     0.0   0.2047   0.0552
S221     S     0.9448   0.2395   0.8557
S222     S     0.0552   0.2395   0.8557
Er223     Er     0.8637   0.214   0.2148
V224     V     0.8416   0.3078   0.2686
Er225     Er     0.786   0.2148   0.1363
V226     V     0.6922   0.2686   0.1584
Er227     Er     0.7852   0.1363   0.214
V228     V     0.7314   0.1584   0.3078
S229     S     0.9448   0.7605   0.1443
S230     S     0.0552   0.7605   0.1443
H231     H     0.0   0.7953   0.9448
H232     H     0.0   0.7953   0.0552
S233     S     0.9448   0.7605   0.8557
S234     S     0.0552   0.7605   0.8557
Er235     Er     0.7852   0.8637   0.214
V236     V     0.7314   0.8416   0.3078
Er237     Er     0.8637   0.786   0.2148
V238     V     0.8416   0.6922   0.2686
Er239     Er     0.786   0.7852   0.1363
V240     V     0.6922   0.7314   0.1584
loop_
_geom_bond_atom_site_label_1
_geom_bond_atom_site_label_2
_geom_bond_distance
_geom_bond_site_symmetry_2
_ccdc_geom_bond_type
Ti1     Ce3    10.004   1_554     S
Ti1     Ce2    10.004   .     S
Ti1     Ti4    10.02   .     S
Ce2     Ce3    10.013   1_554     S
Ce2     V216    10.029   .     S
Ce3     Ti1    10.004   1_556     S
Ce3     Ce2    10.013   1_556     S
Ce3     V194    10.029   .     S
Ti4     Ce6    10.004   1_554     S
Ti4     Ce5    10.004   .     S
Ce5     Ce6    10.013   1_554     S
Ce5     V226    10.029   .     S
Ce6     Ti4    10.004   1_556     S
Ce6     Ce5    10.013   1_556     S
Ce6     V172    10.029   .     S
Ti7     Ce9    10.004   1_545     S
Ti7     Ce8    10.004   .     S
Ti7     Ti10    10.02   .     S
Ce8     Ce9    10.013   1_545     S
Ce8     V212    10.029   .     S
Ce9     Ti7    10.004   1_565     S
Ce9     Ce8    10.013   1_565     S
Ce9     V206    10.029   .     S
Ti10     Ce12    10.004   1_545     S
Ti10     Ce11    10.004   .     S
Ce11     Ce12    10.013   1_545     S
Ce11     V196    10.029   .     S
Ce12     Ti10    10.004   1_565     S
Ce12     Ce11    10.013   1_565     S
Ce12     V184    10.029   .     S
Ti13     Ce15    10.004   1_455     S
Ti13     Ce14    10.004   .     S
Ti13     Ti16    10.02   .     S
Ce14     Ce15    10.013   1_455     S
Ce14     V214    10.029   .     S
Ce15     Ti13    10.004   1_655     S
Ce15     Ce14    10.013   1_655     S
Ce15     V224    10.029   .     S
Ti16     Ce18    10.004   1_455     S
Ti16     Ce17    10.004   .     S
Ce17     Ce18    10.013   1_455     S
Ce17     V208    10.029   .     S
Ce18     Ti16    10.004   1_655     S
Ce18     Ce17    10.013   1_655     S
Ce18     V238    10.029   .     S
Ti19     Ce21    10.004   1_554     S
Ti19     Ce20    10.004   .     S
Ti19     Ti22    10.02   .     S
Ce20     Ce21    10.013   1_554     S
Ce20     V210    10.029   .     S
Ce21     Ti19    10.004   1_556     S
Ce21     Ce20    10.013   1_556     S
Ce21     V182    10.029   .     S
Ti22     Ce24    10.004   1_554     S
Ti22     Ce23    10.004   .     S
Ce23     Ce24    10.013   1_554     S
Ce23     V240    10.029   .     S
Ce24     Ti22    10.004   1_556     S
Ce24     Ce23    10.013   1_556     S
Ce24     V158    10.029   .     S
Ti25     Ce27    10.004   1_545     S
Ti25     Ce26    10.004   .     S
Ti25     Ti28    10.02   .     S
Ce26     Ce27    10.013   1_545     S
Ce26     V228    10.029   .     S
Ce27     Ti25    10.004   1_565     S
Ce27     Ce26    10.013   1_565     S
Ce27     V236    10.029   .     S
Ti28     Ce30    10.004   1_545     S
Ti28     Ce29    10.004   .     S
Ce29     Ce30    10.013   1_545     S
Ce29     V174    10.029   .     S
Ce30     Ti28    10.004   1_565     S
Ce30     Ce29    10.013   1_565     S
Ce30     V160    10.029   .     S
Ti31     Ce33    10.004   1_455     S
Ti31     Ce32    10.004   .     S
Ti31     Ti34    10.02   .     S
Ce32     Ce33    10.013   1_455     S
Ce32     V198    10.029   .     S
Ce33     Ti31    10.004   1_655     S
Ce33     Ce32    10.013   1_655     S
Ce33     V170    10.029   .     S
Ti34     Ce36    10.004   1_455     S
Ti34     Ce35    10.004   .     S
Ce35     Ce36    10.013   1_455     S
Ce35     V186    10.029   .     S
Ce36     Ti34    10.004   1_655     S
Ce36     Ce35    10.013   1_655     S
Ce36     V162    10.029   .     S
Ti37     Ce39    10.004   .     S
Ti37     Ce38    10.004   .     S
Ti37     Ti40    10.02   1_455     S
Ce38     Ce39    10.013   .     S
Ce38     V74    10.029   .     S
Ce39     V80    10.029   .     S
Ti40     Ce41    10.004   .     S
Ti40     Ce42    10.004   .     S
Ti40     Ti37    10.02   1_655     S
Ce41     Ce42    10.013   .     S
Ce41     V142    10.029   .     S
Ce42     V94    10.029   .     S
Ti43     Ce44    10.004   .     S
Ti43     Ce45    10.004   .     S
Ti43     Ti46    10.02   1_455     S
Ce44     Ce45    10.013   .     S
Ce44     V108    10.029   .     S
Ce45     V116    10.029   .     S
Ti46     Ce48    10.004   .     S
Ti46     Ce47    10.004   .     S
Ti46     Ti43    10.02   1_655     S
Ce47     Ce48    10.013   .     S
Ce47     V156    10.029   .     S
Ce48     V130    10.029   .     S
Ti49     Ce51    10.004   .     S
Ti49     Ce50    10.004   .     S
Ti49     Ti52    10.02   1_554     S
Ce50     Ce51    10.013   .     S
Ce50     V76    10.029   .     S
Ce51     V104    10.029   .     S
Ti52     Ce53    10.004   .     S
Ti52     Ce54    10.004   .     S
Ti52     Ti49    10.02   1_556     S
Ce53     Ce54    10.013   .     S
Ce53     V82    10.029   .     S
Ce54     V118    10.029   .     S
Ti55     Ce56    10.004   .     S
Ti55     Ce57    10.004   .     S
Ti55     Ti58    10.02   1_554     S
Ce56     Ce57    10.013   .     S
Ce56     V144    10.029   .     S
Ce57     V152    10.029   .     S
Ti58     Ce60    10.004   .     S
Ti58     Ce59    10.004   .     S
Ti58     Ti55    10.02   1_556     S
Ce59     Ce60    10.013   .     S
Ce59     V96    10.029   .     S
Ce60     V128    10.029   .     S
Ti61     Ce63    10.004   .     S
Ti61     Ce62    10.004   .     S
Ti61     Ti64    10.02   1_545     S
Ce62     Ce63    10.013   .     S
Ce62     V78    10.029   .     S
Ce63     V140    10.029   .     S
Ti64     Ce65    10.004   .     S
Ti64     Ce66    10.004   .     S
Ti64     Ti61    10.02   1_565     S
Ce65     Ce66    10.013   .     S
Ce65     V106    10.029   .     S
Ce66     V154    10.029   .     S
Ti67     Ce68    10.004   .     S
Ti67     Ce69    10.004   .     S
Ti67     Ti70    10.02   1_545     S
Ce68     Ce69    10.013   .     S
Ce68     V84    10.029   .     S
Ce69     V92    10.029   .     S
Ti70     Ce72    10.004   .     S
Ti70     Ce71    10.004   .     S
Ti70     Ti67    10.02   1_565     S
Ce71     Ce72    10.013   .     S
Ce71     V120    10.029   .     S
Ce72     V132    10.029   .     S
Er73     V74    9.984   .     S
Er73     Er77    9.985   .     S
Er73     Er75    9.985   .     S
Er73     S113    9.984   .     S
V74     V214    10.029   .     S
V74     V212    10.029   .     S
Er75     V76    9.984   .     S
Er75     Er77    9.985   .     S
Er75     S149    9.984   .     S
V76     V216    10.029   .     S
V76     V214    10.029   .     S
Er77     V78    9.984   .     S
Er77     S89    9.984   .     S
V78     V212    10.029   .     S
V78     V216    10.029   .     S
Er79     V80    9.984   .     S
Er79     Er83    9.985   .     S
Er79     Er81    9.985   .     S
Er79     S114    9.984   .     S
V80     V198    10.029   .     S
V80     V196    10.029   .     S
Er81     V82    9.984   .     S
Er81     Er83    9.985   .     S
Er81     S102    9.984   .     S
V82     V194    10.029   .     S
V82     V198    10.029   .     S
Er83     V84    9.984   .     S
Er83     S85    9.984   .     S
V84     V196    10.029   .     S
V84     V194    10.029   .     S
S85     S86    9.984   .     S
S85     H88    9.985   .     S
S86     Er91    9.984   .     S
S86     H88    9.985   .     S
H87     S90    9.985   .     S
H87     S89    9.985   .     S
H87     H88    9.984   .     S
S89     S90    9.984   .     S
S90     Er139    9.984   .     S
Er91     V92    9.984   .     S
Er91     Er93    9.985   .     S
Er91     Er95    9.985   .     S
V92     V174    10.029   .     S
V92     V172    10.029   .     S
Er93     V94    9.984   .     S
Er93     Er95    9.985   .     S
Er93     S137    9.984   .     S
V94     V170    10.029   .     S
V94     V174    10.029   .     S
Er95     V96    9.984   .     S
Er95     S97    9.984   .     S
V96     V172    10.029   .     S
V96     V170    10.029   .     S
S97     S98    9.984   .     S
S97     H100    9.985   .     S
S98     Er127    9.984   .     S
S98     H100    9.985   .     S
H99     S102    9.985   .     S
H99     S101    9.985   .     S
H99     H100    9.984   .     S
S101     Er117    9.984   .     S
S101     S102    9.984   .     S
Er103     V104    9.984   .     S
Er103     Er107    9.985   .     S
Er103     Er105    9.985   .     S
Er103     S150    9.984   .     S
V104     V210    10.029   .     S
V104     V208    10.029   .     S
Er105     V106    9.984   .     S
Er105     Er107    9.985   .     S
Er105     S126    9.984   .     S
V106     V206    10.029   .     S
V106     V210    10.029   .     S
Er107     V108    9.984   .     S
Er107     S109    9.984   .     S
V108     V208    10.029   .     S
V108     V206    10.029   .     S
S109     S110    9.984   .     S
S109     H112    9.985   .     S
S110     Er115    9.984   .     S
S110     H112    9.985   .     S
H111     S114    9.985   .     S
H111     S113    9.985   .     S
H111     H112    9.984   .     S
S113     S114    9.984   .     S
Er115     V116    9.984   .     S
Er115     Er117    9.985   .     S
Er115     Er119    9.985   .     S
V116     V186    10.029   .     S
V116     V184    10.029   .     S
Er117     V118    9.984   .     S
Er117     Er119    9.985   .     S
V118     V182    10.029   .     S
V118     V186    10.029   .     S
Er119     V120    9.984   .     S
Er119     S121    9.984   .     S
V120     V184    10.029   .     S
V120     V182    10.029   .     S
S121     S122    9.984   .     S
S121     H124    9.985   .     S
S122     Er131    9.984   .     S
S122     H124    9.985   .     S
H123     S126    9.985   .     S
H123     S125    9.985   .     S
H123     H124    9.984   .     S
S125     Er153    9.984   .     S
S125     S126    9.984   .     S
Er127     V128    9.984   .     S
Er127     Er129    9.985   .     S
Er127     Er131    9.985   .     S
V128     V158    10.029   .     S
V128     V162    10.029   .     S
Er129     V130    9.984   .     S
Er129     Er131    9.985   .     S
Er129     S133    9.984   .     S
V130     V162    10.029   .     S
V130     V160    10.029   .     S
Er131     V132    9.984   .     S
V132     V160    10.029   .     S
V132     V158    10.029   .     S
S133     S134    9.984   .     S
S133     H136    9.985   .     S
S134     Er155    9.984   .     S
S134     H136    9.985   .     S
H135     S138    9.985   .     S
H135     S137    9.985   .     S
H135     H136    9.984   .     S
S137     S138    9.984   .     S
S138     Er141    9.984   .     S
Er139     V140    9.984   .     S
Er139     Er143    9.985   .     S
Er139     Er141    9.985   .     S
V140     V228    10.029   .     S
V140     V226    10.029   .     S
Er141     V142    9.984   .     S
Er141     Er143    9.985   .     S
V142     V224    10.029   .     S
V142     V228    10.029   .     S
Er143     V144    9.984   .     S
Er143     S145    9.984   .     S
V144     V226    10.029   .     S
V144     V224    10.029   .     S
S145     S146    9.984   .     S
S145     H148    9.985   .     S
S146     Er151    9.984   .     S
S146     H148    9.985   .     S
H147     S150    9.985   .     S
H147     S149    9.985   .     S
H147     H148    9.984   .     S
S149     S150    9.984   .     S
Er151     V152    9.984   .     S
Er151     Er153    9.985   .     S
Er151     Er155    9.985   .     S
V152     V240    10.029   .     S
V152     V238    10.029   .     S
Er153     V154    9.984   .     S
Er153     Er155    9.985   .     S
V154     V236    10.029   .     S
V154     V240    10.029   .     S
Er155     V156    9.984   .     S
V156     V238    10.029   .     S
V156     V236    10.029   .     S
Er157     V158    9.984   .     S
Er157     Er161    9.985   .     S
Er157     Er159    9.985   .     S
Er157     S167    9.984   .     S
Er159     V160    9.984   .     S
Er159     Er161    9.985   .     S
Er159     S179    9.984   .     S
Er161     V162    9.984   .     S
Er161     S233    9.984   .     S
S163     Er171    9.984   .     S
S163     S164    9.984   1_556     S
S163     H166    9.985   1_556     S
S164     Er225    9.984   .     S
S164     S163    9.984   1_554     S
S164     H166    9.985   .     S
H165     S168    9.985   .     S
H165     S167    9.985   1_554     S
H165     H166    9.984   1_565     S
H166     S163    9.985   1_554     S
H166     H165    9.984   1_545     S
S167     H165    9.985   1_556     S
S167     S168    9.984   1_556     S
S168     Er239    9.984   .     S
S168     S167    9.984   1_554     S
Er169     V170    9.984   .     S
Er169     Er173    9.985   .     S
Er169     Er171    9.985   .     S
Er169     S221    9.984   .     S
Er171     V172    9.984   .     S
Er171     Er173    9.985   .     S
Er173     V174    9.984   .     S
Er173     S180    9.984   .     S
S175     Er183    9.984   .     S
S175     S176    9.984   1_565     S
S175     H178    9.985   1_565     S
S176     Er195    9.984   .     S
S176     S175    9.984   1_545     S
S176     H178    9.985   .     S
H177     S180    9.985   .     S
H177     S179    9.985   1_545     S
H177     H178    9.984   1_655     S
H178     S175    9.985   1_545     S
H178     H177    9.984   1_455     S
S179     H177    9.985   1_565     S
S179     S180    9.984   1_565     S
S180     S179    9.984   1_545     S
Er181     V182    9.984   .     S
Er181     Er185    9.985   .     S
Er181     Er183    9.985   .     S
Er181     S191    9.984   .     S
Er183     V184    9.984   .     S
Er183     Er185    9.985   .     S
Er185     V186    9.984   .     S
Er185     S234    9.984   .     S
S187     Er193    9.984   .     S
S187     S188    9.984   1_556     S
S187     H190    9.985   1_556     S
S188     Er215    9.984   .     S
S188     S187    9.984   1_554     S
S188     H190    9.985   .     S
H189     S191    9.985   1_554     S
H189     S192    9.985   .     S
H189     H190    9.984   1_565     S
H190     S187    9.985   1_554     S
H190     H189    9.984   1_545     S
S191     H189    9.985   1_556     S
S191     S192    9.984   1_556     S
S192     Er209    9.984   .     S
S192     S191    9.984   1_554     S
Er193     V194    9.984   .     S
Er193     Er197    9.985   .     S
Er193     Er195    9.985   .     S
Er195     V196    9.984   .     S
Er195     Er197    9.985   .     S
Er197     V198    9.984   .     S
Er197     S222    9.984   .     S
S199     Er205    9.984   .     S
S199     S200    9.984   1_565     S
S199     H202    9.985   1_565     S
S200     Er211    9.984   .     S
S200     S199    9.984   1_545     S
S200     H202    9.985   .     S
H201     S203    9.985   1_545     S
H201     S204    9.985   .     S
H201     H202    9.984   1_655     S
H202     S199    9.985   1_545     S
H202     H201    9.984   1_455     S
S203     H201    9.985   1_565     S
S203     Er235    9.984   .     S
S203     S204    9.984   1_565     S
S204     Er227    9.984   .     S
S204     S203    9.984   1_545     S
Er205     V206    9.984   .     S
Er205     Er209    9.985   .     S
Er205     Er207    9.985   .     S
Er207     V208    9.984   .     S
Er207     Er209    9.985   .     S
Er207     S230    9.984   .     S
Er209     V210    9.984   .     S
Er211     V212    9.984   .     S
Er211     Er215    9.985   .     S
Er211     Er213    9.985   .     S
Er213     V214    9.984   .     S
Er213     Er215    9.985   .     S
Er213     S218    9.984   .     S
Er215     V216    9.984   .     S
S217     Er223    9.984   .     S
S217     S218    9.984   1_655     S
S217     H220    9.985   1_655     S
S218     S217    9.984   1_455     S
S218     H220    9.985   .     S
H219     S221    9.985   1_455     S
H219     S222    9.985   .     S
H219     H220    9.984   1_556     S
H220     S217    9.985   1_455     S
H220     H219    9.984   1_554     S
S221     H219    9.985   1_655     S
S221     S222    9.984   1_655     S
S222     S221    9.984   1_455     S
Er223     V224    9.984   .     S
Er223     Er227    9.985   .     S
Er223     Er225    9.985   .     S
Er225     V226    9.984   .     S
Er225     Er227    9.985   .     S
Er227     V228    9.984   .     S
S229     Er237    9.984   .     S
S229     S230    9.984   1_655     S
S229     H232    9.985   1_655     S
S230     S229    9.984   1_455     S
S230     H232    9.985   .     S
H231     S234    9.985   .     S
H231     S233    9.985   1_455     S
H231     H232    9.984   1_556     S
H232     S229    9.985   1_455     S
H232     H231    9.984   1_554     S
S233     H231    9.985   1_655     S
S233     S234    9.984   1_655     S
S234     S233    9.984   1_455     S
Er235     V236    9.984   .     S
Er235     Er239    9.985   .     S
Er235     Er237    9.985   .     S
Er237     V238    9.984   .     S
Er237     Er239    9.985   .     S
Er239     V240    9.984   .     S
