data_kpc
_audit_creation_date              2020-02-04
_audit_creation_method            'Pymatgen'
_symmetry_space_group_name_H-M    'P1'
_symmetry_Int_Tables_number       1
loop_
_symmetry_equiv_pos_as_xyz
  x,y,z
_cell_length_a                    28.0503
_cell_length_b                    28.0503
_cell_length_c                    28.0503
_cell_angle_alpha                 90.0
_cell_angle_beta                 90.0
_cell_angle_gamma                 90.0
loop_
_atom_site_label
_atom_site_type_symbol
_atom_site_fract_x
_atom_site_fract_y
_atom_site_fract_z
Ti1     Ti     0.25   0.25   0.75
Ti2     Ti     0.25   0.75   0.25
Ti3     Ti     0.25   0.25   0.25
Ti4     Ti     0.75   0.25   0.25
Ti5     Ti     0.75   0.25   0.75
Ti6     Ti     0.25   0.75   0.75
Ti7     Ti     0.75   0.75   0.75
Er8     Er     0.5   0.0   0.0
V9     V     0.5   0.0   0.3314
V10     V     0.8314   0.0   0.0
V11     V     0.5   0.0   0.6686
V12     V     0.5   0.6686   0.0
V13     V     0.5   0.3314   0.0
V14     V     0.1686   0.0   0.0
Er15     Er     0.5   0.5   0.5
V16     V     0.8314   0.5   0.5
V17     V     0.5   0.8314   0.5
V18     V     0.5   0.5   0.8314
V19     V     0.1686   0.5   0.5
V20     V     0.5   0.1686   0.5
V21     V     0.5   0.5   0.1686
Er22     Er     0.0   0.5   0.0
V23     V     0.0   0.5   0.3314
V24     V     0.0   0.8314   0.0
V25     V     0.0   0.5   0.6686
V26     V     0.6686   0.5   0.0
V27     V     0.3314   0.5   0.0
V28     V     0.0   0.1686   0.0
Er29     Er     0.0   0.0   0.5
V30     V     0.0   0.0   0.8314
V31     V     0.0   0.6686   0.5
V32     V     0.0   0.3314   0.5
V33     V     0.6686   0.0   0.5
V34     V     0.3314   0.0   0.5
V35     V     0.0   0.0   0.1686
Ti36     Ti     0.75   0.75   0.25
loop_
_geom_bond_atom_site_label_1
_geom_bond_atom_site_label_2
_geom_bond_distance
_geom_bond_site_symmetry_2
_ccdc_geom_bond_type
Ti1     V11    10.176   .     S
Ti1     V20    10.176   .     S
Ti1     V34    10.176   .     S
Ti1     V25    10.176   .     S
Ti1     V19    10.176   .     S
Ti1     V32    10.176   .     S
Ti1     V18    10.176   .     S
Ti1     V13    10.176   1_556     S
Ti1     V27    10.176   1_556     S
Ti1     V28    10.176   1_556     S
Ti1     V14    10.176   1_556     S
Ti1     V30    10.176   .     S
Ti2     V21    10.176   .     S
Ti2     V12    10.176   .     S
Ti2     V27    10.176   .     S
Ti2     V23    10.176   .     S
Ti2     V19    10.176   .     S
Ti2     V31    10.176   .     S
Ti2     V9    10.176   1_565     S
Ti2     V17    10.176   .     S
Ti2     V34    10.176   1_565     S
Ti2     V35    10.176   1_565     S
Ti2     V14    10.176   1_565     S
Ti2     V24    10.176   .     S
Ti3     V21    10.176   .     S
Ti3     V27    10.176   .     S
Ti3     V13    10.176   .     S
Ti3     V9    10.176   .     S
Ti3     V20    10.176   .     S
Ti3     V34    10.176   .     S
Ti3     V35    10.176   .     S
Ti3     V14    10.176   .     S
Ti3     V28    10.176   .     S
Ti3     V23    10.176   .     S
Ti3     V19    10.176   .     S
Ti3     V32    10.176   .     S
Ti4     V21    10.176   .     S
Ti4     V26    10.176   .     S
Ti4     V13    10.176   .     S
Ti4     V20    10.176   .     S
Ti4     V33    10.176   .     S
Ti4     V9    10.176   .     S
Ti4     V23    10.176   1_655     S
Ti4     V32    10.176   1_655     S
Ti4     V16    10.176   .     S
Ti4     V35    10.176   1_655     S
Ti4     V28    10.176   1_655     S
Ti4     V10    10.176   .     S
Ti5     V33    10.176   .     S
Ti5     V20    10.176   .     S
Ti5     V11    10.176   .     S
Ti5     V18    10.176   .     S
Ti5     V26    10.176   1_556     S
Ti5     V13    10.176   1_556     S
Ti5     V25    10.176   1_655     S
Ti5     V16    10.176   .     S
Ti5     V32    10.176   1_655     S
Ti5     V30    10.176   1_655     S
Ti5     V28    10.176   1_656     S
Ti5     V10    10.176   1_556     S
Ti6     V19    10.176   .     S
Ti6     V31    10.176   .     S
Ti6     V25    10.176   .     S
Ti6     V18    10.176   .     S
Ti6     V12    10.176   1_556     S
Ti6     V27    10.176   1_556     S
Ti6     V11    10.176   1_565     S
Ti6     V34    10.176   1_565     S
Ti6     V17    10.176   .     S
Ti6     V30    10.176   1_565     S
Ti6     V14    10.176   1_566     S
Ti6     V24    10.176   1_556     S
Ti7     V18    10.176   .     S
Ti7     V12    10.176   1_556     S
Ti7     V26    10.176   1_556     S
Ti7     V11    10.176   1_565     S
Ti7     V17    10.176   .     S
Ti7     V33    10.176   1_565     S
Ti7     V25    10.176   1_655     S
Ti7     V31    10.176   1_655     S
Ti7     V16    10.176   .     S
Ti7     V30    10.176   1_665     S
Ti7     V24    10.176   1_656     S
Ti7     V10    10.176   1_566     S
Er8     V14    9.294   .     S
Er8     V9    9.294   .     S
Er8     V10    9.294   .     S
Er8     V11    9.294   1_554     S
Er8     V12    9.294   1_545     S
Er8     V13    9.294   .     S
V9     Ti2    10.176   1_545     S
V9     Ti36    10.176   1_545     S
V10     Ti5    10.176   1_554     S
V10     Ti7    10.176   1_544     S
V10     Ti36    10.176   1_545     S
V11     Ti6    10.176   1_545     S
V11     Ti7    10.176   1_545     S
V11     Er8    9.294   1_556     S
V12     Ti6    10.176   1_554     S
V12     Ti7    10.176   1_554     S
V12     Ti36    10.176   .     S
V12     Er8    9.294   1_565     S
V13     Ti1    10.176   1_554     S
V13     Ti5    10.176   1_554     S
V14     Ti1    10.176   1_554     S
V14     Ti2    10.176   1_545     S
V14     Ti6    10.176   1_544     S
Er15     V19    9.294   .     S
Er15     V20    9.294   .     S
Er15     V21    9.294   .     S
Er15     V16    9.294   .     S
Er15     V17    9.294   .     S
Er15     V18    9.294   .     S
V16     Ti36    10.176   .     S
V17     Ti36    10.176   .     S
V21     Ti36    10.176   .     S
Er22     V28    9.294   .     S
Er22     V23    9.294   .     S
Er22     V24    9.294   .     S
Er22     V25    9.294   1_554     S
Er22     V26    9.294   1_455     S
Er22     V27    9.294   .     S
V23     Ti4    10.176   1_455     S
V23     Ti36    10.176   1_455     S
V24     Ti6    10.176   1_554     S
V24     Ti7    10.176   1_454     S
V24     Ti36    10.176   1_455     S
V25     Ti5    10.176   1_455     S
V25     Ti7    10.176   1_455     S
V25     Er22    9.294   1_556     S
V26     Ti5    10.176   1_554     S
V26     Ti7    10.176   1_554     S
V26     Ti36    10.176   .     S
V26     Er22    9.294   1_655     S
V27     Ti1    10.176   1_554     S
V27     Ti6    10.176   1_554     S
V28     Ti1    10.176   1_554     S
V28     Ti4    10.176   1_455     S
V28     Ti5    10.176   1_454     S
Er29     V35    9.294   .     S
Er29     V30    9.294   .     S
Er29     V31    9.294   1_545     S
Er29     V32    9.294   .     S
Er29     V33    9.294   1_455     S
Er29     V34    9.294   .     S
V30     Ti5    10.176   1_455     S
V30     Ti6    10.176   1_545     S
V30     Ti7    10.176   1_445     S
V31     Ti7    10.176   1_455     S
V31     Ti36    10.176   1_455     S
V31     Er29    9.294   1_565     S
V32     Ti4    10.176   1_455     S
V32     Ti5    10.176   1_455     S
V33     Ti7    10.176   1_545     S
V33     Ti36    10.176   1_545     S
V33     Er29    9.294   1_655     S
V34     Ti2    10.176   1_545     S
V34     Ti6    10.176   1_545     S
V35     Ti2    10.176   1_545     S
V35     Ti4    10.176   1_455     S
V35     Ti36    10.176   1_445     S
Ti36     V9    10.176   1_565     S
Ti36     V33    10.176   1_565     S
Ti36     V23    10.176   1_655     S
Ti36     V31    10.176   1_655     S
Ti36     V35    10.176   1_665     S
Ti36     V10    10.176   1_565     S
Ti36     V24    10.176   1_655     S
