data_kpl
_audit_creation_date              2020-02-04
_audit_creation_method            'Pymatgen'
_symmetry_space_group_name_H-M    'P1'
_symmetry_Int_Tables_number       1
loop_
_symmetry_equiv_pos_as_xyz
  x,y,z
_cell_length_a                    28.295
_cell_length_b                    28.295
_cell_length_c                    28.295
_cell_angle_alpha                 90.0
_cell_angle_beta                 90.0
_cell_angle_gamma                 90.0
loop_
_atom_site_label
_atom_site_type_symbol
_atom_site_fract_x
_atom_site_fract_y
_atom_site_fract_z
Er1     Er     0.25   0.25   0.25
V2     V     0.7503   0.0   0.0
V3     V     0.0   0.0   0.7503
V4     V     0.0   0.7503   0.0
V5     V     0.0   0.0   0.2497
V6     V     0.2497   0.0   0.0
V7     V     0.0   0.2497   0.0
Er8     Er     0.75   0.75   0.25
Er9     Er     0.75   0.25   0.75
Er10     Er     0.25   0.75   0.75
Er11     Er     0.75   0.75   0.75
V12     V     0.5   0.2503   0.5
V13     V     0.2503   0.5   0.5
V14     V     0.5   0.5   0.2503
V15     V     0.5   0.5   0.7497
V16     V     0.7497   0.5   0.5
V17     V     0.5   0.7497   0.5
Er18     Er     0.75   0.25   0.25
Er19     Er     0.25   0.25   0.75
Er20     Er     0.25   0.75   0.25
loop_
_geom_bond_atom_site_label_1
_geom_bond_atom_site_label_2
_geom_bond_distance
_geom_bond_site_symmetry_2
_ccdc_geom_bond_type
Er1     V14    10.004   .     S
Er1     V12    10.004   .     S
Er1     V13    10.004   .     S
Er1     V5    10.004   .     S
Er1     V6    10.004   .     S
Er1     V7    10.004   .     S
V2     Er18    10.004   .     S
V2     Er9    10.004   1_554     S
V2     Er11    10.004   1_544     S
V2     V7    9.993   1_655     S
V2     V3    9.993   1_654     S
V2     V4    9.993   1_645     S
V2     V5    9.993   1_655     S
V2     Er8    10.004   1_545     S
V3     Er19    10.004   .     S
V3     Er9    10.004   1_455     S
V3     Er10    10.004   1_545     S
V3     Er11    10.004   1_445     S
V3     V7    9.993   1_556     S
V3     V6    9.993   1_556     S
V3     V2    9.993   1_456     S
V3     V4    9.993   1_546     S
V4     Er20    10.004   .     S
V4     Er10    10.004   1_554     S
V4     Er11    10.004   1_454     S
V4     V6    9.993   1_565     S
V4     V3    9.993   1_564     S
V4     V2    9.993   1_465     S
V4     V5    9.993   1_565     S
V4     Er8    10.004   1_455     S
V5     Er20    10.004   1_545     S
V5     Er18    10.004   1_455     S
V5     V2    9.993   1_455     S
V5     V4    9.993   1_545     S
V5     V7    9.993   .     S
V5     V6    9.993   .     S
V5     Er8    10.004   1_445     S
V6     Er19    10.004   1_554     S
V6     Er20    10.004   1_545     S
V6     Er10    10.004   1_544     S
V6     V3    9.993   1_554     S
V6     V4    9.993   1_545     S
V6     V7    9.993   .     S
V7     Er19    10.004   1_554     S
V7     Er18    10.004   1_455     S
V7     Er9    10.004   1_454     S
V7     V3    9.993   1_554     S
V7     V2    9.993   1_455     S
Er8     V5    10.004   1_665     S
Er8     V2    10.004   1_565     S
Er8     V4    10.004   1_655     S
Er8     V17    10.004   .     S
Er8     V16    10.004   .     S
Er8     V14    10.004   .     S
Er9     V3    10.004   1_655     S
Er9     V7    10.004   1_656     S
Er9     V2    10.004   1_556     S
Er9     V15    10.004   .     S
Er9     V16    10.004   .     S
Er9     V12    10.004   .     S
Er10     V3    10.004   1_565     S
Er10     V6    10.004   1_566     S
Er10     V4    10.004   1_556     S
Er10     V15    10.004   .     S
Er10     V17    10.004   .     S
Er10     V13    10.004   .     S
Er11     V3    10.004   1_665     S
Er11     V4    10.004   1_656     S
Er11     V2    10.004   1_566     S
Er11     V15    10.004   .     S
Er11     V16    10.004   .     S
Er11     V17    10.004   .     S
V12     Er19    10.004   .     S
V12     V16    9.993   .     S
V12     V15    9.993   .     S
V12     V14    9.993   .     S
V12     V13    9.993   .     S
V12     Er18    10.004   .     S
V13     Er20    10.004   .     S
V13     Er19    10.004   .     S
V13     V15    9.993   .     S
V13     V14    9.993   .     S
V13     V17    9.993   .     S
V14     Er20    10.004   .     S
V14     V16    9.993   .     S
V14     V17    9.993   .     S
V14     Er18    10.004   .     S
V15     Er19    10.004   .     S
V15     V17    9.993   .     S
V15     V16    9.993   .     S
V16     V17    9.993   .     S
V16     Er18    10.004   .     S
V17     Er20    10.004   .     S
Er18     V5    10.004   1_655     S
Er18     V7    10.004   1_655     S
Er19     V7    10.004   1_556     S
Er19     V6    10.004   1_556     S
Er20     V5    10.004   1_565     S
Er20     V6    10.004   1_565     S
