data_kxea
_audit_creation_date              2020-02-04
_audit_creation_method            'Pymatgen'
_symmetry_space_group_name_H-M    'P1'
_symmetry_Int_Tables_number       1
loop_
_symmetry_equiv_pos_as_xyz
  x,y,z
_cell_length_a                    64.0734
_cell_length_b                    64.0734
_cell_length_c                    148.3209
_cell_angle_alpha                 90.0
_cell_angle_beta                 90.0
_cell_angle_gamma                 120.0
loop_
_atom_site_label
_atom_site_type_symbol
_atom_site_fract_x
_atom_site_fract_y
_atom_site_fract_z
V1     V     0.1326   0.7537   0.8177
Ti2     Ti     0.9929   0.5866   0.8108
Er3     Er     0.1379   0.6432   0.7713
V4     V     0.2463   0.3789   0.8177
Ti5     Ti     0.4134   0.4063   0.8108
Er6     Er     0.3568   0.4947   0.7713
V7     V     0.6211   0.8674   0.8177
Ti8     Ti     0.5937   0.0071   0.8108
Er9     Er     0.5053   0.8621   0.7713
V10     V     0.7122   0.7992   0.849
Ti11     Ti     0.7396   0.6596   0.8559
Er12     Er     0.828   0.8045   0.8953
V13     V     0.2008   0.913   0.849
Ti14     Ti     0.3404   0.08   0.8559
Er15     Er     0.1955   0.0235   0.8953
S16     S     0.5629   0.2756   0.8879
Ce17     Ce     0.5031   0.1891   0.8293
S18     S     0.609   0.3795   0.7787
Ce19     Ce     0.5224   0.3526   0.8374
S20     S     0.6205   0.2295   0.7787
Ce21     Ce     0.6474   0.1698   0.8374
S22     S     0.7128   0.4371   0.8879
Ce23     Ce     0.6859   0.4969   0.8293
S24     S     0.7705   0.391   0.7787
Ce25     Ce     0.8302   0.4776   0.8374
S26     S     0.7244   0.2872   0.8879
Ce27     Ce     0.8109   0.3141   0.8293
V28     V     0.087   0.2878   0.849
Ti29     Ti     0.92   0.2604   0.8559
Er30     Er     0.9765   0.172   0.8953
V31     V     0.7992   0.7122   0.651
Ti32     Ti     0.6596   0.7396   0.6441
Er33     Er     0.8045   0.828   0.6047
V34     V     0.2878   0.087   0.651
Ti35     Ti     0.2604   0.92   0.6441
Er36     Er     0.172   0.9765   0.6047
V37     V     0.913   0.2008   0.651
Ti38     Ti     0.08   0.3404   0.6441
Er39     Er     0.0235   0.1955   0.6047
V40     V     0.3789   0.2463   0.6823
Ti41     Ti     0.4063   0.4134   0.6892
Er42     Er     0.4947   0.3568   0.7287
V43     V     0.8674   0.6211   0.6823
Ti44     Ti     0.0071   0.5937   0.6892
Er45     Er     0.8621   0.5053   0.7287
S46     S     0.2756   0.5629   0.6121
Ce47     Ce     0.1891   0.5031   0.6707
S48     S     0.3795   0.609   0.7213
Ce49     Ce     0.3526   0.5224   0.6626
S50     S     0.2295   0.6205   0.7213
Ce51     Ce     0.1698   0.6474   0.6626
S52     S     0.2872   0.7244   0.6121
Ce53     Ce     0.3141   0.8109   0.6707
S54     S     0.4371   0.7128   0.6121
Ce55     Ce     0.4969   0.6859   0.6707
S56     S     0.391   0.7705   0.7213
Ce57     Ce     0.4776   0.8302   0.6626
V58     V     0.7537   0.1326   0.6823
Ti59     Ti     0.5866   0.9929   0.6892
Er60     Er     0.6432   0.1379   0.7287
V61     V     0.5341   0.5797   0.5156
Ti62     Ti     0.6738   0.7467   0.5225
Er63     Er     0.5288   0.6902   0.562
V64     V     0.0456   0.4659   0.5156
Ti65     Ti     0.0729   0.3262   0.5225
Er66     Er     0.1614   0.4712   0.562
V67     V     0.9544   0.5341   0.4844
Ti68     Ti     0.9271   0.6738   0.4775
Er69     Er     0.8386   0.5288   0.438
V70     V     0.5797   0.0456   0.4844
Ti71     Ti     0.7467   0.0729   0.4775
Er72     Er     0.6902   0.1614   0.438
V73     V     0.4659   0.4203   0.4844
Ti74     Ti     0.3262   0.2533   0.4775
Er75     Er     0.4712   0.3098   0.438
S76     S     0.9423   0.0461   0.4454
Ce77     Ce     0.8557   0.0193   0.504
S78     S     0.0577   0.9539   0.5546
Ce79     Ce     0.1443   0.9807   0.496
S80     S     0.9539   0.8962   0.4454
Ce81     Ce     0.9807   0.8365   0.504
S82     S     0.8962   0.9423   0.5546
Ce83     Ce     0.8365   0.8557   0.496
S84     S     0.0461   0.1038   0.5546
Ce85     Ce     0.0193   0.1635   0.496
S86     S     0.1038   0.0577   0.4454
Ce87     Ce     0.1635   0.1443   0.504
V88     V     0.4203   0.9544   0.5156
Ti89     Ti     0.2533   0.9271   0.5225
Er90     Er     0.3098   0.8386   0.562
V91     V     0.4203   0.4659   0.0156
Ti92     Ti     0.2533   0.3262   0.0225
Er93     Er     0.3098   0.4712   0.062
V94     V     0.5341   0.9544   0.0156
Ti95     Ti     0.6738   0.9271   0.0225
Er96     Er     0.5288   0.8386   0.062
V97     V     0.0456   0.5797   0.0156
Ti98     Ti     0.0729   0.7467   0.0225
Er99     Er     0.1614   0.6902   0.062
V100     V     0.4659   0.0456   0.9844
Ti101     Ti     0.3262   0.0729   0.9775
Er102     Er     0.4712   0.1614   0.938
V103     V     0.5797   0.5341   0.9844
Ti104     Ti     0.7467   0.6738   0.9775
Er105     Er     0.6902   0.5288   0.938
S106     S     0.0461   0.9423   0.0546
Ce107     Ce     0.0193   0.8557   0.996
S108     S     0.1038   0.0461   0.9454
Ce109     Ce     0.1635   0.0193   0.004
S110     S     0.0577   0.1038   0.0546
Ce111     Ce     0.1443   0.1635   0.996
S112     S     0.9539   0.0577   0.9454
Ce113     Ce     0.9807   0.1443   0.004
S114     S     0.8962   0.9539   0.0546
Ce115     Ce     0.8365   0.9807   0.996
S116     S     0.9423   0.8962   0.9454
Ce117     Ce     0.8557   0.8365   0.004
V118     V     0.9544   0.4203   0.9844
Ti119     Ti     0.9271   0.2533   0.9775
Er120     Er     0.8386   0.3098   0.938
V121     V     0.8674   0.2463   0.1823
Ti122     Ti     0.0071   0.4134   0.1892
Er123     Er     0.8621   0.3568   0.2287
V124     V     0.3789   0.1326   0.1823
Ti125     Ti     0.4063   0.9929   0.1892
Er126     Er     0.4947   0.1379   0.2287
V127     V     0.7992   0.087   0.151
Ti128     Ti     0.6596   0.92   0.1441
Er129     Er     0.8045   0.9765   0.1047
V130     V     0.913   0.7122   0.151
Ti131     Ti     0.08   0.7396   0.1441
Er132     Er     0.0235   0.828   0.1047
V133     V     0.7537   0.6211   0.1823
Ti134     Ti     0.5866   0.5937   0.1892
Er135     Er     0.6432   0.5053   0.2287
S136     S     0.4371   0.7244   0.1121
Ce137     Ce     0.4969   0.8109   0.1707
S138     S     0.3795   0.7705   0.2213
Ce139     Ce     0.3526   0.8302   0.1626
S140     S     0.391   0.6205   0.2213
Ce141     Ce     0.4776   0.6474   0.1626
S142     S     0.2872   0.5629   0.1121
Ce143     Ce     0.3141   0.5031   0.1707
S144     S     0.2756   0.7128   0.1121
Ce145     Ce     0.1891   0.6859   0.1707
S146     S     0.2295   0.609   0.2213
Ce147     Ce     0.1698   0.5224   0.1626
V148     V     0.2878   0.2008   0.151
Ti149     Ti     0.2604   0.3404   0.1441
Er150     Er     0.172   0.1955   0.1047
V151     V     0.2008   0.2878   0.349
Ti152     Ti     0.3404   0.2604   0.3559
Er153     Er     0.1955   0.172   0.3953
V154     V     0.7122   0.913   0.349
Ti155     Ti     0.7396   0.08   0.3559
Er156     Er     0.828   0.0235   0.3953
V157     V     0.087   0.7992   0.349
Ti158     Ti     0.92   0.6596   0.3559
Er159     Er     0.9765   0.8045   0.3953
V160     V     0.6211   0.7537   0.3177
Ti161     Ti     0.5937   0.5866   0.3108
Er162     Er     0.5053   0.6432   0.2713
V163     V     0.2463   0.8674   0.3177
Ti164     Ti     0.4134   0.0071   0.3108
Er165     Er     0.3568   0.8621   0.2713
S166     S     0.6205   0.391   0.2787
Ce167     Ce     0.6474   0.4776   0.3374
S168     S     0.5629   0.2872   0.3879
Ce169     Ce     0.5031   0.3141   0.3293
S170     S     0.609   0.2295   0.2787
Ce171     Ce     0.5224   0.1698   0.3374
S172     S     0.7128   0.2756   0.3879
Ce173     Ce     0.6859   0.1891   0.3293
S174     S     0.7244   0.4371   0.3879
Ce175     Ce     0.8109   0.4969   0.3293
S176     S     0.7705   0.3795   0.2787
Ce177     Ce     0.8302   0.3526   0.3374
V178     V     0.1326   0.3789   0.3177
Ti179     Ti     0.9929   0.4063   0.3108
Er180     Er     0.1379   0.4947   0.2713
loop_
_geom_bond_atom_site_label_1
_geom_bond_atom_site_label_2
_geom_bond_distance
_geom_bond_site_symmetry_2
_ccdc_geom_bond_type
V1     Er3    9.999   .     S
V1     Ti2    9.994   1_455     S
V1     V13    10.01   .     S
Ti2     Er3    10.003   1_655     S
Ti2     V1    9.994   1_655     S
Ti2     Ce25    10.008   .     S
Er3     Ti2    10.003   1_455     S
Er3     S50    10.012   .     S
V4     Er6    9.999   .     S
V4     Ti5    9.994   .     S
V4     V28    10.01   .     S
Ti5     Er6    10.003   .     S
Ti5     Ce19    10.008   .     S
Er6     S48    10.012   .     S
V7     Er9    9.999   .     S
V7     Ti8    9.994   1_565     S
V7     V10    10.01   .     S
Ti8     Er9    10.003   1_545     S
Ti8     V7    9.994   1_545     S
Ti8     Ce21    10.008   .     S
Er9     Ti8    10.003   1_565     S
Er9     S56    10.012   .     S
V10     Er12    9.999   .     S
V10     Ti11    9.994   .     S
Ti11     Er12    10.003   .     S
Ti11     Ce23    10.008   .     S
Er12     S116    10.012   .     S
V13     Er15    9.999   1_565     S
V13     Ti14    9.994   1_565     S
Ti14     Er15    10.003   .     S
Ti14     V13    9.994   1_545     S
Ti14     Ce17    10.008   .     S
Er15     V13    9.999   1_545     S
Er15     S108    10.012   .     S
S16     Ce19    10.004   .     S
S16     Ce17    9.989   .     S
S16     S26    9.998   .     S
S16     S22    9.998   .     S
S16     Er102    10.012   .     S
Ce17     Ce19    9.989   .     S
Ce17     Ce21    9.989   .     S
Ce17     S20    10.004   .     S
S18     S24    9.998   .     S
S18     S20    9.998   .     S
S18     Ce23    10.004   .     S
S18     Ce19    9.989   .     S
S18     Er42    10.012   .     S
Ce19     Ce23    9.989   .     S
S20     S24    9.998   .     S
S20     Ce21    9.989   .     S
S20     Er60    10.012   .     S
Ce21     Ce27    9.989   .     S
Ce21     S26    10.004   .     S
S22     Ce23    9.989   .     S
S22     Ce25    10.004   .     S
S22     S26    9.998   .     S
S22     Er105    10.012   .     S
Ce23     Ce25    9.989   .     S
S24     Ce25    9.989   .     S
S24     Ce27    10.004   .     S
S24     Er45    10.012   .     S
Ce25     Ce27    9.989   .     S
S26     Ce27    9.989   .     S
S26     Er120    10.012   .     S
Ce27     Ti29    10.008   .     S
V28     Er30    9.999   1_455     S
V28     Ti29    9.994   1_455     S
Ti29     Er30    10.003   .     S
Ti29     V28    9.994   1_655     S
Er30     V28    9.999   1_655     S
Er30     S112    10.012   .     S
V31     Er33    9.999   .     S
V31     Ti32    9.994   .     S
V31     V43    10.01   .     S
Ti32     Er33    10.003   .     S
Ti32     Ce55    10.008   .     S
Er33     S82    10.012   .     S
V34     Er36    9.999   1_545     S
V34     Ti35    9.994   1_545     S
V34     V40    10.01   .     S
Ti35     Er36    10.003   .     S
Ti35     V34    9.994   1_565     S
Ti35     Ce53    10.008   .     S
Er36     V34    9.999   1_565     S
Er36     S78    10.012   .     S
V37     Er39    9.999   1_655     S
V37     Ti38    9.994   1_655     S
V37     V58    10.01   .     S
Ti38     Er39    10.003   .     S
Ti38     V37    9.994   1_455     S
Ti38     Ce47    10.008   .     S
Er39     V37    9.999   1_455     S
Er39     S84    10.012   .     S
V40     Er42    9.999   .     S
V40     Ti41    9.994   .     S
Ti41     Er42    10.003   .     S
Ti41     Ce49    10.008   .     S
V43     Er45    9.999   .     S
V43     Ti44    9.994   1_655     S
Ti44     Er45    10.003   1_455     S
Ti44     V43    9.994   1_455     S
Ti44     Ce51    10.008   .     S
Er45     Ti44    10.003   1_655     S
S46     Ce47    9.989   .     S
S46     Ce49    10.004   .     S
S46     S52    9.998   .     S
S46     S54    9.998   .     S
S46     Er66    10.012   .     S
Ce47     Ce49    9.989   .     S
Ce47     Ce51    9.989   .     S
Ce47     S50    10.004   .     S
S48     S56    9.998   .     S
S48     S50    9.998   .     S
S48     Ce55    10.004   .     S
S48     Ce49    9.989   .     S
Ce49     Ce55    9.989   .     S
S50     S56    9.998   .     S
S50     Ce51    9.989   .     S
Ce51     Ce53    9.989   .     S
Ce51     S52    10.004   .     S
S52     Ce53    9.989   .     S
S52     S54    9.998   .     S
S52     Er90    10.012   .     S
Ce53     Ce57    9.989   .     S
Ce53     S56    10.004   .     S
S54     Ce55    9.989   .     S
S54     Ce57    10.004   .     S
S54     Er63    10.012   .     S
Ce55     Ce57    9.989   .     S
S56     Ce57    9.989   .     S
Ce57     Ti59    10.008   .     S
V58     Er60    9.999   .     S
V58     Ti59    9.994   1_545     S
Ti59     Er60    10.003   1_565     S
Ti59     V58    9.994   1_565     S
Er60     Ti59    10.003   1_545     S
V61     Er63    9.999   .     S
V61     Ti62    9.994   .     S
V61     V73    10.01   .     S
Ti62     Er63    10.003   .     S
Ti62     Ce83    10.008   .     S
V64     Er66    9.999   .     S
V64     Ti65    9.994   .     S
V64     V67    10.01   1_455     S
Ti65     Er66    10.003   .     S
Ti65     Ce85    10.008   .     S
V67     Er69    9.999   .     S
V67     Ti68    9.994   .     S
V67     V64    10.01   1_655     S
Ti68     Er69    10.003   .     S
Ti68     Ce81    10.008   .     S
Er69     S174    10.012   .     S
V70     Er72    9.999   .     S
V70     Ti71    9.994   .     S
V70     V88    10.01   1_545     S
Ti71     Er72    10.003   .     S
Ti71     Ce77    10.008   .     S
Er72     S172    10.012   .     S
V73     Er75    9.999   .     S
V73     Ti74    9.994   .     S
Ti74     Er75    10.003   .     S
Ti74     Ce87    10.008   .     S
Er75     S168    10.012   .     S
S76     Ce77    9.989   .     S
S76     Ce85    10.004   1_655     S
S76     S86    9.998   1_655     S
S76     S80    9.998   1_545     S
S76     Er156    10.012   .     S
Ce77     Ce83    9.989   1_545     S
Ce77     S82    10.004   1_545     S
Ce77     Ce85    9.989   1_655     S
S78     S82    9.998   1_455     S
S78     S84    9.998   1_565     S
S78     Ce79    9.989   .     S
S78     Ce81    10.004   1_455     S
Ce79     Ce81    9.989   1_455     S
Ce79     Ce87    9.989   1_565     S
Ce79     S86    10.004   1_565     S
Ce79     Ti89    10.008   .     S
S80     Ce81    9.989   .     S
S80     Ce83    10.004   .     S
S80     S86    9.998   1_665     S
S80     S76    9.998   1_565     S
S80     Er159    10.012   .     S
Ce81     Ce79    9.989   1_655     S
Ce81     S78    10.004   1_655     S
Ce81     Ce83    9.989   .     S
S82     S78    9.998   1_655     S
S82     S84    9.998   1_665     S
S82     Ce77    10.004   1_565     S
S82     Ce83    9.989   .     S
Ce83     Ce77    9.989   1_565     S
S84     S78    9.998   1_545     S
S84     S82    9.998   1_445     S
S84     Ce87    10.004   .     S
S84     Ce85    9.989   .     S
Ce85     Ce87    9.989   .     S
Ce85     Ce77    9.989   1_455     S
Ce85     S76    10.004   1_455     S
S86     Ce79    10.004   1_545     S
S86     Ce87    9.989   .     S
S86     S76    9.998   1_455     S
S86     S80    9.998   1_445     S
S86     Er153    10.012   .     S
Ce87     Ce79    9.989   1_545     S
V88     Er90    9.999   .     S
V88     Ti89    9.994   .     S
V88     V70    10.01   1_565     S
Ti89     Er90    10.003   .     S
V91     Er93    9.999   .     S
V91     Ti92    9.994   .     S
V91     V103    10.01   1_554     S
Ti92     Er93    10.003   .     S
Ti92     Ce111    10.008   1_554     S
Er93     S142    10.012   .     S
V94     Er96    9.999   .     S
V94     Ti95    9.994   .     S
V94     V100    10.01   1_564     S
Ti95     Er96    10.003   .     S
Ti95     Ce115    10.008   1_554     S
Er96     S136    10.012   .     S
V97     Er99    9.999   .     S
V97     Ti98    9.994   .     S
V97     V118    10.01   1_454     S
Ti98     Er99    10.003   .     S
Ti98     Ce107    10.008   1_554     S
Er99     S144    10.012   .     S
V100     Er102    9.999   .     S
V100     Ti101    9.994   .     S
V100     V94    10.01   1_546     S
Ti101     Er102    10.003   .     S
Ti101     Ce109    10.008   1_556     S
V103     Er105    9.999   .     S
V103     Ti104    9.994   .     S
V103     V91    10.01   1_556     S
Ti104     Er105    10.003   .     S
Ti104     Ce117    10.008   1_556     S
S106     S110    9.998   1_565     S
S106     S114    9.998   1_455     S
S106     Ce107    9.989   1_554     S
S106     Ce109    10.004   1_565     S
S106     Er132    10.012   .     S
Ce107     Ti98    10.008   1_556     S
Ce107     Ce117    9.989   1_456     S
Ce107     S116    10.004   1_455     S
Ce107     S106    9.989   1_556     S
Ce107     Ce109    9.989   1_566     S
S108     Ce111    10.004   .     S
S108     Ce109    9.989   1_556     S
S108     S116    9.998   1_445     S
S108     S112    9.998   1_455     S
Ce109     Ti101    10.008   1_554     S
Ce109     Ce107    9.989   1_544     S
Ce109     S106    10.004   1_545     S
Ce109     Ce111    9.989   1_554     S
Ce109     S108    9.989   1_554     S
S110     S106    9.998   1_545     S
S110     S114    9.998   1_445     S
S110     Ce113    10.004   1_455     S
S110     Ce111    9.989   1_554     S
S110     Er150    10.012   .     S
Ce111     Ti92    10.008   1_556     S
Ce111     Ce109    9.989   1_556     S
Ce111     Ce113    9.989   1_456     S
Ce111     S110    9.989   1_556     S
S112     Ce115    10.004   1_545     S
S112     Ce113    9.989   1_556     S
S112     S108    9.998   1_655     S
S112     S116    9.998   1_545     S
Ce113     Ce111    9.989   1_654     S
Ce113     S110    10.004   1_655     S
Ce113     Ce115    9.989   1_544     S
Ce113     S112    9.989   1_554     S
Ce113     Ti119    10.008   1_554     S
S114     S110    9.998   1_665     S
S114     S106    9.998   1_655     S
S114     Ce115    9.989   1_554     S
S114     Ce117    10.004   .     S
S114     Er129    10.012   .     S
Ce115     Ti95    10.008   1_556     S
Ce115     Ce113    9.989   1_566     S
Ce115     S112    10.004   1_565     S
Ce115     S114    9.989   1_556     S
Ce115     Ce117    9.989   1_556     S
S116     Ce107    10.004   1_655     S
S116     Ce117    9.989   1_556     S
S116     S108    9.998   1_665     S
S116     S112    9.998   1_565     S
Ce117     Ti104    10.008   1_554     S
Ce117     Ce107    9.989   1_654     S
Ce117     Ce115    9.989   1_554     S
Ce117     S116    9.989   1_554     S
V118     Er120    9.999   .     S
V118     Ti119    9.994   .     S
V118     V97    10.01   1_656     S
Ti119     Er120    10.003   .     S
Ti119     Ce113    10.008   1_556     S
V121     Er123    9.999   .     S
V121     Ti122    9.994   1_655     S
V121     V127    10.01   .     S
Ti122     Er123    10.003   1_455     S
Ti122     V121    9.994   1_455     S
Ti122     Ce147    10.008   .     S
Er123     Ti122    10.003   1_655     S
Er123     S176    10.012   .     S
V124     Er126    9.999   .     S
V124     Ti125    9.994   1_545     S
V124     V148    10.01   .     S
Ti125     Er126    10.003   1_565     S
Ti125     V124    9.994   1_565     S
Ti125     Ce139    10.008   .     S
Er126     Ti125    10.003   1_545     S
Er126     S170    10.012   .     S
V127     Er129    9.999   1_545     S
V127     Ti128    9.994   1_545     S
Ti128     Er129    10.003   .     S
Ti128     V127    9.994   1_565     S
Ti128     Ce137    10.008   .     S
Er129     V127    9.999   1_565     S
V130     Er132    9.999   1_655     S
V130     Ti131    9.994   1_655     S
V130     V133    10.01   .     S
Ti131     Er132    10.003   .     S
Ti131     V130    9.994   1_455     S
Ti131     Ce145    10.008   .     S
Er132     V130    9.999   1_455     S
V133     Er135    9.999   .     S
V133     Ti134    9.994   .     S
Ti134     Er135    10.003   .     S
Ti134     Ce141    10.008   .     S
Er135     S166    10.012   .     S
S136     S144    9.998   .     S
S136     S142    9.998   .     S
S136     Ce141    10.004   .     S
S136     Ce137    9.989   .     S
Ce137     Ce141    9.989   .     S
Ce137     Ce139    9.989   .     S
Ce137     S138    10.004   .     S
S138     Ce139    9.989   .     S
S138     S140    9.998   .     S
S138     S146    9.998   .     S
S138     Er165    10.012   .     S
Ce139     Ce145    9.989   .     S
Ce139     S144    10.004   .     S
S140     Ce141    9.989   .     S
S140     Ce143    10.004   .     S
S140     S146    9.998   .     S
S140     Er162    10.012   .     S
Ce141     Ce143    9.989   .     S
S142     S144    9.998   .     S
S142     Ce147    10.004   .     S
S142     Ce143    9.989   .     S
Ce143     Ce147    9.989   .     S
Ce143     Ti149    10.008   .     S
S144     Ce145    9.989   .     S
Ce145     Ce147    9.989   .     S
Ce145     S146    10.004   .     S
S146     Ce147    9.989   .     S
S146     Er180    10.012   .     S
V148     Er150    9.999   .     S
V148     Ti149    9.994   .     S
Ti149     Er150    10.003   .     S
V151     Er153    9.999   .     S
V151     Ti152    9.994   .     S
V151     V178    10.01   .     S
Ti152     Er153    10.003   .     S
Ti152     Ce169    10.008   .     S
V154     Er156    9.999   1_565     S
V154     Ti155    9.994   1_565     S
V154     V160    10.01   .     S
Ti155     Er156    10.003   .     S
Ti155     V154    9.994   1_545     S
Ti155     Ce173    10.008   .     S
Er156     V154    9.999   1_545     S
V157     Er159    9.999   1_455     S
V157     Ti158    9.994   1_455     S
V157     V163    10.01   .     S
Ti158     Er159    10.003   .     S
Ti158     V157    9.994   1_655     S
Ti158     Ce175    10.008   .     S
Er159     V157    9.999   1_655     S
V160     Er162    9.999   .     S
V160     Ti161    9.994   .     S
Ti161     Er162    10.003   .     S
Ti161     Ce167    10.008   .     S
V163     Er165    9.999   .     S
V163     Ti164    9.994   1_565     S
Ti164     Er165    10.003   1_545     S
Ti164     V163    9.994   1_545     S
Ti164     Ce171    10.008   .     S
Er165     Ti164    10.003   1_565     S
S166     Ce167    9.989   .     S
S166     Ce169    10.004   .     S
S166     S176    9.998   .     S
S166     S170    9.998   .     S
Ce167     Ce175    9.989   .     S
Ce167     S174    10.004   .     S
Ce167     Ce169    9.989   .     S
S168     S174    9.998   .     S
S168     S172    9.998   .     S
S168     Ce171    10.004   .     S
S168     Ce169    9.989   .     S
Ce169     Ce171    9.989   .     S
S170     Ce173    10.004   .     S
S170     Ce171    9.989   .     S
S170     S176    9.998   .     S
Ce171     Ce173    9.989   .     S
S172     S174    9.998   .     S
S172     Ce173    9.989   .     S
S172     Ce177    10.004   .     S
Ce173     Ce177    9.989   .     S
S174     Ce175    9.989   .     S
Ce175     Ce177    9.989   .     S
Ce175     S176    10.004   .     S
S176     Ce177    9.989   .     S
Ce177     Ti179    10.008   .     S
V178     Er180    9.999   .     S
V178     Ti179    9.994   1_455     S
Ti179     Er180    10.003   1_655     S
Ti179     V178    9.994   1_655     S
Er180     Ti179    10.003   1_455     S
