data_lcsa
_audit_creation_date              2020-02-04
_audit_creation_method            'Pymatgen'
_symmetry_space_group_name_H-M    'P1'
_symmetry_Int_Tables_number       1
loop_
_symmetry_equiv_pos_as_xyz
  x,y,z
_cell_length_a                    71.6778
_cell_length_b                    71.6778
_cell_length_c                    71.6778
_cell_angle_alpha                 90.0
_cell_angle_beta                 90.0
_cell_angle_gamma                 90.0
loop_
_atom_site_label
_atom_site_type_symbol
_atom_site_fract_x
_atom_site_fract_y
_atom_site_fract_z
V1     V     0.7235   0.5757   0.0645
V2     V     0.7765   0.5757   0.9355
V3     V     0.8145   0.6743   0.0265
V4     V     0.6855   0.6743   0.9735
V5     V     0.0645   0.7235   0.5757
V6     V     0.9355   0.7765   0.5757
V7     V     0.0265   0.8145   0.6743
V8     V     0.9735   0.6855   0.6743
V9     V     0.9243   0.5645   0.7235
V10     V     0.9243   0.4355   0.7765
V11     V     0.8257   0.4735   0.6855
V12     V     0.8257   0.5265   0.8145
V13     V     0.5757   0.0645   0.7235
V14     V     0.5757   0.9355   0.7765
V15     V     0.6743   0.0265   0.8145
V16     V     0.6743   0.9735   0.6855
V17     V     0.7235   0.9243   0.5645
V18     V     0.7765   0.9243   0.4355
V19     V     0.6855   0.8257   0.4735
V20     V     0.8145   0.8257   0.5265
V21     V     0.5645   0.2765   0.5757
V22     V     0.4355   0.2235   0.5757
V23     V     0.5265   0.1855   0.6743
V24     V     0.4735   0.3145   0.6743
V25     V     0.5645   0.7235   0.9243
V26     V     0.4355   0.7765   0.9243
V27     V     0.4735   0.6855   0.8257
V28     V     0.5265   0.8145   0.8257
V29     V     0.5757   0.5645   0.2765
V30     V     0.5757   0.4355   0.2235
V31     V     0.6743   0.5265   0.1855
V32     V     0.6743   0.4735   0.3145
V33     V     0.4355   0.2765   0.0757
V34     V     0.5645   0.2235   0.0757
V35     V     0.5265   0.3145   0.1743
V36     V     0.4735   0.1855   0.1743
V37     V     0.1855   0.6743   0.5265
V38     V     0.3145   0.6743   0.4735
V39     V     0.2765   0.5757   0.5645
V40     V     0.2235   0.5757   0.4355
V41     V     0.4243   0.5645   0.7765
V42     V     0.4243   0.4355   0.7235
V43     V     0.3257   0.4735   0.8145
V44     V     0.3257   0.5265   0.6855
V45     V     0.2235   0.4243   0.0645
V46     V     0.2765   0.4243   0.9355
V47     V     0.1855   0.3257   0.9735
V48     V     0.3145   0.3257   0.0265
V49     V     0.0645   0.2765   0.9243
V50     V     0.9355   0.2235   0.9243
V51     V     0.0265   0.1855   0.8257
V52     V     0.9735   0.3145   0.8257
V53     V     0.6855   0.1743   0.0265
V54     V     0.8145   0.1743   0.9735
V55     V     0.7765   0.0757   0.0645
V56     V     0.7235   0.0757   0.9355
V57     V     0.2235   0.0757   0.5645
V58     V     0.2765   0.0757   0.4355
V59     V     0.3145   0.1743   0.5265
V60     V     0.1855   0.1743   0.4735
V61     V     0.2765   0.9243   0.0645
V62     V     0.2235   0.9243   0.9355
V63     V     0.3145   0.8257   0.9735
V64     V     0.1855   0.8257   0.0265
V65     V     0.1743   0.9735   0.8145
V66     V     0.1743   0.0265   0.6855
V67     V     0.0757   0.0645   0.7765
V68     V     0.0757   0.9355   0.7235
V69     V     0.0757   0.5645   0.2235
V70     V     0.0757   0.4355   0.2765
V71     V     0.1743   0.4735   0.1855
V72     V     0.1743   0.5265   0.3145
V73     V     0.9735   0.8145   0.1743
V74     V     0.0265   0.6855   0.1743
V75     V     0.0645   0.7765   0.0757
V76     V     0.9355   0.7235   0.0757
V77     V     0.9243   0.0645   0.2765
V78     V     0.9243   0.9355   0.2235
V79     V     0.8257   0.9735   0.3145
V80     V     0.8257   0.0265   0.1855
V81     V     0.7765   0.4243   0.5645
V82     V     0.7235   0.4243   0.4355
V83     V     0.8145   0.3257   0.4735
V84     V     0.6855   0.3257   0.5265
V85     V     0.0645   0.2235   0.4243
V86     V     0.9355   0.2765   0.4243
V87     V     0.9735   0.1855   0.3257
V88     V     0.0265   0.3145   0.3257
V89     V     0.5645   0.7765   0.4243
V90     V     0.4355   0.7235   0.4243
V91     V     0.5265   0.6855   0.3257
V92     V     0.4735   0.8145   0.3257
V93     V     0.4243   0.0645   0.2235
V94     V     0.4243   0.9355   0.2765
V95     V     0.3257   0.9735   0.1855
V96     V     0.3257   0.0265   0.3145
loop_
_geom_bond_atom_site_label_1
_geom_bond_atom_site_label_2
_geom_bond_distance
_geom_bond_site_symmetry_2
_ccdc_geom_bond_type
V1     V2    10.0   1_554     S
V1     V4    10.0   1_554     S
V1     V3    10.0   .     S
V1     V31    10.0   .     S
V2     V1    10.0   1_556     S
V2     V4    10.0   .     S
V2     V3    10.0   1_556     S
V2     V12    10.0   .     S
V3     V2    10.0   1_554     S
V3     V4    10.0   1_554     S
V3     V76    10.0   .     S
V4     V1    10.0   1_556     S
V4     V3    10.0   1_556     S
V4     V25    10.0   .     S
V5     V6    10.0   1_455     S
V5     V8    10.0   1_455     S
V5     V7    10.0   .     S
V5     V37    10.0   .     S
V6     V5    10.0   1_655     S
V6     V8    10.0   .     S
V6     V7    10.0   1_655     S
V6     V20    10.0   .     S
V7     V6    10.0   1_455     S
V7     V8    10.0   1_455     S
V7     V68    10.0   .     S
V8     V5    10.0   1_655     S
V8     V7    10.0   1_655     S
V8     V9    10.0   .     S
V9     V10    10.0   .     S
V9     V12    10.0   .     S
V9     V11    10.0   .     S
V10     V12    10.0   .     S
V10     V11    10.0   .     S
V10     V52    10.0   .     S
V11     V12    10.0   .     S
V11     V81    10.0   .     S
V13     V14    10.0   1_545     S
V13     V16    10.0   1_545     S
V13     V15    10.0   .     S
V13     V23    10.0   .     S
V14     V13    10.0   1_565     S
V14     V16    10.0   .     S
V14     V15    10.0   1_565     S
V14     V28    10.0   .     S
V15     V14    10.0   1_545     S
V15     V16    10.0   1_545     S
V15     V56    10.0   .     S
V16     V13    10.0   1_565     S
V16     V15    10.0   1_565     S
V16     V17    10.0   .     S
V17     V18    10.0   .     S
V17     V19    10.0   .     S
V17     V20    10.0   .     S
V18     V19    10.0   .     S
V18     V20    10.0   .     S
V18     V79    10.0   .     S
V19     V20    10.0   .     S
V19     V89    10.0   .     S
V21     V22    10.0   .     S
V21     V23    10.0   .     S
V21     V24    10.0   .     S
V21     V84    10.0   .     S
V22     V23    10.0   .     S
V22     V24    10.0   .     S
V22     V59    10.0   .     S
V23     V24    10.0   .     S
V24     V42    10.0   .     S
V25     V26    10.0   .     S
V25     V28    10.0   .     S
V25     V27    10.0   .     S
V26     V27    10.0   .     S
V26     V28    10.0   .     S
V26     V63    10.0   .     S
V27     V28    10.0   .     S
V27     V41    10.0   .     S
V29     V30    10.0   .     S
V29     V31    10.0   .     S
V29     V32    10.0   .     S
V29     V91    10.0   .     S
V30     V31    10.0   .     S
V30     V32    10.0   .     S
V30     V35    10.0   .     S
V31     V32    10.0   .     S
V32     V82    10.0   .     S
V33     V34    10.0   .     S
V33     V36    10.0   .     S
V33     V35    10.0   .     S
V33     V48    10.0   .     S
V34     V36    10.0   .     S
V34     V35    10.0   .     S
V34     V53    10.0   .     S
V35     V36    10.0   .     S
V36     V93    10.0   .     S
V37     V38    10.0   .     S
V37     V39    10.0   .     S
V37     V40    10.0   .     S
V38     V40    10.0   .     S
V38     V39    10.0   .     S
V38     V90    10.0   .     S
V39     V40    10.0   .     S
V39     V44    10.0   .     S
V40     V72    10.0   .     S
V41     V42    10.0   .     S
V41     V43    10.0   .     S
V41     V44    10.0   .     S
V42     V44    10.0   .     S
V42     V43    10.0   .     S
V43     V44    10.0   .     S
V43     V46    10.0   .     S
V45     V46    10.0   1_554     S
V45     V48    10.0   .     S
V45     V47    10.0   1_554     S
V45     V71    10.0   .     S
V46     V45    10.0   1_556     S
V46     V48    10.0   1_556     S
V46     V47    10.0   .     S
V47     V48    10.0   1_556     S
V47     V45    10.0   1_556     S
V47     V49    10.0   .     S
V48     V47    10.0   1_554     S
V48     V46    10.0   1_554     S
V49     V50    10.0   1_455     S
V49     V51    10.0   .     S
V49     V52    10.0   1_455     S
V50     V49    10.0   1_655     S
V50     V51    10.0   1_655     S
V50     V52    10.0   .     S
V50     V54    10.0   .     S
V51     V52    10.0   1_455     S
V51     V50    10.0   1_455     S
V51     V67    10.0   .     S
V52     V51    10.0   1_655     S
V52     V49    10.0   1_655     S
V53     V54    10.0   1_554     S
V53     V56    10.0   1_554     S
V53     V55    10.0   .     S
V54     V53    10.0   1_556     S
V54     V56    10.0   .     S
V54     V55    10.0   1_556     S
V55     V54    10.0   1_554     S
V55     V56    10.0   1_554     S
V55     V80    10.0   .     S
V56     V53    10.0   1_556     S
V56     V55    10.0   1_556     S
V57     V58    10.0   .     S
V57     V59    10.0   .     S
V57     V60    10.0   .     S
V57     V66    10.0   .     S
V58     V59    10.0   .     S
V58     V60    10.0   .     S
V58     V96    10.0   .     S
V59     V60    10.0   .     S
V60     V85    10.0   .     S
V61     V62    10.0   1_554     S
V61     V63    10.0   1_554     S
V61     V64    10.0   .     S
V61     V95    10.0   .     S
V62     V61    10.0   1_556     S
V62     V63    10.0   .     S
V62     V64    10.0   1_556     S
V62     V65    10.0   .     S
V63     V61    10.0   1_556     S
V63     V64    10.0   1_556     S
V64     V62    10.0   1_554     S
V64     V63    10.0   1_554     S
V64     V75    10.0   .     S
V65     V66    10.0   1_565     S
V65     V68    10.0   .     S
V65     V67    10.0   1_565     S
V66     V65    10.0   1_545     S
V66     V67    10.0   .     S
V66     V68    10.0   1_545     S
V67     V65    10.0   1_545     S
V67     V68    10.0   1_545     S
V68     V66    10.0   1_565     S
V68     V67    10.0   1_565     S
V69     V70    10.0   .     S
V69     V72    10.0   .     S
V69     V71    10.0   .     S
V69     V74    10.0   .     S
V70     V72    10.0   .     S
V70     V71    10.0   .     S
V70     V88    10.0   .     S
V71     V72    10.0   .     S
V73     V74    10.0   1_655     S
V73     V75    10.0   1_655     S
V73     V76    10.0   .     S
V73     V78    10.0   .     S
V74     V73    10.0   1_455     S
V74     V75    10.0   .     S
V74     V76    10.0   1_455     S
V75     V73    10.0   1_455     S
V75     V76    10.0   1_455     S
V76     V74    10.0   1_655     S
V76     V75    10.0   1_655     S
V77     V78    10.0   1_545     S
V77     V80    10.0   .     S
V77     V79    10.0   1_545     S
V77     V87    10.0   .     S
V78     V77    10.0   1_565     S
V78     V80    10.0   1_565     S
V78     V79    10.0   .     S
V79     V77    10.0   1_565     S
V79     V80    10.0   1_565     S
V80     V78    10.0   1_545     S
V80     V79    10.0   1_545     S
V81     V82    10.0   .     S
V81     V83    10.0   .     S
V81     V84    10.0   .     S
V82     V83    10.0   .     S
V82     V84    10.0   .     S
V83     V84    10.0   .     S
V83     V86    10.0   .     S
V85     V86    10.0   1_455     S
V85     V87    10.0   1_455     S
V85     V88    10.0   .     S
V86     V85    10.0   1_655     S
V86     V87    10.0   .     S
V86     V88    10.0   1_655     S
V87     V85    10.0   1_655     S
V87     V88    10.0   1_655     S
V88     V86    10.0   1_455     S
V88     V87    10.0   1_455     S
V89     V90    10.0   .     S
V89     V91    10.0   .     S
V89     V92    10.0   .     S
V90     V91    10.0   .     S
V90     V92    10.0   .     S
V91     V92    10.0   .     S
V92     V94    10.0   .     S
V93     V94    10.0   1_545     S
V93     V96    10.0   .     S
V93     V95    10.0   1_545     S
V94     V93    10.0   1_565     S
V94     V96    10.0   1_565     S
V94     V95    10.0   .     S
V95     V96    10.0   1_565     S
V95     V93    10.0   1_565     S
V96     V95    10.0   1_545     S
V96     V94    10.0   1_545     S
