data_lcse
_audit_creation_date              2020-02-04
_audit_creation_method            'Pymatgen'
_symmetry_space_group_name_H-M    'P1'
_symmetry_Int_Tables_number       1
loop_
_symmetry_equiv_pos_as_xyz
  x,y,z
_cell_length_a                    38.6371
_cell_length_b                    38.6371
_cell_length_c                    38.6371
_cell_angle_alpha                 90.0
_cell_angle_beta                 90.0
_cell_angle_gamma                 90.0
loop_
_atom_site_label
_atom_site_type_symbol
_atom_site_fract_x
_atom_site_fract_y
_atom_site_fract_z
V1     V     0.7835   0.5335   0.875
V2     V     0.7835   0.4665   0.625
V3     V     0.7165   0.5335   0.125
V4     V     0.7165   0.4665   0.375
V5     V     0.125   0.7165   0.5335
V6     V     0.875   0.7835   0.5335
V7     V     0.625   0.7835   0.4665
V8     V     0.375   0.7165   0.4665
V9     V     0.7165   0.0335   0.875
V10     V     0.7165   0.9665   0.625
V11     V     0.7835   0.9665   0.375
V12     V     0.7835   0.0335   0.125
V13     V     0.875   0.7165   0.0335
V14     V     0.625   0.7165   0.9665
V15     V     0.375   0.7835   0.9665
V16     V     0.125   0.7835   0.0335
V17     V     0.2835   0.9665   0.125
V18     V     0.2165   0.9665   0.875
V19     V     0.2165   0.0335   0.625
V20     V     0.2835   0.0335   0.375
V21     V     0.0335   0.875   0.7165
V22     V     0.9665   0.625   0.7165
V23     V     0.9665   0.375   0.7835
V24     V     0.0335   0.125   0.7835
V25     V     0.4665   0.875   0.2835
V26     V     0.5335   0.625   0.2835
V27     V     0.5335   0.375   0.2165
V28     V     0.4665   0.125   0.2165
V29     V     0.125   0.2835   0.9665
V30     V     0.875   0.2165   0.9665
V31     V     0.625   0.2165   0.0335
V32     V     0.375   0.2835   0.0335
V33     V     0.5335   0.125   0.7165
V34     V     0.5335   0.875   0.7835
V35     V     0.4665   0.625   0.7835
V36     V     0.4665   0.375   0.7165
V37     V     0.2835   0.4665   0.875
V38     V     0.2835   0.5335   0.625
V39     V     0.2165   0.5335   0.375
V40     V     0.2165   0.4665   0.125
V41     V     0.9665   0.125   0.2835
V42     V     0.9665   0.875   0.2165
V43     V     0.0335   0.625   0.2165
V44     V     0.0335   0.375   0.2835
V45     V     0.875   0.2835   0.4665
V46     V     0.625   0.2835   0.5335
V47     V     0.375   0.2165   0.5335
V48     V     0.125   0.2165   0.4665
loop_
_geom_bond_atom_site_label_1
_geom_bond_atom_site_label_2
_geom_bond_distance
_geom_bond_site_symmetry_2
_ccdc_geom_bond_type
V1     V23    10.0   .     S
V1     V14    10.0   .     S
V1     V2    10.0   .     S
V1     V3    10.0   1_556     S
V1     V13    10.0   1_556     S
V1     V22    10.0   .     S
V2     V22    10.0   .     S
V2     V46    10.0   .     S
V2     V4    10.0   .     S
V2     V23    10.0   .     S
V2     V45    10.0   .     S
V3     V27    10.0   .     S
V3     V13    10.0   .     S
V3     V4    10.0   .     S
V3     V1    10.0   1_554     S
V3     V14    10.0   1_554     S
V3     V26    10.0   .     S
V4     V26    10.0   .     S
V4     V45    10.0   .     S
V4     V27    10.0   .     S
V4     V46    10.0   .     S
V5     V21    10.0   .     S
V5     V39    10.0   .     S
V5     V8    10.0   .     S
V5     V6    10.0   1_455     S
V5     V22    10.0   1_455     S
V5     V38    10.0   .     S
V6     V11    10.0   .     S
V6     V22    10.0   .     S
V6     V7    10.0   .     S
V6     V5    10.0   1_655     S
V6     V10    10.0   .     S
V6     V21    10.0   1_655     S
V7     V10    10.0   .     S
V7     V26    10.0   .     S
V7     V8    10.0   .     S
V7     V11    10.0   .     S
V7     V25    10.0   .     S
V8     V38    10.0   .     S
V8     V25    10.0   .     S
V8     V26    10.0   .     S
V8     V39    10.0   .     S
V9     V34    10.0   1_545     S
V9     V30    10.0   .     S
V9     V10    10.0   1_545     S
V9     V12    10.0   1_556     S
V9     V31    10.0   1_556     S
V9     V33    10.0   .     S
V10     V9    10.0   1_565     S
V10     V33    10.0   1_565     S
V10     V11    10.0   .     S
V10     V34    10.0   .     S
V11     V41    10.0   1_565     S
V11     V12    10.0   1_565     S
V11     V42    10.0   .     S
V12     V42    10.0   1_545     S
V12     V31    10.0   .     S
V12     V11    10.0   1_545     S
V12     V9    10.0   1_554     S
V12     V30    10.0   1_554     S
V12     V41    10.0   .     S
V13     V1    10.0   1_554     S
V13     V42    10.0   .     S
V13     V14    10.0   1_554     S
V13     V16    10.0   1_655     S
V13     V43    10.0   1_655     S
V14     V13    10.0   1_556     S
V14     V3    10.0   1_556     S
V14     V34    10.0   .     S
V14     V15    10.0   .     S
V14     V35    10.0   .     S
V15     V17    10.0   1_556     S
V15     V35    10.0   .     S
V15     V16    10.0   1_556     S
V15     V18    10.0   .     S
V15     V34    10.0   .     S
V16     V18    10.0   1_554     S
V16     V43    10.0   .     S
V16     V15    10.0   1_554     S
V16     V13    10.0   1_455     S
V16     V17    10.0   .     S
V16     V42    10.0   1_455     S
V17     V15    10.0   1_554     S
V17     V28    10.0   1_565     S
V17     V20    10.0   1_565     S
V17     V18    10.0   1_554     S
V17     V25    10.0   .     S
V18     V16    10.0   1_556     S
V18     V24    10.0   1_565     S
V18     V19    10.0   1_565     S
V18     V17    10.0   1_556     S
V18     V21    10.0   .     S
V19     V18    10.0   1_545     S
V19     V47    10.0   .     S
V19     V21    10.0   1_545     S
V19     V20    10.0   .     S
V19     V24    10.0   .     S
V19     V48    10.0   .     S
V20     V48    10.0   .     S
V20     V25    10.0   1_545     S
V20     V17    10.0   1_545     S
V20     V28    10.0   .     S
V20     V47    10.0   .     S
V21     V19    10.0   1_565     S
V21     V6    10.0   1_455     S
V21     V22    10.0   1_455     S
V21     V24    10.0   1_565     S
V22     V21    10.0   1_655     S
V22     V5    10.0   1_655     S
V22     V23    10.0   .     S
V23     V29    10.0   1_655     S
V23     V24    10.0   1_655     S
V23     V30    10.0   .     S
V24     V18    10.0   1_545     S
V24     V30    10.0   1_455     S
V24     V23    10.0   1_455     S
V24     V21    10.0   1_545     S
V24     V29    10.0   .     S
V25     V20    10.0   1_565     S
V25     V26    10.0   .     S
V25     V28    10.0   1_565     S
V26     V27    10.0   .     S
V27     V32    10.0   .     S
V27     V28    10.0   .     S
V27     V31    10.0   .     S
V28     V17    10.0   1_545     S
V28     V31    10.0   .     S
V28     V25    10.0   1_545     S
V28     V32    10.0   .     S
V29     V23    10.0   1_455     S
V29     V40    10.0   1_556     S
V29     V32    10.0   1_556     S
V29     V30    10.0   1_455     S
V29     V37    10.0   .     S
V30     V24    10.0   1_655     S
V30     V12    10.0   1_556     S
V30     V31    10.0   1_556     S
V30     V29    10.0   1_655     S
V31     V30    10.0   1_554     S
V31     V9    10.0   1_554     S
V31     V32    10.0   .     S
V32     V37    10.0   1_554     S
V32     V29    10.0   1_554     S
V32     V40    10.0   .     S
V33     V10    10.0   1_545     S
V33     V47    10.0   .     S
V33     V36    10.0   .     S
V33     V34    10.0   1_545     S
V33     V46    10.0   .     S
V34     V9    10.0   1_565     S
V34     V35    10.0   .     S
V34     V33    10.0   1_565     S
V35     V38    10.0   .     S
V35     V36    10.0   .     S
V35     V37    10.0   .     S
V36     V46    10.0   .     S
V36     V37    10.0   .     S
V36     V38    10.0   .     S
V36     V47    10.0   .     S
V37     V32    10.0   1_556     S
V37     V38    10.0   .     S
V37     V40    10.0   1_556     S
V38     V39    10.0   .     S
V39     V44    10.0   .     S
V39     V40    10.0   .     S
V39     V43    10.0   .     S
V40     V29    10.0   1_554     S
V40     V43    10.0   .     S
V40     V37    10.0   1_554     S
V40     V44    10.0   .     S
V41     V11    10.0   1_545     S
V41     V48    10.0   1_655     S
V41     V44    10.0   1_655     S
V41     V42    10.0   1_545     S
V41     V45    10.0   .     S
V42     V12    10.0   1_565     S
V42     V16    10.0   1_655     S
V42     V43    10.0   1_655     S
V42     V41    10.0   1_565     S
V43     V42    10.0   1_455     S
V43     V13    10.0   1_455     S
V43     V44    10.0   .     S
V44     V45    10.0   1_455     S
V44     V41    10.0   1_455     S
V44     V48    10.0   .     S
V45     V44    10.0   1_655     S
V45     V46    10.0   .     S
V45     V48    10.0   1_655     S
V46     V47    10.0   .     S
V47     V48    10.0   .     S
V48     V41    10.0   1_455     S
V48     V45    10.0   1_455     S
