data_lcsf
_audit_creation_date              2020-02-04
_audit_creation_method            'Pymatgen'
_symmetry_space_group_name_H-M    'P1'
_symmetry_Int_Tables_number       1
loop_
_symmetry_equiv_pos_as_xyz
  x,y,z
_cell_length_a                    76.6583
_cell_length_b                    76.6583
_cell_length_c                    76.6583
_cell_angle_alpha                 90.0
_cell_angle_beta                 90.0
_cell_angle_gamma                 90.0
loop_
_atom_site_label
_atom_site_type_symbol
_atom_site_fract_x
_atom_site_fract_y
_atom_site_fract_z
V1     V     0.8248   0.647   0.044
V2     V     0.794   0.603   0.9252
V3     V     0.6752   0.647   0.956
V4     V     0.706   0.603   0.0748
V5     V     0.6752   0.353   0.544
V6     V     0.706   0.397   0.4252
V7     V     0.794   0.397   0.5748
V8     V     0.8248   0.353   0.456
V9     V     0.294   0.603   0.5748
V10     V     0.206   0.603   0.4252
V11     V     0.1752   0.647   0.544
V12     V     0.3248   0.647   0.456
V13     V     0.544   0.6752   0.353
V14     V     0.4252   0.706   0.397
V15     V     0.456   0.8248   0.353
V16     V     0.5748   0.794   0.397
V17     V     0.044   0.8248   0.647
V18     V     0.9252   0.794   0.603
V19     V     0.956   0.6752   0.647
V20     V     0.0748   0.706   0.603
V21     V     0.603   0.4252   0.206
V22     V     0.603   0.5748   0.294
V23     V     0.647   0.544   0.1752
V24     V     0.647   0.456   0.3248
V25     V     0.853   0.544   0.8248
V26     V     0.897   0.4252   0.794
V27     V     0.853   0.456   0.6752
V28     V     0.897   0.5748   0.706
V29     V     0.147   0.044   0.6752
V30     V     0.103   0.9252   0.706
V31     V     0.147   0.956   0.8248
V32     V     0.103   0.0748   0.794
V33     V     0.044   0.1752   0.853
V34     V     0.9252   0.206   0.897
V35     V     0.956   0.3248   0.853
V36     V     0.0748   0.294   0.897
V37     V     0.8248   0.147   0.956
V38     V     0.794   0.103   0.0748
V39     V     0.6752   0.147   0.0441
V40     V     0.706   0.103   0.9252
V41     V     0.8248   0.853   0.544
V42     V     0.794   0.897   0.4252
V43     V     0.6752   0.853   0.456
V44     V     0.706   0.897   0.5748
V45     V     0.544   0.8248   0.853
V46     V     0.4252   0.794   0.897
V47     V     0.456   0.6752   0.853
V48     V     0.5748   0.706   0.897
V49     V     0.044   0.6752   0.147
V50     V     0.9252   0.706   0.103
V51     V     0.956   0.8248   0.147
V52     V     0.0748   0.794   0.103
V53     V     0.1752   0.853   0.044
V54     V     0.206   0.897   0.9252
V55     V     0.3248   0.853   0.956
V56     V     0.2941   0.897   0.0748
V57     V     0.853   0.956   0.3248
V58     V     0.897   0.0748   0.2941
V59     V     0.853   0.044   0.1752
V60     V     0.897   0.9252   0.206
V61     V     0.353   0.456   0.8248
V62     V     0.397   0.5748   0.794
V63     V     0.353   0.544   0.6752
V64     V     0.397   0.4252   0.706
V65     V     0.294   0.397   0.9252
V66     V     0.3248   0.353   0.044
V67     V     0.1752   0.353   0.956
V68     V     0.206   0.397   0.0748
V69     V     0.5748   0.206   0.103
V70     V     0.544   0.3248   0.147
V71     V     0.4252   0.294   0.103
V72     V     0.456   0.1752   0.147
V73     V     0.103   0.4252   0.294
V74     V     0.147   0.456   0.1752
V75     V     0.103   0.5748   0.206
V76     V     0.147   0.544   0.3248
V77     V     0.353   0.956   0.1752
V78     V     0.353   0.044   0.3248
V79     V     0.397   0.9252   0.294
V80     V     0.397   0.0748   0.206
V81     V     0.5748   0.294   0.603
V82     V     0.544   0.1752   0.647
V83     V     0.4252   0.206   0.603
V84     V     0.456   0.3248   0.647
V85     V     0.956   0.1752   0.353
V86     V     0.044   0.3248   0.353
V87     V     0.9252   0.294   0.397
V88     V     0.0748   0.206   0.397
V89     V     0.206   0.103   0.5748
V90     V     0.3248   0.147   0.544
V91     V     0.294   0.103   0.4252
V92     V     0.1752   0.147   0.456
V93     V     0.647   0.956   0.6752
V94     V     0.647   0.044   0.8248
V95     V     0.603   0.0748   0.706
V96     V     0.603   0.9252   0.794
loop_
_geom_bond_atom_site_label_1
_geom_bond_atom_site_label_2
_geom_bond_distance
_geom_bond_site_symmetry_2
_ccdc_geom_bond_type
V1     V4    10.0   .     S
V1     V2    10.0   1_554     S
V1     V50    10.0   .     S
V2     V1    10.0   1_556     S
V2     V3    10.0   .     S
V2     V25    10.0   .     S
V3     V4    10.0   1_556     S
V3     V48    10.0   .     S
V4     V3    10.0   1_554     S
V4     V23    10.0   .     S
V5     V7    10.0   .     S
V5     V6    10.0   .     S
V5     V81    10.0   .     S
V6     V8    10.0   .     S
V6     V24    10.0   .     S
V7     V8    10.0   .     S
V7     V27    10.0   .     S
V8     V87    10.0   .     S
V9     V12    10.0   .     S
V9     V11    10.0   .     S
V9     V63    10.0   .     S
V10     V12    10.0   .     S
V10     V11    10.0   .     S
V10     V76    10.0   .     S
V11     V20    10.0   .     S
V12     V14    10.0   .     S
V13     V16    10.0   .     S
V13     V14    10.0   .     S
V13     V22    10.0   .     S
V14     V15    10.0   .     S
V15     V16    10.0   .     S
V15     V79    10.0   .     S
V16     V43    10.0   .     S
V17     V20    10.0   .     S
V17     V18    10.0   1_455     S
V17     V30    10.0   .     S
V18     V17    10.0   1_655     S
V18     V19    10.0   .     S
V18     V41    10.0   .     S
V19     V20    10.0   1_655     S
V19     V28    10.0   .     S
V20     V19    10.0   1_455     S
V21     V24    10.0   .     S
V21     V23    10.0   .     S
V21     V70    10.0   .     S
V22     V24    10.0   .     S
V22     V23    10.0   .     S
V25     V28    10.0   .     S
V25     V26    10.0   .     S
V26     V27    10.0   .     S
V26     V35    10.0   .     S
V27     V28    10.0   .     S
V29     V32    10.0   .     S
V29     V30    10.0   1_545     S
V29     V89    10.0   .     S
V30     V29    10.0   1_565     S
V30     V31    10.0   .     S
V31     V32    10.0   1_565     S
V31     V54    10.0   .     S
V32     V31    10.0   1_545     S
V32     V33    10.0   .     S
V33     V34    10.0   1_455     S
V33     V36    10.0   .     S
V34     V33    10.0   1_655     S
V34     V35    10.0   .     S
V34     V37    10.0   .     S
V35     V36    10.0   1_655     S
V36     V35    10.0   1_455     S
V36     V67    10.0   .     S
V37     V40    10.0   .     S
V37     V38    10.0   1_556     S
V38     V37    10.0   1_554     S
V38     V39    10.0   .     S
V38     V59    10.0   .     S
V39     V40    10.0   1_554     S
V39     V69    10.0   .     S
V40     V39    10.0   1_556     S
V40     V94    10.0   .     S
V41     V44    10.0   .     S
V41     V42    10.0   .     S
V42     V43    10.0   .     S
V42     V57    10.0   .     S
V43     V44    10.0   .     S
V44     V93    10.0   .     S
V45     V48    10.0   .     S
V45     V46    10.0   .     S
V45     V96    10.0   .     S
V46     V47    10.0   .     S
V46     V55    10.0   .     S
V47     V48    10.0   .     S
V47     V62    10.0   .     S
V49     V52    10.0   .     S
V49     V50    10.0   1_455     S
V49     V75    10.0   .     S
V50     V49    10.0   1_655     S
V50     V51    10.0   .     S
V51     V52    10.0   1_655     S
V51     V60    10.0   .     S
V52     V51    10.0   1_455     S
V52     V53    10.0   .     S
V53     V54    10.0   1_554     S
V53     V56    10.0   .     S
V54     V53    10.0   1_556     S
V54     V55    10.0   .     S
V55     V56    10.0   1_556     S
V56     V55    10.0   1_554     S
V56     V77    10.0   .     S
V57     V60    10.0   .     S
V57     V58    10.0   1_565     S
V58     V57    10.0   1_545     S
V58     V59    10.0   .     S
V58     V85    10.0   .     S
V59     V60    10.0   1_545     S
V60     V59    10.0   1_565     S
V61     V64    10.0   .     S
V61     V62    10.0   .     S
V61     V65    10.0   .     S
V62     V63    10.0   .     S
V63     V64    10.0   .     S
V64     V84    10.0   .     S
V65     V66    10.0   1_556     S
V65     V67    10.0   .     S
V66     V65    10.0   1_554     S
V66     V68    10.0   .     S
V66     V71    10.0   .     S
V67     V68    10.0   1_556     S
V68     V67    10.0   1_554     S
V68     V74    10.0   .     S
V69     V72    10.0   .     S
V69     V70    10.0   .     S
V70     V71    10.0   .     S
V71     V72    10.0   .     S
V72     V80    10.0   .     S
V73     V76    10.0   .     S
V73     V74    10.0   .     S
V73     V86    10.0   .     S
V74     V75    10.0   .     S
V75     V76    10.0   .     S
V77     V80    10.0   1_565     S
V77     V79    10.0   .     S
V78     V79    10.0   1_545     S
V78     V80    10.0   .     S
V78     V91    10.0   .     S
V79     V78    10.0   1_565     S
V80     V77    10.0   1_545     S
V81     V84    10.0   .     S
V81     V82    10.0   .     S
V82     V83    10.0   .     S
V82     V95    10.0   .     S
V83     V84    10.0   .     S
V83     V90    10.0   .     S
V85     V87    10.0   .     S
V85     V88    10.0   1_655     S
V86     V87    10.0   1_455     S
V86     V88    10.0   .     S
V87     V86    10.0   1_655     S
V88     V85    10.0   1_455     S
V88     V92    10.0   .     S
V89     V92    10.0   .     S
V89     V90    10.0   .     S
V90     V91    10.0   .     S
V91     V92    10.0   .     S
V93     V96    10.0   .     S
V93     V95    10.0   1_565     S
V94     V95    10.0   .     S
V94     V96    10.0   1_545     S
V95     V93    10.0   1_545     S
V96     V94    10.0   1_565     S
