data_lcve
_audit_creation_date              2020-02-04
_audit_creation_method            'Pymatgen'
_symmetry_space_group_name_H-M    'P1'
_symmetry_Int_Tables_number       1
loop_
_symmetry_equiv_pos_as_xyz
  x,y,z
_cell_length_a                    36.8208
_cell_length_b                    36.8208
_cell_length_c                    36.8208
_cell_angle_alpha                 90.0
_cell_angle_beta                 90.0
_cell_angle_gamma                 90.0
loop_
_atom_site_label
_atom_site_type_symbol
_atom_site_fract_x
_atom_site_fract_y
_atom_site_fract_z
V1     V     0.4841   0.875   0.7341
V2     V     0.4841   0.125   0.7659
V3     V     0.5159   0.375   0.7659
V4     V     0.5159   0.625   0.7341
V5     V     0.875   0.2659   0.0159
V6     V     0.625   0.2659   0.9841
V7     V     0.375   0.2341   0.9841
V8     V     0.125   0.2341   0.0159
V9     V     0.7341   0.4841   0.875
V10     V     0.7659   0.5159   0.375
V11     V     0.7341   0.5159   0.625
V12     V     0.7659   0.4841   0.125
V13     V     0.2659   0.0159   0.875
V14     V     0.2341   0.9841   0.375
V15     V     0.2659   0.9841   0.625
V16     V     0.2341   0.0159   0.125
V17     V     0.0159   0.875   0.2659
V18     V     0.9841   0.375   0.2341
V19     V     0.9841   0.625   0.2659
V20     V     0.0159   0.125   0.2341
V21     V     0.875   0.7341   0.4841
V22     V     0.375   0.7659   0.5159
V23     V     0.625   0.7341   0.5159
V24     V     0.125   0.7659   0.4841
loop_
_geom_bond_atom_site_label_1
_geom_bond_atom_site_label_2
_geom_bond_distance
_geom_bond_site_symmetry_2
_ccdc_geom_bond_type
V1     V22    9.84   .     S
V1     V15    9.84   .     S
V1     V4    9.279   .     S
V1     V2    9.279   1_565     S
V1     V23    10.88   .     S
V1     V13    10.88   1_565     S
V2     V13    9.84   .     S
V2     V7    9.84   .     S
V2     V1    9.279   1_545     S
V2     V3    9.279   .     S
V2     V15    10.88   1_545     S
V2     V6    10.88   .     S
V3     V6    9.84   .     S
V3     V9    9.84   .     S
V3     V4    9.279   .     S
V3     V7    10.88   .     S
V3     V11    10.88   .     S
V4     V23    9.84   .     S
V4     V11    9.84   .     S
V4     V22    10.88   .     S
V4     V9    10.88   .     S
V5     V18    9.84   .     S
V5     V12    9.84   .     S
V5     V6    9.279   1_554     S
V5     V8    9.279   1_655     S
V5     V20    10.88   1_655     S
V5     V9    10.88   1_554     S
V6     V9    9.84   .     S
V6     V5    9.279   1_556     S
V6     V7    9.279   .     S
V6     V12    10.88   1_556     S
V7     V13    9.84   .     S
V7     V8    9.279   1_556     S
V7     V16    10.88   1_556     S
V8     V20    9.84   .     S
V8     V16    9.84   .     S
V8     V7    9.279   1_554     S
V8     V5    9.279   1_455     S
V8     V18    10.88   1_455     S
V8     V13    10.88   1_554     S
V9     V11    9.279   .     S
V9     V12    9.279   1_556     S
V9     V5    10.88   1_556     S
V10     V19    9.84   .     S
V10     V21    9.84   .     S
V10     V11    9.279   .     S
V10     V12    9.279   .     S
V10     V18    10.88   .     S
V10     V23    10.88   .     S
V11     V23    9.84   .     S
V11     V21    10.88   .     S
V12     V18    9.84   .     S
V12     V9    9.279   1_554     S
V12     V19    10.88   .     S
V12     V6    10.88   1_554     S
V13     V15    9.279   1_545     S
V13     V16    9.279   1_556     S
V13     V8    10.88   1_556     S
V13     V1    10.88   1_545     S
V14     V17    9.84   .     S
V14     V24    9.84   .     S
V14     V15    9.279   .     S
V14     V16    9.279   1_565     S
V14     V20    10.88   1_565     S
V14     V22    10.88   .     S
V15     V22    9.84   .     S
V15     V13    9.279   1_565     S
V15     V2    10.88   1_565     S
V15     V24    10.88   .     S
V16     V20    9.84   .     S
V16     V14    9.279   1_545     S
V16     V13    9.279   1_554     S
V16     V7    10.88   1_554     S
V16     V17    10.88   1_545     S
V17     V24    9.84   .     S
V17     V19    9.279   1_455     S
V17     V20    9.279   1_565     S
V17     V16    10.88   1_565     S
V17     V21    10.88   1_455     S
V18     V19    9.279   .     S
V18     V20    9.279   1_655     S
V18     V8    10.88   1_655     S
V19     V21    9.84   .     S
V19     V17    9.279   1_655     S
V19     V24    10.88   1_655     S
V20     V17    9.279   1_545     S
V20     V18    9.279   1_455     S
V20     V5    10.88   1_455     S
V20     V14    10.88   1_545     S
V21     V23    9.279   .     S
V21     V24    9.279   1_655     S
V21     V17    10.88   1_655     S
V22     V23    9.279   .     S
V22     V24    9.279   .     S
V24     V21    9.279   1_455     S
V24     V19    10.88   1_455     S
