data_lfm
_audit_creation_date              2020-02-04
_audit_creation_method            'Pymatgen'
_symmetry_space_group_name_H-M    'P1'
_symmetry_Int_Tables_number       1
loop_
_symmetry_equiv_pos_as_xyz
  x,y,z
_cell_length_a                    18.4274
_cell_length_b                    20.0
_cell_length_c                    42.4145
_cell_angle_alpha                 90.0
_cell_angle_beta                 90.0
_cell_angle_gamma                 90.0
loop_
_atom_site_label
_atom_site_type_symbol
_atom_site_fract_x
_atom_site_fract_y
_atom_site_fract_z
Er1     Er     0.5   0.75   0.2958
Er2     Er     0.5   0.25   0.7042
V3     V     0.5   0.5   0.5
V4     V     0.5   0.0   0.5
V5     V     0.0   0.0   0.0
V6     V     0.0   0.5   0.0
Er7     Er     0.0   0.75   0.2042
Er8     Er     0.0   0.25   0.7958
loop_
_geom_bond_atom_site_label_1
_geom_bond_atom_site_label_2
_geom_bond_distance
_geom_bond_site_symmetry_2
_ccdc_geom_bond_type
Er1     V3    10.0   .     S
Er1     V4    10.0   1_565     S
Er1     Er7    10.0   .     S
Er1     Er7    10.0   1_655     S
Er2     V3    10.0   .     S
Er2     V4    10.0   .     S
Er2     Er8    10.0   .     S
Er2     Er8    10.0   1_655     S
V3     V4    10.0   1_565     S
V3     V4    10.0   .     S
V4     Er1    10.0   1_545     S
V4     V3    10.0   1_545     S
V5     Er8    10.0   1_554     S
V5     V6    10.0   .     S
V5     Er7    10.0   1_545     S
V5     V6    10.0   1_545     S
V6     Er8    10.0   1_554     S
V6     Er7    10.0   .     S
V6     V5    10.0   1_565     S
Er7     V5    10.0   1_565     S
Er7     Er1    10.0   1_455     S
Er8     V5    10.0   1_556     S
Er8     V6    10.0   1_556     S
Er8     Er2    10.0   1_455     S
