data_lhh
_audit_creation_date              2020-02-04
_audit_creation_method            'Pymatgen'
_symmetry_space_group_name_H-M    'P1'
_symmetry_Int_Tables_number       1
loop_
_symmetry_equiv_pos_as_xyz
  x,y,z
_cell_length_a                    34.0509
_cell_length_b                    34.0509
_cell_length_c                    17.4206
_cell_angle_alpha                 90.0
_cell_angle_beta                 90.0
_cell_angle_gamma                 120.0
loop_
_atom_site_label
_atom_site_type_symbol
_atom_site_fract_x
_atom_site_fract_y
_atom_site_fract_z
Er1     Er     0.4253   0.4253   0.6667
Er2     Er     0.4253   0.0   0.5
V3     V     0.719   0.0   0.5
V4     V     0.281   0.281   0.1667
V5     V     0.0   0.281   0.3333
V6     V     0.281   0.0   0.0
V7     V     0.0   0.719   0.8333
V8     V     0.719   0.719   0.6667
Er9     Er     0.0   0.4253   0.8333
Er10     Er     0.5747   0.5747   0.1667
Er11     Er     0.5747   0.0   0.0
Er12     Er     0.0   0.5747   0.3333
loop_
_geom_bond_atom_site_label_1
_geom_bond_atom_site_label_2
_geom_bond_distance
_geom_bond_site_symmetry_2
_ccdc_geom_bond_type
Er1     V4    10.0   .     S
Er1     V4    10.0   1_556     S
Er1     V8    10.0   .     S
Er2     V6    10.0   .     S
Er2     V6    10.0   1_556     S
Er2     V3    10.0   .     S
V3     V5    10.0   1_655     S
V3     V8    10.0   1_545     S
V3     Er11    10.0   1_556     S
V3     Er11    10.0   .     S
V4     Er1    10.0   1_554     S
V4     V5    10.0   .     S
V4     V6    10.0   .     S
V4     Er10    10.0   .     S
V5     V3    10.0   1_455     S
V5     Er9    10.0   1_554     S
V5     Er9    10.0   .     S
V5     Er12    10.0   .     S
V6     Er2    10.0   1_554     S
V6     V7    10.0   1_544     S
V6     Er11    10.0   .     S
V7     V6    10.0   1_566     S
V7     V8    10.0   1_455     S
V7     Er12    10.0   1_556     S
V7     Er12    10.0   .     S
V7     Er9    10.0   .     S
V8     V3    10.0   1_565     S
V8     V7    10.0   1_655     S
V8     Er10    10.0   .     S
V8     Er10    10.0   1_556     S
Er9     V5    10.0   1_556     S
Er10     V8    10.0   1_554     S
Er11     V3    10.0   1_554     S
Er12     V7    10.0   1_554     S
