data_lil
_audit_creation_date              2020-02-04
_audit_creation_method            'Pymatgen'
_symmetry_space_group_name_H-M    'P1'
_symmetry_Int_Tables_number       1
loop_
_symmetry_equiv_pos_as_xyz
  x,y,z
_cell_length_a                    25.7692
_cell_length_b                    37.0438
_cell_length_c                    25.4059
_cell_angle_alpha                 90.0
_cell_angle_beta                 90.0
_cell_angle_gamma                 90.0
loop_
_atom_site_label
_atom_site_type_symbol
_atom_site_fract_x
_atom_site_fract_y
_atom_site_fract_z
Er1     Er     0.75   0.115   0.25
V2     V     0.0   0.0   0.0
Er3     Er     0.25   0.115   0.25
Er4     Er     0.75   0.885   0.75
V5     V     0.5   0.0   0.5
Er6     Er     0.25   0.885   0.75
Er7     Er     0.75   0.615   0.75
Er8     Er     0.75   0.385   0.25
Er9     Er     0.25   0.615   0.75
V10     V     0.0   0.5   0.0
V11     V     0.5   0.5   0.5
Er12     Er     0.25   0.385   0.25
loop_
_geom_bond_atom_site_label_1
_geom_bond_atom_site_label_2
_geom_bond_distance
_geom_bond_site_symmetry_2
_ccdc_geom_bond_type
Er1     V2    10.0   1_655     S
Er1     V5    10.0   .     S
Er1     Er8    10.0   .     S
V2     Er1    10.0   1_455     S
V2     Er6    10.0   1_544     S
V2     Er3    10.0   .     S
V2     Er4    10.0   1_444     S
Er3     V5    10.0   .     S
Er3     Er12    10.0   .     S
Er4     V2    10.0   1_666     S
Er4     V5    10.0   1_565     S
Er4     Er7    10.0   .     S
V5     Er4    10.0   1_545     S
V5     Er6    10.0   1_545     S
Er6     V2    10.0   1_566     S
Er6     V5    10.0   1_565     S
Er6     Er9    10.0   .     S
Er7     V11    10.0   .     S
Er7     V10    10.0   1_656     S
Er8     V10    10.0   1_655     S
Er8     V11    10.0   .     S
Er9     V11    10.0   .     S
Er9     V10    10.0   1_556     S
V10     Er7    10.0   1_454     S
V10     Er8    10.0   1_455     S
V10     Er12    10.0   .     S
V10     Er9    10.0   1_554     S
V11     Er12    10.0   .     S
