data_llka
_audit_creation_date              2020-02-04
_audit_creation_method            'Pymatgen'
_symmetry_space_group_name_H-M    'P1'
_symmetry_Int_Tables_number       1
loop_
_symmetry_equiv_pos_as_xyz
  x,y,z
_cell_length_a                    73.226
_cell_length_b                    73.226
_cell_length_c                    73.226
_cell_angle_alpha                 90.0
_cell_angle_beta                 90.0
_cell_angle_gamma                 90.0
loop_
_atom_site_label
_atom_site_type_symbol
_atom_site_fract_x
_atom_site_fract_y
_atom_site_fract_z
Er1     Er     0.3373   0.3373   0.0
Ti2     Ti     0.302   0.2054   0.0
Ti3     Ti     0.2054   0.302   0.0
Er4     Er     0.3373   0.0   0.3373
Ti5     Ti     0.302   0.0   0.2054
Ti6     Ti     0.2054   0.0   0.302
Er7     Er     0.0   0.3373   0.3373
Ti8     Ti     0.0   0.302   0.2054
Ti9     Ti     0.0   0.2054   0.302
Er10     Er     0.6627   0.3373   0.0
Ti11     Ti     0.698   0.2054   0.0
Ti12     Ti     0.7946   0.302   0.0
Er13     Er     0.3373   0.6627   0.0
Ti14     Ti     0.2054   0.698   0.0
Ti15     Ti     0.302   0.7946   0.0
Er16     Er     0.0   0.6627   0.3373
Ti17     Ti     0.0   0.698   0.2054
Ti18     Ti     0.0   0.7946   0.302
Er19     Er     0.6627   0.0   0.3373
Ti20     Ti     0.698   0.0   0.2054
Ti21     Ti     0.7946   0.0   0.302
Er22     Er     0.0   0.3373   0.6627
Ti23     Ti     0.0   0.2054   0.698
Ti24     Ti     0.0   0.302   0.7946
Er25     Er     0.3373   0.0   0.6627
Ti26     Ti     0.2054   0.0   0.698
Ti27     Ti     0.302   0.0   0.7946
Er28     Er     0.6627   0.6627   0.0
Ti29     Ti     0.7946   0.698   0.0
Ti30     Ti     0.698   0.7946   0.0
V31     V     0.6156   0.0   0.9034
V32     V     0.6156   0.0966   0.0
V33     V     0.6156   0.9034   0.0
V34     V     0.6156   0.0   0.0966
Ce35     Ce     0.5   0.0661   0.9339
Ce36     Ce     0.5   0.9339   0.9339
Ce37     Ce     0.5   0.9339   0.0661
Ce38     Ce     0.5   0.0661   0.0661
V39     V     0.3844   0.0   0.9034
V40     V     0.3844   0.9034   0.0
V41     V     0.3844   0.0966   0.0
V42     V     0.3844   0.0   0.0966
Er43     Er     0.6627   0.0   0.6627
Ti44     Ti     0.698   0.0   0.7946
Ti45     Ti     0.7946   0.0   0.698
V46     V     0.0   0.6156   0.9034
V47     V     0.9034   0.6156   0.0
V48     V     0.0966   0.6156   0.0
V49     V     0.0   0.6156   0.0966
Ce50     Ce     0.9339   0.5   0.9339
Ce51     Ce     0.9339   0.5   0.0661
Ce52     Ce     0.0661   0.5   0.9339
Ce53     Ce     0.0661   0.5   0.0661
V54     V     0.0   0.3844   0.9034
V55     V     0.0966   0.3844   0.0
V56     V     0.0   0.3844   0.0966
V57     V     0.9034   0.3844   0.0
Er58     Er     0.0   0.6627   0.6627
Ti59     Ti     0.0   0.698   0.7946
Ti60     Ti     0.0   0.7946   0.698
V61     V     0.0   0.9034   0.6156
V62     V     0.0966   0.0   0.6156
V63     V     0.0   0.0966   0.6156
V64     V     0.9034   0.0   0.6156
Ce65     Ce     0.9339   0.9339   0.5
Ce66     Ce     0.0661   0.9339   0.5
Ce67     Ce     0.9339   0.0661   0.5
Ce68     Ce     0.0661   0.0661   0.5
V69     V     0.0   0.0966   0.3844
V70     V     0.0966   0.0   0.3844
V71     V     0.9034   0.0   0.3844
V72     V     0.0   0.9034   0.3844
Er73     Er     0.1627   0.1627   0.5
Ti74     Ti     0.2946   0.198   0.5
Ti75     Ti     0.198   0.2946   0.5
Er76     Er     0.1627   0.5   0.1627
Ti77     Ti     0.198   0.5   0.2946
Ti78     Ti     0.2946   0.5   0.198
Er79     Er     0.5   0.1627   0.1627
Ti80     Ti     0.5   0.198   0.2946
Ti81     Ti     0.5   0.2946   0.198
Er82     Er     0.1627   0.8373   0.5
Ti83     Ti     0.2946   0.802   0.5
Ti84     Ti     0.198   0.7054   0.5
Er85     Er     0.8373   0.1627   0.5
Ti86     Ti     0.802   0.2946   0.5
Ti87     Ti     0.7054   0.198   0.5
Er88     Er     0.8373   0.8373   0.5
Ti89     Ti     0.802   0.7054   0.5
Ti90     Ti     0.7054   0.802   0.5
Er91     Er     0.5   0.1627   0.8373
Ti92     Ti     0.5   0.2946   0.802
Ti93     Ti     0.5   0.198   0.7054
Er94     Er     0.1627   0.5   0.8373
Ti95     Ti     0.2946   0.5   0.802
Ti96     Ti     0.198   0.5   0.7054
Er97     Er     0.5   0.8373   0.1627
Ti98     Ti     0.5   0.802   0.2946
Ti99     Ti     0.5   0.7054   0.198
Er100     Er     0.8373   0.5   0.1627
Ti101     Ti     0.802   0.5   0.2946
Ti102     Ti     0.7054   0.5   0.198
V103     V     0.1156   0.5   0.4034
V104     V     0.1156   0.4034   0.5
V105     V     0.1156   0.5   0.5966
V106     V     0.1156   0.5966   0.5
Ce107     Ce     0.0   0.4339   0.5661
Ce108     Ce     0.0   0.5661   0.5661
Ce109     Ce     0.0   0.5661   0.4339
Ce110     Ce     0.0   0.4339   0.4339
V111     V     0.8844   0.5   0.4034
V112     V     0.8844   0.4034   0.5
V113     V     0.8844   0.5   0.5966
V114     V     0.8844   0.5966   0.5
Er115     Er     0.8373   0.5   0.8373
Ti116     Ti     0.802   0.5   0.7054
Ti117     Ti     0.7054   0.5   0.802
V118     V     0.5   0.1156   0.4034
V119     V     0.4034   0.1156   0.5
V120     V     0.5   0.1156   0.5966
V121     V     0.5966   0.1156   0.5
Ce122     Ce     0.5661   0.0   0.4339
Ce123     Ce     0.5661   0.0   0.5661
Ce124     Ce     0.4339   0.0   0.5661
Ce125     Ce     0.4339   0.0   0.4339
V126     V     0.4034   0.8844   0.5
V127     V     0.5   0.8844   0.4034
V128     V     0.5   0.8844   0.5966
V129     V     0.5966   0.8844   0.5
Er130     Er     0.5   0.8373   0.8373
Ti131     Ti     0.5   0.802   0.7054
Ti132     Ti     0.5   0.7054   0.802
V133     V     0.5   0.4034   0.1156
V134     V     0.4034   0.5   0.1156
V135     V     0.5966   0.5   0.1156
V136     V     0.5   0.5966   0.1156
Ce137     Ce     0.4339   0.5661   0.0
Ce138     Ce     0.5661   0.5661   0.0
Ce139     Ce     0.5661   0.4339   0.0
Ce140     Ce     0.4339   0.4339   0.0
V141     V     0.4034   0.5   0.8844
V142     V     0.5   0.4034   0.8844
V143     V     0.5   0.5966   0.8844
V144     V     0.5966   0.5   0.8844
loop_
_geom_bond_atom_site_label_1
_geom_bond_atom_site_label_2
_geom_bond_distance
_geom_bond_site_symmetry_2
_ccdc_geom_bond_type
Er1     Ti3    10.0   .     S
Er1     Ti2    10.0   .     S
Er1     Ce140    10.001   .     S
Ti2     V41    10.0   .     S
Ti2     Ti3    10.001   .     S
Ti3     V55    10.0   .     S
Er4     Ti6    10.0   .     S
Er4     Ti5    10.0   .     S
Er4     Ce125    10.001   .     S
Ti5     V42    10.0   .     S
Ti5     Ti6    10.001   .     S
Ti6     V70    10.0   .     S
Er7     Ti9    10.0   .     S
Er7     Ti8    10.0   .     S
Er7     Ce110    10.001   .     S
Ti8     V56    10.0   .     S
Ti8     Ti9    10.001   .     S
Ti9     V69    10.0   .     S
Er10     Ti11    10.0   .     S
Er10     Ti12    10.0   .     S
Er10     Ce139    10.001   .     S
Ti11     V32    10.0   .     S
Ti11     Ti12    10.001   .     S
Ti12     V57    10.0   .     S
Er13     Ti14    10.0   .     S
Er13     Ti15    10.0   .     S
Er13     Ce137    10.001   .     S
Ti14     V48    10.0   .     S
Ti14     Ti15    10.001   .     S
Ti15     V40    10.0   .     S
Er16     Ti17    10.0   .     S
Er16     Ti18    10.0   .     S
Er16     Ce109    10.001   .     S
Ti17     V49    10.0   .     S
Ti17     Ti18    10.001   .     S
Ti18     V72    10.0   .     S
Er19     Ti20    10.0   .     S
Er19     Ti21    10.0   .     S
Er19     Ce122    10.001   .     S
Ti20     V34    10.0   .     S
Ti20     Ti21    10.001   .     S
Ti21     V71    10.0   .     S
Er22     Ti23    10.0   .     S
Er22     Ti24    10.0   .     S
Er22     Ce107    10.001   .     S
Ti23     V63    10.0   .     S
Ti23     Ti24    10.001   .     S
Ti24     V54    10.0   .     S
Er25     Ti26    10.0   .     S
Er25     Ti27    10.0   .     S
Er25     Ce124    10.001   .     S
Ti26     V62    10.0   .     S
Ti26     Ti27    10.001   .     S
Ti27     V39    10.0   .     S
Er28     Ti30    10.0   .     S
Er28     Ti29    10.0   .     S
Er28     Ce138    10.001   .     S
Ti29     V47    10.0   .     S
Ti29     Ti30    10.001   .     S
Ti30     V33    10.0   .     S
V31     V32    9.999   1_556     S
V31     V33    9.999   1_546     S
V31     Ce35    10.0   .     S
V31     Ce36    10.0   1_545     S
V31     Ti44    10.0   .     S
V32     V31    9.999   1_554     S
V32     V34    9.999   .     S
V32     Ce38    10.0   .     S
V32     Ce35    10.0   1_554     S
V33     V31    9.999   1_564     S
V33     V34    9.999   1_565     S
V33     Ce36    10.0   1_554     S
V33     Ce37    10.0   .     S
V34     V33    9.999   1_545     S
V34     Ce37    10.0   1_545     S
V34     Ce38    10.0   .     S
Ce35     V32    10.0   1_556     S
Ce35     V41    10.0   1_556     S
Ce35     V39    10.0   .     S
Ce35     Er91    10.001   .     S
Ce36     V31    10.0   1_565     S
Ce36     V33    10.0   1_556     S
Ce36     V39    10.0   1_565     S
Ce36     V40    10.0   1_556     S
Ce36     Er130    10.001   .     S
Ce37     V40    10.0   .     S
Ce37     V42    10.0   1_565     S
Ce37     V34    10.0   1_565     S
Ce37     Er97    10.001   .     S
Ce38     V41    10.0   .     S
Ce38     V42    10.0   .     S
Ce38     Er79    10.001   .     S
V39     Ce36    10.0   1_545     S
V39     V40    9.999   1_546     S
V39     V41    9.999   1_556     S
V40     Ce36    10.0   1_554     S
V40     V39    9.999   1_564     S
V40     V42    9.999   1_565     S
V41     Ce35    10.0   1_554     S
V41     V39    9.999   1_554     S
V41     V42    9.999   .     S
V42     Ce37    10.0   1_545     S
V42     V40    9.999   1_545     S
Er43     Ti45    10.0   .     S
Er43     Ti44    10.0   .     S
Er43     Ce123    10.001   .     S
Ti44     Ti45    10.001   .     S
Ti45     V64    10.0   .     S
V46     V47    9.999   1_456     S
V46     V48    9.999   1_556     S
V46     Ce50    10.0   1_455     S
V46     Ce52    10.0   .     S
V46     Ti59    10.0   .     S
V47     V46    9.999   1_654     S
V47     V49    9.999   1_655     S
V47     Ce51    10.0   .     S
V47     Ce50    10.0   1_554     S
V48     V46    9.999   1_554     S
V48     V49    9.999   .     S
V48     Ce52    10.0   1_554     S
V48     Ce53    10.0   .     S
V49     V47    9.999   1_455     S
V49     Ce53    10.0   .     S
V49     Ce51    10.0   1_455     S
Ce50     V47    10.0   1_556     S
Ce50     V57    10.0   1_556     S
Ce50     V46    10.0   1_655     S
Ce50     V54    10.0   1_655     S
Ce50     Er115    10.001   .     S
Ce51     V57    10.0   .     S
Ce51     V56    10.0   1_655     S
Ce51     V49    10.0   1_655     S
Ce51     Er100    10.001   .     S
Ce52     V54    10.0   .     S
Ce52     V55    10.0   1_556     S
Ce52     V48    10.0   1_556     S
Ce52     Er94    10.001   .     S
Ce53     V56    10.0   .     S
Ce53     V55    10.0   .     S
Ce53     Er76    10.001   .     S
V54     Ce50    10.0   1_455     S
V54     V55    9.999   1_556     S
V54     V57    9.999   1_456     S
V55     Ce52    10.0   1_554     S
V55     V54    9.999   1_554     S
V55     V56    9.999   .     S
V56     Ce51    10.0   1_455     S
V56     V57    9.999   1_455     S
V57     Ce50    10.0   1_554     S
V57     V56    9.999   1_655     S
V57     V54    9.999   1_654     S
Er58     Ti60    10.0   .     S
Er58     Ti59    10.0   .     S
Er58     Ce108    10.001   .     S
Ti59     Ti60    10.001   .     S
Ti60     V61    10.0   .     S
V61     V62    9.999   1_565     S
V61     V64    9.999   1_465     S
V61     Ce66    10.0   .     S
V61     Ce65    10.0   1_455     S
V62     V61    9.999   1_545     S
V62     V63    9.999   .     S
V62     Ce68    10.0   .     S
V62     Ce66    10.0   1_545     S
V63     V64    9.999   1_455     S
V63     Ce67    10.0   1_455     S
V63     Ce68    10.0   .     S
V64     V63    9.999   1_655     S
V64     V61    9.999   1_645     S
V64     Ce65    10.0   1_545     S
V64     Ce67    10.0   .     S
Ce65     V61    10.0   1_655     S
Ce65     V64    10.0   1_565     S
Ce65     V72    10.0   1_655     S
Ce65     V71    10.0   1_565     S
Ce65     Er88    10.001   .     S
Ce66     V72    10.0   .     S
Ce66     V70    10.0   1_565     S
Ce66     V62    10.0   1_565     S
Ce66     Er82    10.001   .     S
Ce67     V71    10.0   .     S
Ce67     V69    10.0   1_655     S
Ce67     V63    10.0   1_655     S
Ce67     Er85    10.001   .     S
Ce68     V70    10.0   .     S
Ce68     V69    10.0   .     S
Ce68     Er73    10.001   .     S
V69     Ce67    10.0   1_455     S
V69     V70    9.999   .     S
V69     V71    9.999   1_455     S
V70     Ce66    10.0   1_545     S
V70     V72    9.999   1_545     S
V71     Ce65    10.0   1_545     S
V71     V69    9.999   1_655     S
V71     V72    9.999   1_645     S
V72     Ce65    10.0   1_455     S
V72     V71    9.999   1_465     S
V72     V70    9.999   1_565     S
Er73     Ti75    10.0   .     S
Er73     Ti74    10.0   .     S
Ti74     V119    10.0   .     S
Ti74     Ti75    10.001   .     S
Ti75     V104    10.0   .     S
Er76     Ti78    10.0   .     S
Er76     Ti77    10.0   .     S
Ti77     V103    10.0   .     S
Ti77     Ti78    10.001   .     S
Ti78     V134    10.0   .     S
Er79     Ti81    10.0   .     S
Er79     Ti80    10.0   .     S
Ti80     V118    10.0   .     S
Ti80     Ti81    10.001   .     S
Ti81     V133    10.0   .     S
Er82     Ti84    10.0   .     S
Er82     Ti83    10.0   .     S
Ti83     V126    10.0   .     S
Ti83     Ti84    10.001   .     S
Ti84     V106    10.0   .     S
Er85     Ti87    10.0   .     S
Er85     Ti86    10.0   .     S
Ti86     V112    10.0   .     S
Ti86     Ti87    10.001   .     S
Ti87     V121    10.0   .     S
Er88     Ti90    10.0   .     S
Er88     Ti89    10.0   .     S
Ti89     V114    10.0   .     S
Ti89     Ti90    10.001   .     S
Ti90     V129    10.0   .     S
Er91     Ti93    10.0   .     S
Er91     Ti92    10.0   .     S
Ti92     V142    10.0   .     S
Ti92     Ti93    10.001   .     S
Ti93     V120    10.0   .     S
Er94     Ti96    10.0   .     S
Er94     Ti95    10.0   .     S
Ti95     V141    10.0   .     S
Ti95     Ti96    10.001   .     S
Ti96     V105    10.0   .     S
Er97     Ti99    10.0   .     S
Er97     Ti98    10.0   .     S
Ti98     V127    10.0   .     S
Ti98     Ti99    10.001   .     S
Ti99     V136    10.0   .     S
Er100     Ti102    10.0   .     S
Er100     Ti101    10.0   .     S
Ti101     V111    10.0   .     S
Ti101     Ti102    10.001   .     S
Ti102     V135    10.0   .     S
V103     V106    9.999   .     S
V103     V104    9.999   .     S
V103     Ce109    10.0   .     S
V103     Ce110    10.0   .     S
V104     V105    9.999   .     S
V104     Ce110    10.0   .     S
V104     Ce107    10.0   .     S
V105     V106    9.999   .     S
V105     Ce107    10.0   .     S
V105     Ce108    10.0   .     S
V106     Ce108    10.0   .     S
V106     Ce109    10.0   .     S
Ce107     V112    10.0   1_455     S
Ce107     V113    10.0   1_455     S
Ce108     V114    10.0   1_455     S
Ce108     V113    10.0   1_455     S
Ce109     V111    10.0   1_455     S
Ce109     V114    10.0   1_455     S
Ce110     V112    10.0   1_455     S
Ce110     V111    10.0   1_455     S
V111     Ce110    10.0   1_655     S
V111     Ce109    10.0   1_655     S
V111     V114    9.999   .     S
V111     V112    9.999   .     S
V112     Ce107    10.0   1_655     S
V112     Ce110    10.0   1_655     S
V112     V113    9.999   .     S
V113     Ce108    10.0   1_655     S
V113     Ce107    10.0   1_655     S
V113     V114    9.999   .     S
V113     Ti116    10.0   .     S
V114     Ce109    10.0   1_655     S
V114     Ce108    10.0   1_655     S
Er115     Ti117    10.0   .     S
Er115     Ti116    10.0   .     S
Ti116     Ti117    10.001   .     S
Ti117     V144    10.0   .     S
V118     V119    9.999   .     S
V118     V121    9.999   .     S
V118     Ce125    10.0   .     S
V118     Ce122    10.0   .     S
V119     V120    9.999   .     S
V119     Ce124    10.0   .     S
V119     Ce125    10.0   .     S
V120     V121    9.999   .     S
V120     Ce123    10.0   .     S
V120     Ce124    10.0   .     S
V121     Ce122    10.0   .     S
V121     Ce123    10.0   .     S
Ce122     V127    10.0   1_545     S
Ce122     V129    10.0   1_545     S
Ce123     V129    10.0   1_545     S
Ce123     V128    10.0   1_545     S
Ce124     V126    10.0   1_545     S
Ce124     V128    10.0   1_545     S
Ce125     V126    10.0   1_545     S
Ce125     V127    10.0   1_545     S
V126     Ce125    10.0   1_565     S
V126     Ce124    10.0   1_565     S
V126     V128    9.999   .     S
V126     V127    9.999   .     S
V127     Ce122    10.0   1_565     S
V127     Ce125    10.0   1_565     S
V127     V129    9.999   .     S
V128     Ce124    10.0   1_565     S
V128     Ce123    10.0   1_565     S
V128     V129    9.999   .     S
V128     Ti131    10.0   .     S
V129     Ce123    10.0   1_565     S
V129     Ce122    10.0   1_565     S
Er130     Ti132    10.0   .     S
Er130     Ti131    10.0   .     S
Ti131     Ti132    10.001   .     S
Ti132     V143    10.0   .     S
V133     V135    9.999   .     S
V133     V134    9.999   .     S
V133     Ce139    10.0   .     S
V133     Ce140    10.0   .     S
V134     V136    9.999   .     S
V134     Ce140    10.0   .     S
V134     Ce137    10.0   .     S
V135     V136    9.999   .     S
V135     Ce138    10.0   .     S
V135     Ce139    10.0   .     S
V136     Ce137    10.0   .     S
V136     Ce138    10.0   .     S
Ce137     V141    10.0   1_554     S
Ce137     V143    10.0   1_554     S
Ce138     V144    10.0   1_554     S
Ce138     V143    10.0   1_554     S
Ce139     V142    10.0   1_554     S
Ce139     V144    10.0   1_554     S
Ce140     V142    10.0   1_554     S
Ce140     V141    10.0   1_554     S
V141     Ce137    10.0   1_556     S
V141     Ce140    10.0   1_556     S
V141     V143    9.999   .     S
V141     V142    9.999   .     S
V142     Ce140    10.0   1_556     S
V142     Ce139    10.0   1_556     S
V142     V144    9.999   .     S
V143     Ce138    10.0   1_556     S
V143     Ce137    10.0   1_556     S
V143     V144    9.999   .     S
V144     Ce139    10.0   1_556     S
V144     Ce138    10.0   1_556     S
