data_llza
_audit_creation_date              2020-02-04
_audit_creation_method            'Pymatgen'
_symmetry_space_group_name_H-M    'P1'
_symmetry_Int_Tables_number       1
loop_
_symmetry_equiv_pos_as_xyz
  x,y,z
_cell_length_a                    50.8677
_cell_length_b                    50.8677
_cell_length_c                    84.058
_cell_angle_alpha                 90.0
_cell_angle_beta                 90.0
_cell_angle_gamma                 90.0
loop_
_atom_site_label
_atom_site_type_symbol
_atom_site_fract_x
_atom_site_fract_y
_atom_site_fract_z
Be1     Be     0.2111   0.7889   0.147
Be2     Be     0.7889   0.2111   0.853
Be3     Be     0.2111   0.7889   0.853
V4     V     0.0694   0.0694   0.0972
V5     V     0.9306   0.9306   0.0972
Li6     Li     0.57   0.43   0.2109
Li7     Li     0.43   0.57   0.2109
Li8     Li     0.43   0.57   0.7891
He9     He     0.6527   0.3473   0.3063
He10     He     0.6527   0.3473   0.6937
He11     He     0.3473   0.6527   0.3063
He12     He     0.3473   0.6527   0.6937
Ce13     Ce     0.3186   0.8198   0.7546
S14     S     0.263   0.5992   0.8496
S15     S     0.4008   0.737   0.8496
Ce16     Ce     0.1802   0.6814   0.7546
H17     H     0.4988   0.741   0.7472
H18     H     0.259   0.5012   0.7472
B19     B     0.2573   0.4741   0.9407
B20     B     0.5259   0.7427   0.9407
Ce21     Ce     0.8198   0.3186   0.7546
S22     S     0.737   0.4008   0.8496
S23     S     0.5992   0.263   0.8496
Ce24     Ce     0.6814   0.1802   0.7546
H25     H     0.5012   0.259   0.7472
H26     H     0.741   0.4988   0.7472
B27     B     0.7427   0.5259   0.9407
B28     B     0.4741   0.2573   0.9407
Ce29     Ce     0.8198   0.3186   0.2453
S30     S     0.5992   0.263   0.1504
S31     S     0.737   0.4008   0.1504
Ce32     Ce     0.6814   0.1802   0.2454
H33     H     0.5012   0.259   0.2528
H34     H     0.741   0.4988   0.2528
B35     B     0.4741   0.2573   0.0593
B36     B     0.7427   0.5259   0.0593
H37     H     0.4988   0.741   0.2528
Ce38     Ce     0.3186   0.8198   0.2454
S39     S     0.4008   0.737   0.1504
S40     S     0.263   0.5992   0.1504
Ce41     Ce     0.1802   0.6814   0.2453
H42     H     0.259   0.5012   0.2528
B43     B     0.5259   0.7427   0.0593
B44     B     0.2573   0.4741   0.0593
C45     C     0.3341   0.1615   0.0
C46     C     0.1615   0.3341   0.0
C47     C     0.6659   0.8385   0.0
Ti48     Ti     0.1794   0.0415   0.0
Ti49     Ti     0.0415   0.1794   0.0
Ti50     Ti     0.9585   0.8206   0.0
Ti51     Ti     0.8206   0.9585   0.0
Er52     Er     0.1132   0.8868   0.9396
Er53     Er     0.8868   0.1132   0.9396
Er54     Er     0.8868   0.1132   0.0604
Er55     Er     0.1132   0.8868   0.0604
C56     C     0.8385   0.6659   0.0
Li57     Li     0.57   0.43   0.7891
V58     V     0.0694   0.0694   0.9028
V59     V     0.9306   0.9306   0.9028
Be60     Be     0.7889   0.2111   0.147
Be61     Be     0.7111   0.7111   0.647
Be62     Be     0.7111   0.7111   0.353
Be63     Be     0.2889   0.2889   0.353
V64     V     0.4306   0.5694   0.4028
V65     V     0.5694   0.4306   0.4028
Li66     Li     0.07   0.07   0.2891
Li67     Li     0.93   0.93   0.7109
Li68     Li     0.93   0.93   0.2891
He69     He     0.8473   0.8473   0.1937
He70     He     0.8473   0.8473   0.8063
He71     He     0.1527   0.1527   0.1937
Ce72     Ce     0.6802   0.8186   0.2546
S73     S     0.763   0.9008   0.3496
S74     S     0.9008   0.763   0.3496
Ce75     Ce     0.8186   0.6802   0.2546
H76     H     0.9988   0.759   0.2472
H77     H     0.759   0.9988   0.2472
B78     B     0.7573   0.0259   0.4407
B79     B     0.0259   0.7573   0.4407
H80     H     0.9988   0.759   0.7528
Ce81     Ce     0.8186   0.6802   0.7454
S82     S     0.9008   0.763   0.6504
S83     S     0.763   0.9008   0.6504
Ce84     Ce     0.6802   0.8186   0.7454
H85     H     0.759   0.9988   0.7528
B86     B     0.0259   0.7573   0.5593
B87     B     0.7573   0.0259   0.5593
H88     H     0.0012   0.241   0.7528
Ce89     Ce     0.1814   0.3198   0.7454
S90     S     0.237   0.0992   0.6504
S91     S     0.0992   0.237   0.6504
Ce92     Ce     0.3198   0.1814   0.7454
H93     H     0.241   0.0012   0.7528
B94     B     0.2427   0.9741   0.5593
B95     B     0.9741   0.2427   0.5593
H96     H     0.241   0.0012   0.2472
Ce97     Ce     0.3198   0.1814   0.2546
S98     S     0.0992   0.237   0.3496
S99     S     0.237   0.0992   0.3496
Ce100     Ce     0.1814   0.3198   0.2546
H101     H     0.0012   0.241   0.2472
B102     B     0.2427   0.9741   0.4407
B103     B     0.9741   0.2427   0.4407
C104     C     0.3385   0.8341   0.5
C105     C     0.8341   0.3385   0.5
C106     C     0.6615   0.1659   0.5
Ti107     Ti     0.3206   0.5415   0.5
Ti108     Ti     0.4585   0.6794   0.5
Ti109     Ti     0.6794   0.4585   0.5
Ti110     Ti     0.5415   0.3206   0.5
Er111     Er     0.3868   0.3868   0.4396
Er112     Er     0.3868   0.3868   0.5604
Er113     Er     0.6132   0.6132   0.4396
Er114     Er     0.6132   0.6132   0.5604
C115     C     0.1659   0.6615   0.5
He116     He     0.1527   0.1527   0.8063
Li117     Li     0.07   0.07   0.7109
V118     V     0.5694   0.4306   0.5972
V119     V     0.4306   0.5694   0.5972
Be120     Be     0.2889   0.2889   0.647
loop_
_geom_bond_atom_site_label_1
_geom_bond_atom_site_label_2
_geom_bond_distance
_geom_bond_site_symmetry_2
_ccdc_geom_bond_type
Be1     S39    10.009   .     S
Be1     S40    10.009   .     S
Be1     Ce41    10.035   .     S
Be1     Ce38    10.035   .     S
Be1     Er55    10.128   .     S
Be2     S22    10.009   .     S
Be2     S23    10.009   .     S
Be2     Ce21    10.035   .     S
Be2     Ce24    10.035   .     S
Be2     Er53    10.128   .     S
Be3     S14    10.009   .     S
Be3     S15    10.009   .     S
Be3     Ce13    10.035   .     S
Be3     Ce16    10.035   .     S
Be3     Er52    10.128   .     S
V4     Er55    10.04   1_545     S
V4     Er54    10.04   1_455     S
V4     Ti49    10.001   .     S
V4     Ti48    10.001   .     S
V4     V5    9.985   1_445     S
V4     He71    10.086   .     S
V5     Er54    10.04   1_565     S
V5     Er55    10.04   1_655     S
V5     Ti50    10.001   .     S
V5     Ti51    10.001   .     S
V5     V4    9.985   1_665     S
V5     He69    10.086   .     S
Li6     S30    10.012   .     S
Li6     S31    10.012   .     S
Li6     H33    10.015   .     S
Li6     H34    10.015   .     S
Li6     He9    9.991   .     S
Li6     Li7    10.07   .     S
Li7     S39    10.012   .     S
Li7     S40    10.012   .     S
Li7     H37    10.015   .     S
Li7     H42    10.015   .     S
Li7     He11    9.991   .     S
Li8     S14    10.012   .     S
Li8     S15    10.012   .     S
Li8     H17    10.015   .     S
Li8     H18    10.015   .     S
Li8     He12    9.991   .     S
Li8     Li57    10.07   .     S
He9     Ce32    10.032   .     S
He9     Ce29    10.032   .     S
He9     H34    9.986   .     S
He9     H33    9.986   .     S
He9     V65    10.086   .     S
He10     Ce21    10.032   .     S
He10     Ce24    10.032   .     S
He10     H26    9.986   .     S
He10     H25    9.986   .     S
He10     Li57    9.991   .     S
He10     V118    10.086   .     S
He11     Ce38    10.032   .     S
He11     Ce41    10.032   .     S
He11     H42    9.986   .     S
He11     H37    9.986   .     S
He11     V64    10.086   .     S
He12     Ce16    10.032   .     S
He12     Ce13    10.032   .     S
He12     H18    9.986   .     S
He12     H17    9.986   .     S
He12     V119    10.086   .     S
Ce13     H17    10.024   .     S
Ce13     H93    10.041   1_565     S
Ce13     S15    9.946   .     S
Ce13     Ce16    9.953   .     S
S14     S15    9.914   .     S
S14     Ce16    9.946   .     S
S14     H18    9.951   .     S
S14     B19    9.962   .     S
S15     H17    9.951   .     S
S15     B20    9.962   .     S
Ce16     H18    10.024   .     S
Ce16     H80    10.041   1_455     S
H17     Ce84    10.041   .     S
H18     Ce89    10.041   .     S
B19     C46    9.963   1_556     S
B19     B44    9.966   1_556     S
B20     C47    9.963   1_556     S
B20     B43    9.966   1_556     S
Ce21     H26    10.024   .     S
Ce21     H88    10.041   1_655     S
Ce21     S22    9.946   .     S
Ce21     Ce24    9.953   .     S
S22     Li57    10.012   .     S
S22     S23    9.914   .     S
S22     H26    9.951   .     S
S22     B27    9.962   .     S
S23     Li57    10.012   .     S
S23     Ce24    9.946   .     S
S23     H25    9.951   .     S
S23     B28    9.962   .     S
Ce24     H25    10.024   .     S
Ce24     H85    10.041   1_545     S
H25     Li57    10.015   .     S
H25     Ce92    10.041   .     S
H26     Li57    10.015   .     S
H26     Ce81    10.041   .     S
B27     C56    9.963   1_556     S
B27     B36    9.966   1_556     S
B28     C45    9.963   1_556     S
B28     B35    9.966   1_556     S
Ce29     H34    10.024   .     S
Ce29     Be60    10.035   .     S
Ce29     H101    10.041   1_655     S
Ce29     S31    9.946   .     S
Ce29     Ce32    9.953   .     S
S30     Be60    10.009   .     S
S30     S31    9.914   .     S
S30     Ce32    9.946   .     S
S30     H33    9.951   .     S
S30     B35    9.962   .     S
S31     Be60    10.009   .     S
S31     H34    9.951   .     S
S31     B36    9.962   .     S
Ce32     H33    10.024   .     S
Ce32     Be60    10.035   .     S
Ce32     H77    10.041   1_545     S
H33     Ce97    10.041   .     S
H34     Ce75    10.041   .     S
B35     C45    9.963   .     S
B35     B28    9.966   1_554     S
B36     C56    9.963   .     S
B36     B27    9.966   1_554     S
H37     Ce38    10.024   .     S
H37     Ce72    10.041   .     S
H37     S39    9.951   .     S
Ce38     H96    10.041   1_565     S
Ce38     S39    9.946   .     S
Ce38     Ce41    9.953   .     S
S39     S40    9.914   .     S
S39     B43    9.962   .     S
S40     Ce41    9.946   .     S
S40     H42    9.951   .     S
S40     B44    9.962   .     S
Ce41     H42    10.024   .     S
Ce41     H76    10.041   1_455     S
H42     Ce100    10.041   .     S
B43     C47    9.963   .     S
B43     B20    9.966   1_554     S
B44     C46    9.963   .     S
B44     B19    9.966   1_554     S
C45     Ti48    9.959   .     S
C45     B28    9.963   1_554     S
C46     Ti49    9.959   .     S
C46     B19    9.963   1_554     S
C47     Ti51    9.959   .     S
C47     B20    9.963   1_554     S
Ti48     Ti49    9.921   .     S
Ti48     Er55    9.952   1_545     S
Ti48     Er52    9.952   1_544     S
Ti48     V58    10.001   1_554     S
Ti49     Er54    9.952   1_455     S
Ti49     Er53    9.952   1_454     S
Ti49     V58    10.001   1_554     S
Ti50     Ti51    9.921   .     S
Ti50     Er55    9.952   1_655     S
Ti50     Er52    9.952   1_654     S
Ti50     C56    9.959   .     S
Ti50     V59    10.001   1_554     S
Ti51     Er54    9.952   1_565     S
Ti51     Er53    9.952   1_564     S
Ti51     V59    10.001   1_554     S
Er52     V59    10.04   1_455     S
Er52     V58    10.04   1_565     S
Er52     Er55    10.154   1_556     S
Er52     Ti48    9.952   1_566     S
Er52     Ti50    9.952   1_456     S
Er53     V59    10.04   1_545     S
Er53     V58    10.04   1_655     S
Er53     Er54    10.154   1_556     S
Er53     Ti49    9.952   1_656     S
Er53     Ti51    9.952   1_546     S
Er54     V5    10.04   1_545     S
Er54     V4    10.04   1_655     S
Er54     Er53    10.154   1_554     S
Er54     Ti49    9.952   1_655     S
Er54     Ti51    9.952   1_545     S
Er54     Be60    10.128   .     S
Er55     V5    10.04   1_455     S
Er55     V4    10.04   1_565     S
Er55     Er52    10.154   1_554     S
Er55     Ti48    9.952   1_565     S
Er55     Ti50    9.952   1_455     S
C56     B27    9.963   1_554     S
V58     Er53    10.04   1_455     S
V58     Er52    10.04   1_545     S
V58     Ti48    10.001   1_556     S
V58     Ti49    10.001   1_556     S
V58     V59    9.985   1_445     S
V58     He116    10.086   .     S
V59     Er52    10.04   1_655     S
V59     Er53    10.04   1_565     S
V59     Ti51    10.001   1_556     S
V59     Ti50    10.001   1_556     S
V59     V58    9.985   1_665     S
V59     He70    10.086   .     S
Be61     S83    10.009   .     S
Be61     S82    10.009   .     S
Be61     Ce84    10.035   .     S
Be61     Ce81    10.035   .     S
Be61     Er114    10.128   .     S
Be62     S74    10.009   .     S
Be62     S73    10.009   .     S
Be62     Ce75    10.035   .     S
Be62     Ce72    10.035   .     S
Be62     Er113    10.128   .     S
Be63     S98    10.009   .     S
Be63     S99    10.009   .     S
Be63     Ce100    10.035   .     S
Be63     Ce97    10.035   .     S
Be63     Er111    10.128   .     S
V64     Er113    10.04   .     S
V64     Er111    10.04   .     S
V64     Ti108    10.001   .     S
V64     Ti107    10.001   .     S
V64     V65    9.985   .     S
V65     Er111    10.04   .     S
V65     Er113    10.04   .     S
V65     Ti110    10.001   .     S
V65     Ti109    10.001   .     S
Li66     S98    10.012   .     S
Li66     S99    10.012   .     S
Li66     H101    10.015   .     S
Li66     H96    10.015   .     S
Li66     He71    9.991   .     S
Li66     Li68    10.07   1_445     S
Li67     S83    10.012   .     S
Li67     S82    10.012   .     S
Li67     H85    10.015   .     S
Li67     H80    10.015   .     S
Li67     He70    9.991   .     S
Li67     Li117    10.07   1_665     S
Li68     S74    10.012   .     S
Li68     S73    10.012   .     S
Li68     H76    10.015   .     S
Li68     H77    10.015   .     S
Li68     He69    9.991   .     S
Li68     Li66    10.07   1_665     S
He69     Ce75    10.032   .     S
He69     Ce72    10.032   .     S
He69     H76    9.986   .     S
He69     H77    9.986   .     S
He70     Ce84    10.032   .     S
He70     Ce81    10.032   .     S
He70     H85    9.986   .     S
He70     H80    9.986   .     S
He71     Ce100    10.032   .     S
He71     Ce97    10.032   .     S
He71     H101    9.986   .     S
He71     H96    9.986   .     S
Ce72     H77    10.024   .     S
Ce72     S73    9.946   .     S
Ce72     Ce75    9.953   .     S
S73     S74    9.914   .     S
S73     H77    9.951   .     S
S73     B78    9.962   1_565     S
S74     H76    9.951   .     S
S74     Ce75    9.946   .     S
S74     B79    9.962   1_655     S
Ce75     H76    10.024   .     S
H76     Ce41    10.041   1_655     S
H77     Ce32    10.041   1_565     S
B78     S73    9.962   1_545     S
B78     C106    9.963   .     S
B78     B87    9.966   .     S
B79     S74    9.962   1_455     S
B79     C115    9.963   .     S
B79     B86    9.966   .     S
H80     Ce81    10.024   .     S
H80     Ce16    10.041   1_655     S
H80     S82    9.951   .     S
Ce81     S82    9.946   .     S
Ce81     Ce84    9.953   .     S
S82     S83    9.914   .     S
S82     B86    9.962   1_655     S
S83     Ce84    9.946   .     S
S83     H85    9.951   .     S
S83     B87    9.962   1_565     S
Ce84     H85    10.024   .     S
H85     Ce24    10.041   1_565     S
B86     S82    9.962   1_455     S
B86     C115    9.963   .     S
B87     S83    9.962   1_545     S
B87     C106    9.963   .     S
H88     Ce89    10.024   .     S
H88     Li117    10.015   .     S
H88     Ce21    10.041   1_455     S
H88     S91    9.951   .     S
H88     He116    9.986   .     S
Ce89     He116    10.032   .     S
Ce89     Be120    10.035   .     S
Ce89     S91    9.946   .     S
Ce89     Ce92    9.953   .     S
S90     Li117    10.012   .     S
S90     Be120    10.009   .     S
S90     S91    9.914   .     S
S90     Ce92    9.946   .     S
S90     H93    9.951   .     S
S90     B94    9.962   1_545     S
S91     Li117    10.012   .     S
S91     Be120    10.009   .     S
S91     B95    9.962   1_455     S
Ce92     He116    10.032   .     S
Ce92     H93    10.024   .     S
Ce92     Be120    10.035   .     S
H93     Li117    10.015   .     S
H93     Ce13    10.041   1_545     S
H93     He116    9.986   .     S
B94     S90    9.962   1_565     S
B94     C104    9.963   .     S
B94     B102    9.966   .     S
B95     S91    9.962   1_655     S
B95     C105    9.963   .     S
B95     B103    9.966   .     S
H96     Ce97    10.024   .     S
H96     Ce38    10.041   1_545     S
H96     S99    9.951   .     S
Ce97     S99    9.946   .     S
Ce97     Ce100    9.953   .     S
S98     S99    9.914   .     S
S98     Ce100    9.946   .     S
S98     H101    9.951   .     S
S98     B103    9.962   1_455     S
S99     B102    9.962   1_545     S
Ce100     H101    10.024   .     S
H101     Ce29    10.041   1_455     S
B102     S99    9.962   1_565     S
B102     C104    9.963   .     S
B103     S98    9.962   1_655     S
B103     C105    9.963   .     S
C104     Ti108    9.959   .     S
C105     Ti109    9.959   .     S
C106     Ti110    9.959   .     S
Ti107     Ti108    9.921   .     S
Ti107     Er112    9.952   .     S
Ti107     Er111    9.952   .     S
Ti107     C115    9.959   .     S
Ti107     V119    10.001   .     S
Ti108     Er114    9.952   .     S
Ti108     Er113    9.952   .     S
Ti108     V119    10.001   .     S
Ti109     Ti110    9.921   .     S
Ti109     Er113    9.952   .     S
Ti109     Er114    9.952   .     S
Ti109     V118    10.001   .     S
Ti110     Er111    9.952   .     S
Ti110     Er112    9.952   .     S
Ti110     V118    10.001   .     S
Er111     Er112    10.154   .     S
Er112     V119    10.04   .     S
Er112     V118    10.04   .     S
Er112     Be120    10.128   .     S
Er113     Er114    10.154   .     S
Er114     V119    10.04   .     S
Er114     V118    10.04   .     S
He116     Li117    9.991   .     S
Li117     Li67    10.07   1_445     S
V118     V119    9.985   .     S
