data_lnga
_audit_creation_date              2020-02-04
_audit_creation_method            'Pymatgen'
_symmetry_space_group_name_H-M    'P1'
_symmetry_Int_Tables_number       1
loop_
_symmetry_equiv_pos_as_xyz
  x,y,z
_cell_length_a                    66.8027
_cell_length_b                    66.8027
_cell_length_c                    66.8027
_cell_angle_alpha                 90.0
_cell_angle_beta                 90.0
_cell_angle_gamma                 90.0
loop_
_atom_site_label
_atom_site_type_symbol
_atom_site_fract_x
_atom_site_fract_y
_atom_site_fract_z
He1     He     0.7035   0.5825   0.6576
Li2     Li     0.6427   0.5676   0.5216
He3     He     0.6576   0.7035   0.5825
Li4     Li     0.5216   0.6427   0.5676
He5     He     0.5825   0.6576   0.7035
Li6     Li     0.5676   0.5216   0.6427
He7     He     0.0825   0.8424   0.2965
Li8     Li     0.0676   0.9784   0.3573
He9     He     0.2035   0.9175   0.3424
Li10     Li     0.1427   0.9324   0.4784
He11     He     0.1576   0.7965   0.4175
Li12     Li     0.0216   0.8573   0.4324
He13     He     0.8424   0.2965   0.0825
Li14     Li     0.9784   0.3573   0.0676
He15     He     0.9175   0.3424   0.2035
Li16     Li     0.9324   0.4784   0.1427
He17     He     0.7965   0.4175   0.1576
Li18     Li     0.8573   0.4324   0.0216
He19     He     0.2965   0.0825   0.8424
Li20     Li     0.3573   0.0676   0.9784
He21     He     0.3424   0.2035   0.9175
Li22     Li     0.4784   0.1427   0.9324
He23     He     0.4175   0.1576   0.7965
Li24     Li     0.4324   0.0216   0.8573
H25     H     0.2523   0.2982   0.3734
H26     H     0.3734   0.2523   0.2982
H27     H     0.2982   0.3734   0.2523
V28     V     0.3748   0.65   0.5395
V29     V     0.65   0.5395   0.3748
V30     V     0.5395   0.3748   0.65
Ti31     Ti     0.6145   0.6104   0.2478
Ce32     Ce     0.692   0.4824   0.2429
Er33     Er     0.5476   0.481   0.2825
Ti34     Ti     0.6104   0.2478   0.6145
Ce35     Ce     0.4824   0.2429   0.692
Er36     Er     0.481   0.2825   0.5476
S37     S     0.3131   0.4342   0.3883
S38     S     0.3883   0.3131   0.4342
S39     S     0.4342   0.3883   0.3131
Ti40     Ti     0.2478   0.6145   0.6104
Ce41     Ce     0.2429   0.692   0.4824
Er42     Er     0.2825   0.5476   0.481
H43     H     0.2477   0.7018   0.8734
H44     H     0.2018   0.6266   0.7523
H45     H     0.1266   0.7477   0.7982
V46     V     0.85   0.4605   0.8748
V47     V     0.9605   0.6252   0.15
V48     V     0.1252   0.35   0.0395
Ti49     Ti     0.8855   0.3896   0.7478
Ce50     Ce     0.808   0.5176   0.7429
Er51     Er     0.9524   0.519   0.7825
Ti52     Ti     0.8896   0.7522   0.1145
Ce53     Ce     0.0176   0.7571   0.192
Er54     Er     0.019   0.7175   0.0476
S55     S     0.1869   0.5658   0.8883
S56     S     0.1117   0.6869   0.9342
S57     S     0.0658   0.6117   0.8131
Ti58     Ti     0.2522   0.3855   0.1104
Ce59     Ce     0.2571   0.308   0.9824
Er60     Er     0.2175   0.4524   0.981
H61     H     0.7523   0.2018   0.6266
H62     H     0.8734   0.2477   0.7018
H63     H     0.7982   0.1266   0.7477
V64     V     0.8748   0.85   0.4605
V65     V     0.15   0.9605   0.6252
V66     V     0.0395   0.1252   0.35
Ti67     Ti     0.7478   0.8855   0.3896
Ce68     Ce     0.7429   0.808   0.5176
Er69     Er     0.7825   0.9524   0.519
Ti70     Ti     0.1145   0.8896   0.7522
Ce71     Ce     0.192   0.0176   0.7571
Er72     Er     0.0476   0.019   0.7175
S73     S     0.8883   0.1869   0.5658
S74     S     0.9342   0.1117   0.6869
S75     S     0.8131   0.0658   0.6117
Ti76     Ti     0.1104   0.2522   0.3855
Ce77     Ce     0.9824   0.2571   0.308
Er78     Er     0.981   0.2175   0.4524
H79     H     0.6266   0.7523   0.2018
H80     H     0.7018   0.8734   0.2477
H81     H     0.7477   0.7982   0.1266
V82     V     0.4605   0.8748   0.85
V83     V     0.6252   0.15   0.9605
V84     V     0.35   0.0395   0.1252
Ti85     Ti     0.3896   0.7478   0.8855
Ce86     Ce     0.5176   0.7429   0.808
Er87     Er     0.519   0.7825   0.9524
Ti88     Ti     0.7522   0.1145   0.8896
Ce89     Ce     0.7571   0.192   0.0176
Er90     Er     0.7175   0.0476   0.019
S91     S     0.6869   0.9342   0.1117
S92     S     0.5658   0.8883   0.1869
S93     S     0.6117   0.8131   0.0658
Ti94     Ti     0.3855   0.1104   0.2522
Ce95     Ce     0.308   0.9824   0.2571
Er96     Er     0.4524   0.981   0.2175
loop_
_geom_bond_atom_site_label_1
_geom_bond_atom_site_label_2
_geom_bond_distance
_geom_bond_site_symmetry_2
_ccdc_geom_bond_type
He1     Ce50    10.0   .     S
He1     Li6    10.0   .     S
He1     Li2    10.0   .     S
He1     He5    10.0   .     S
He1     He3    10.0   .     S
Li2     Li4    10.0   .     S
Li2     He3    10.0   .     S
Li2     Li6    10.0   .     S
Li2     V29    10.0   .     S
He3     Ce68    10.0   .     S
He3     Li4    10.0   .     S
He3     He5    10.0   .     S
Li4     Li6    10.0   .     S
Li4     He5    10.0   .     S
Li4     V28    10.0   .     S
He5     Ce86    10.0   .     S
He5     Li6    10.0   .     S
Li6     V30    10.0   .     S
He7     Ce53    10.0   .     S
He7     Li12    10.0   .     S
He7     Li8    10.0   .     S
He7     He11    10.0   .     S
He7     He9    10.0   .     S
Li8     Li10    10.0   .     S
Li8     He9    10.0   .     S
Li8     Li12    10.0   .     S
Li8     V66    10.0   1_565     S
He9     Ce95    10.0   .     S
He9     Li10    10.0   .     S
He9     He11    10.0   .     S
Li10     Li12    10.0   .     S
Li10     He11    10.0   .     S
Li10     V65    10.0   .     S
He11     Ce41    10.0   .     S
He11     Li12    10.0   .     S
Li12     V64    10.0   1_455     S
He13     Ce89    10.0   .     S
He13     Li18    10.0   .     S
He13     Li14    10.0   .     S
He13     He17    10.0   .     S
He13     He15    10.0   .     S
Li14     Li16    10.0   .     S
Li14     He15    10.0   .     S
Li14     Li18    10.0   .     S
Li14     V48    10.0   1_655     S
He15     Ce77    10.0   .     S
He15     Li16    10.0   .     S
He15     He17    10.0   .     S
Li16     Li18    10.0   .     S
Li16     He17    10.0   .     S
Li16     V47    10.0   .     S
He17     Ce32    10.0   .     S
He17     Li18    10.0   .     S
Li18     V46    10.0   1_554     S
He19     Ce71    10.0   .     S
He19     Li24    10.0   .     S
He19     Li20    10.0   .     S
He19     He23    10.0   .     S
He19     He21    10.0   .     S
Li20     Li22    10.0   .     S
Li20     He21    10.0   .     S
Li20     Li24    10.0   .     S
Li20     V84    10.0   1_556     S
He21     Ce59    10.0   .     S
He21     Li22    10.0   .     S
He21     He23    10.0   .     S
Li22     Li24    10.0   .     S
Li22     He23    10.0   .     S
Li22     V83    10.0   .     S
He23     Ce35    10.0   .     S
He23     Li24    10.0   .     S
Li24     V82    10.0   1_545     S
H25     S37    10.0   .     S
H25     S38    10.0   .     S
H25     H27    10.0   .     S
H25     H26    10.0   .     S
H25     Ti76    10.0   .     S
H26     S39    10.0   .     S
H26     S38    10.0   .     S
H26     H27    10.0   .     S
H26     Ti94    10.0   .     S
H27     S37    10.0   .     S
H27     S39    10.0   .     S
H27     Ti58    10.0   .     S
V28     Ce41    10.0   .     S
V28     Er42    10.0   .     S
V28     Ti40    10.0   .     S
V29     Ce32    10.0   .     S
V29     Er33    10.0   .     S
V29     Ti31    10.0   .     S
V30     Ce35    10.0   .     S
V30     Er36    10.0   .     S
V30     Ti34    10.0   .     S
Ti31     H79    10.0   .     S
Ti31     Ce32    10.0   .     S
Ti31     Er33    10.0   .     S
Ce32     Er33    10.0   .     S
Er33     S39    10.0   .     S
Ti34     H61    10.0   .     S
Ti34     Ce35    10.0   .     S
Ti34     Er36    10.0   .     S
Ce35     Er36    10.0   .     S
Er36     S38    10.0   .     S
S37     S38    10.0   .     S
S37     S39    10.0   .     S
S37     Er42    10.0   .     S
S38     S39    10.0   .     S
Ti40     H44    10.0   .     S
Ti40     Ce41    10.0   .     S
Ti40     Er42    10.0   .     S
Ce41     Er42    10.0   .     S
H43     S56    10.0   .     S
H43     S55    10.0   .     S
H43     H44    10.0   .     S
H43     H45    10.0   .     S
H43     Ti85    10.0   .     S
H44     S57    10.0   .     S
H44     S55    10.0   .     S
H44     H45    10.0   .     S
H45     S57    10.0   .     S
H45     S56    10.0   .     S
H45     Ti70    10.0   .     S
V46     Li18    10.0   1_556     S
V46     Ce50    10.0   .     S
V46     Er51    10.0   .     S
V46     Ti49    10.0   .     S
V47     Ce53    10.0   1_655     S
V47     Er54    10.0   1_655     S
V47     Ti52    10.0   .     S
V48     Li14    10.0   1_455     S
V48     Ce59    10.0   1_554     S
V48     Er60    10.0   1_554     S
V48     Ti58    10.0   .     S
Ti49     H62    10.0   .     S
Ti49     Ce50    10.0   .     S
Ti49     Er51    10.0   .     S
Ce50     Er51    10.0   .     S
Er51     S57    10.0   1_655     S
Ti52     H81    10.0   .     S
Ti52     Ce53    10.0   1_655     S
Ti52     Er54    10.0   1_655     S
Ce53     V47    10.0   1_455     S
Ce53     Er54    10.0   .     S
Ce53     Ti52    10.0   1_455     S
Er54     V47    10.0   1_455     S
Er54     Ti52    10.0   1_455     S
Er54     S56    10.0   1_554     S
S55     S56    10.0   .     S
S55     S57    10.0   .     S
S55     Er60    10.0   .     S
S56     Er54    10.0   1_556     S
S56     S57    10.0   .     S
S57     Er51    10.0   1_455     S
Ti58     Ce59    10.0   1_554     S
Ti58     Er60    10.0   1_554     S
Ce59     V48    10.0   1_556     S
Ce59     Er60    10.0   .     S
Ce59     Ti58    10.0   1_556     S
Er60     Ti58    10.0   1_556     S
Er60     V48    10.0   1_556     S
H61     S75    10.0   .     S
H61     S73    10.0   .     S
H61     H63    10.0   .     S
H61     H62    10.0   .     S
H62     S74    10.0   .     S
H62     S73    10.0   .     S
H62     H63    10.0   .     S
H63     S75    10.0   .     S
H63     S74    10.0   .     S
H63     Ti88    10.0   .     S
V64     Li12    10.0   1_655     S
V64     Ce68    10.0   .     S
V64     Er69    10.0   .     S
V64     Ti67    10.0   .     S
V65     Ce71    10.0   1_565     S
V65     Er72    10.0   1_565     S
V65     Ti70    10.0   .     S
V66     Li8    10.0   1_545     S
V66     Ce77    10.0   1_455     S
V66     Er78    10.0   1_455     S
V66     Ti76    10.0   .     S
Ti67     H80    10.0   .     S
Ti67     Ce68    10.0   .     S
Ti67     Er69    10.0   .     S
Ce68     Er69    10.0   .     S
Er69     S75    10.0   1_565     S
Ti70     Ce71    10.0   1_565     S
Ti70     Er72    10.0   1_565     S
Ce71     V65    10.0   1_545     S
Ce71     Er72    10.0   .     S
Ce71     Ti70    10.0   1_545     S
Er72     V65    10.0   1_545     S
Er72     Ti70    10.0   1_545     S
Er72     S74    10.0   1_455     S
S73     S74    10.0   .     S
S73     S75    10.0   .     S
S73     Er78    10.0   .     S
S74     Er72    10.0   1_655     S
S74     S75    10.0   .     S
S75     Er69    10.0   1_545     S
Ti76     Ce77    10.0   1_455     S
Ti76     Er78    10.0   1_455     S
Ce77     V66    10.0   1_655     S
Ce77     Er78    10.0   .     S
Ce77     Ti76    10.0   1_655     S
Er78     Ti76    10.0   1_655     S
Er78     V66    10.0   1_655     S
H79     S93    10.0   .     S
H79     S92    10.0   .     S
H79     H81    10.0   .     S
H79     H80    10.0   .     S
H80     S91    10.0   .     S
H80     S92    10.0   .     S
H80     H81    10.0   .     S
H81     S93    10.0   .     S
H81     S91    10.0   .     S
V82     Li24    10.0   1_565     S
V82     Ce86    10.0   .     S
V82     Er87    10.0   .     S
V82     Ti85    10.0   .     S
V83     Ce89    10.0   1_556     S
V83     Er90    10.0   1_556     S
V83     Ti88    10.0   .     S
V84     Li20    10.0   1_554     S
V84     Ce95    10.0   1_545     S
V84     Er96    10.0   1_545     S
V84     Ti94    10.0   .     S
Ti85     Ce86    10.0   .     S
Ti85     Er87    10.0   .     S
Ce86     Er87    10.0   .     S
Er87     S93    10.0   1_556     S
Ti88     Ce89    10.0   1_556     S
Ti88     Er90    10.0   1_556     S
Ce89     V83    10.0   1_554     S
Ce89     Er90    10.0   .     S
Ce89     Ti88    10.0   1_554     S
Er90     V83    10.0   1_554     S
Er90     Ti88    10.0   1_554     S
Er90     S91    10.0   1_545     S
S91     Er90    10.0   1_565     S
S91     S93    10.0   .     S
S91     S92    10.0   .     S
S92     S93    10.0   .     S
S92     Er96    10.0   .     S
S93     Er87    10.0   1_554     S
Ti94     Ce95    10.0   1_545     S
Ti94     Er96    10.0   1_545     S
Ce95     V84    10.0   1_565     S
Ce95     Er96    10.0   .     S
Ce95     Ti94    10.0   1_565     S
Er96     Ti94    10.0   1_565     S
Er96     V84    10.0   1_565     S
