data_lrj
_audit_creation_date              2020-02-04
_audit_creation_method            'Pymatgen'
_symmetry_space_group_name_H-M    'P1'
_symmetry_Int_Tables_number       1
loop_
_symmetry_equiv_pos_as_xyz
  x,y,z
_cell_length_a                    16.7695
_cell_length_b                    52.6993
_cell_length_c                    61.7107
_cell_angle_alpha                 90.0
_cell_angle_beta                 90.0
_cell_angle_gamma                 90.0
loop_
_atom_site_label
_atom_site_type_symbol
_atom_site_fract_x
_atom_site_fract_y
_atom_site_fract_z
Er1     Er     0.5   0.1983   0.669
Er2     Er     0.5   0.1983   0.831
Er3     Er     0.0   0.3017   0.669
Er4     Er     0.0   0.3017   0.831
V5     V     0.1835   0.9252   0.419
V6     V     0.1835   0.9252   0.581
V7     V     0.8165   0.0748   0.419
V8     V     0.8165   0.0748   0.581
Er9     Er     0.0   0.6983   0.669
Er10     Er     0.0   0.6983   0.831
Er11     Er     0.5   0.8017   0.669
Er12     Er     0.5   0.8017   0.831
V13     V     0.8165   0.9252   0.919
V14     V     0.8165   0.9252   0.081
V15     V     0.1835   0.0748   0.919
V16     V     0.1835   0.0748   0.081
Er17     Er     0.0   0.3017   0.331
Er18     Er     0.0   0.3017   0.169
Er19     Er     0.5   0.1983   0.331
Er20     Er     0.5   0.1983   0.169
V21     V     0.6835   0.4252   0.419
V22     V     0.6835   0.4252   0.581
V23     V     0.3165   0.5748   0.419
V24     V     0.3165   0.5748   0.581
Er25     Er     0.0   0.6983   0.331
Er26     Er     0.0   0.6983   0.169
Er27     Er     0.5   0.8017   0.331
Er28     Er     0.5   0.8017   0.169
V29     V     0.6835   0.5748   0.919
V30     V     0.6835   0.5748   0.081
V31     V     0.3165   0.4252   0.919
V32     V     0.3165   0.4252   0.081
loop_
_geom_bond_atom_site_label_1
_geom_bond_atom_site_label_2
_geom_bond_distance
_geom_bond_site_symmetry_2
_ccdc_geom_bond_type
Er1     Er2    10.0   .     S
Er1     Er3    10.0   1_655     S
Er1     Er3    10.0   .     S
Er1     V8    10.0   .     S
Er2     Er4    10.0   .     S
Er2     Er4    10.0   1_655     S
Er2     V15    10.0   .     S
Er3     Er4    10.0   .     S
Er3     Er1    10.0   1_455     S
Er3     V22    10.0   1_455     S
Er4     Er2    10.0   1_455     S
Er4     V31    10.0   .     S
V5     V6    10.0   .     S
V5     V7    10.0   1_465     S
V5     Er27    10.0   .     S
V6     V8    10.0   1_465     S
V6     Er11    10.0   .     S
V7     V8    10.0   .     S
V7     V5    10.0   1_645     S
V7     Er19    10.0   .     S
V8     V6    10.0   1_645     S
Er9     Er10    10.0   .     S
Er9     Er11    10.0   .     S
Er9     Er11    10.0   1_455     S
Er9     V24    10.0   .     S
Er10     Er12    10.0   1_455     S
Er10     Er12    10.0   .     S
Er10     V29    10.0   1_455     S
Er11     Er12    10.0   .     S
Er11     Er9    10.0   1_655     S
Er12     Er10    10.0   1_655     S
Er12     V13    10.0   .     S
V13     V14    10.0   1_556     S
V13     V15    10.0   1_665     S
V14     V13    10.0   1_554     S
V14     V16    10.0   1_665     S
V14     Er28    10.0   .     S
V15     V16    10.0   1_556     S
V15     V13    10.0   1_445     S
V16     V15    10.0   1_554     S
V16     V14    10.0   1_445     S
V16     Er20    10.0   .     S
Er17     Er18    10.0   .     S
Er17     Er19    10.0   1_455     S
Er17     Er19    10.0   .     S
Er17     V21    10.0   1_455     S
Er18     Er20    10.0   .     S
Er18     Er20    10.0   1_455     S
Er18     V32    10.0   .     S
Er19     Er20    10.0   .     S
Er19     Er17    10.0   1_655     S
Er20     Er18    10.0   1_655     S
V21     V22    10.0   .     S
V21     V23    10.0   .     S
V21     Er17    10.0   1_655     S
V22     V24    10.0   .     S
V22     Er3    10.0   1_655     S
V23     V24    10.0   .     S
V23     Er25    10.0   .     S
Er25     Er26    10.0   .     S
Er25     Er27    10.0   .     S
Er25     Er27    10.0   1_455     S
Er26     Er28    10.0   1_455     S
Er26     Er28    10.0   .     S
Er26     V30    10.0   1_455     S
Er27     Er28    10.0   .     S
Er27     Er25    10.0   1_655     S
Er28     Er26    10.0   1_655     S
V29     V30    10.0   1_556     S
V29     V31    10.0   .     S
V29     Er10    10.0   1_655     S
V30     V29    10.0   1_554     S
V30     V32    10.0   .     S
V30     Er26    10.0   1_655     S
V31     V32    10.0   1_556     S
V32     V31    10.0   1_554     S
