data_lrl
_audit_creation_date              2020-02-04
_audit_creation_method            'Pymatgen'
_symmetry_space_group_name_H-M    'P1'
_symmetry_Int_Tables_number       1
loop_
_symmetry_equiv_pos_as_xyz
  x,y,z
_cell_length_a                    54.804
_cell_length_b                    17.1852
_cell_length_c                    91.4712
_cell_angle_alpha                 90.0
_cell_angle_beta                 90.0
_cell_angle_gamma                 90.0
loop_
_atom_site_label
_atom_site_type_symbol
_atom_site_fract_x
_atom_site_fract_y
_atom_site_fract_z
V1     V     0.5   0.5   0.5547
V2     V     0.5   0.5   0.4453
V3     V     0.0   0.0   0.5547
V4     V     0.0   0.0   0.4453
Er5     Er     0.9282   0.1794   0.3507
Er6     Er     0.5718   0.3206   0.3507
Er7     Er     0.5718   0.6794   0.1493
Er8     Er     0.9282   0.8206   0.1493
Ti9     Ti     0.7033   0.0   0.1953
Ti10     Ti     0.7033   0.0   0.3047
Ti11     Ti     0.7967   0.5   0.1953
Ti12     Ti     0.7967   0.5   0.3047
Er13     Er     0.0718   0.8206   0.3507
Er14     Er     0.4282   0.6794   0.3507
Er15     Er     0.4282   0.3206   0.1493
Er16     Er     0.0718   0.1794   0.1493
Ti17     Ti     0.2967   0.0   0.1953
Ti18     Ti     0.2967   0.0   0.3047
Ti19     Ti     0.2033   0.5   0.1953
Ti20     Ti     0.2033   0.5   0.3047
V21     V     0.5   0.5   0.0547
V22     V     0.5   0.5   0.9453
Er23     Er     0.4282   0.3206   0.8507
Er24     Er     0.0718   0.1794   0.8507
Er25     Er     0.0718   0.8206   0.6493
Er26     Er     0.4282   0.6794   0.6493
Ti27     Ti     0.2967   0.0   0.8047
Ti28     Ti     0.2967   0.0   0.6953
Ti29     Ti     0.2033   0.5   0.8047
Ti30     Ti     0.2033   0.5   0.6953
Er31     Er     0.5718   0.6794   0.8507
Er32     Er     0.9282   0.8206   0.8507
Er33     Er     0.5718   0.3206   0.6493
Er34     Er     0.9282   0.1794   0.6493
Ti35     Ti     0.7033   0.0   0.8047
Ti36     Ti     0.7033   0.0   0.6953
Ti37     Ti     0.7967   0.5   0.8047
Ti38     Ti     0.7967   0.5   0.6953
V39     V     0.0   0.0   0.0547
V40     V     0.0   0.0   0.9453
loop_
_geom_bond_atom_site_label_1
_geom_bond_atom_site_label_2
_geom_bond_distance
_geom_bond_site_symmetry_2
_ccdc_geom_bond_type
V1     V2    10.0   .     S
V1     Er26    10.0   .     S
V1     Er33    10.0   .     S
V2     Er6    10.0   .     S
V2     Er14    10.0   .     S
V3     V4    10.0   .     S
V3     Er34    10.0   1_455     S
V3     Er25    10.0   1_545     S
V4     Er13    10.0   1_545     S
V4     Er5    10.0   1_455     S
Er5     V4    10.0   1_655     S
Er5     Ti12    10.0   .     S
Er5     Er13    10.0   1_645     S
Er6     Ti10    10.0   .     S
Er6     Er14    10.0   .     S
Er7     Ti9    10.0   1_565     S
Er7     V21    10.0   .     S
Er7     Er15    10.0   .     S
Er8     Ti11    10.0   .     S
Er8     V39    10.0   1_665     S
Er8     Er16    10.0   1_665     S
Ti9     Er7    10.0   1_545     S
Ti9     Ti10    10.0   .     S
Ti9     Ti11    10.0   .     S
Ti9     Ti11    10.0   1_545     S
Ti10     Ti12    10.0   1_545     S
Ti10     Ti12    10.0   .     S
Ti11     Ti12    10.0   .     S
Ti11     Ti9    10.0   1_565     S
Ti12     Ti10    10.0   1_565     S
Er13     V4    10.0   1_565     S
Er13     Ti20    10.0   .     S
Er13     Er5    10.0   1_465     S
Er14     Ti18    10.0   1_565     S
Er15     Ti17    10.0   .     S
Er15     V21    10.0   .     S
Er16     Ti19    10.0   .     S
Er16     V39    10.0   .     S
Er16     Er8    10.0   1_445     S
Ti17     Ti18    10.0   .     S
Ti17     Ti19    10.0   1_545     S
Ti17     Ti19    10.0   .     S
Ti18     Er14    10.0   1_545     S
Ti18     Ti20    10.0   .     S
Ti18     Ti20    10.0   1_545     S
Ti19     Ti20    10.0   .     S
Ti19     Ti17    10.0   1_565     S
Ti20     Ti18    10.0   1_565     S
V21     V22    10.0   1_554     S
V22     V21    10.0   1_556     S
V22     Er23    10.0   .     S
V22     Er31    10.0   .     S
Er23     Ti27    10.0   .     S
Er23     Er31    10.0   .     S
Er24     Ti29    10.0   .     S
Er24     V40    10.0   .     S
Er24     Er32    10.0   1_445     S
Er25     Ti30    10.0   .     S
Er25     V3    10.0   1_565     S
Er25     Er34    10.0   1_465     S
Er26     Ti28    10.0   1_565     S
Er26     Er33    10.0   .     S
Ti27     Ti28    10.0   .     S
Ti27     Ti29    10.0   1_545     S
Ti27     Ti29    10.0   .     S
Ti28     Er26    10.0   1_545     S
Ti28     Ti30    10.0   .     S
Ti28     Ti30    10.0   1_545     S
Ti29     Ti30    10.0   .     S
Ti29     Ti27    10.0   1_565     S
Ti30     Ti28    10.0   1_565     S
Er31     Ti35    10.0   1_565     S
Er32     Ti37    10.0   .     S
Er32     V40    10.0   1_665     S
Er32     Er24    10.0   1_665     S
Er33     Ti36    10.0   .     S
Er34     Ti38    10.0   .     S
Er34     V3    10.0   1_655     S
Er34     Er25    10.0   1_645     S
Ti35     Er31    10.0   1_545     S
Ti35     Ti36    10.0   .     S
Ti35     Ti37    10.0   .     S
Ti35     Ti37    10.0   1_545     S
Ti36     Ti38    10.0   1_545     S
Ti36     Ti38    10.0   .     S
Ti37     Ti38    10.0   .     S
Ti37     Ti35    10.0   1_565     S
Ti38     Ti36    10.0   1_565     S
V39     V40    10.0   1_554     S
V39     Er8    10.0   1_445     S
V40     V39    10.0   1_556     S
V40     Er32    10.0   1_445     S
