data_lul
_audit_creation_date              2020-02-04
_audit_creation_method            'Pymatgen'
_symmetry_space_group_name_H-M    'P1'
_symmetry_Int_Tables_number       1
loop_
_symmetry_equiv_pos_as_xyz
  x,y,z
_cell_length_a                    34.2272
_cell_length_b                    34.2272
_cell_length_c                    35.1457
_cell_angle_alpha                 90.0
_cell_angle_beta                 90.0
_cell_angle_gamma                 90.0
loop_
_atom_site_label
_atom_site_type_symbol
_atom_site_fract_x
_atom_site_fract_y
_atom_site_fract_z
V1     V     0.25   0.4009   0.75
Er2     Er     0.5   0.25   0.7501
Er3     Er     0.0   0.25   0.7499
V4     V     0.25   0.0991   0.75
V5     V     0.75   0.0991   0.75
V6     V     0.75   0.4009   0.75
V7     V     0.6509   0.5   0.5
V8     V     0.3491   0.5   0.5
Er9     Er     0.5   0.25   0.4999
V10     V     0.3491   0.0   0.5
V11     V     0.6509   0.0   0.5
Er12     Er     0.5   0.75   0.5001
Er13     Er     0.5   0.75   0.2499
Er14     Er     0.0   0.75   0.2501
V15     V     0.25   0.9009   0.25
V16     V     0.25   0.5991   0.25
V17     V     0.75   0.9009   0.25
V18     V     0.75   0.5991   0.25
V19     V     0.8491   0.5   0.0
V20     V     0.1509   0.5   0.0
Er21     Er     0.0   0.25   0.0001
V22     V     0.1509   0.0   0.0
V23     V     0.8491   0.0   0.0
Er24     Er     0.0   0.75   0.9999
loop_
_geom_bond_atom_site_label_1
_geom_bond_atom_site_label_2
_geom_bond_distance
_geom_bond_site_symmetry_2
_ccdc_geom_bond_type
V1     Er3    9.995   .     S
V1     Er2    9.995   .     S
V1     V8    10.011   .     S
V1     V20    10.011   1_556     S
Er2     V5    9.995   .     S
Er2     V6    9.995   .     S
Er2     V4    9.995   .     S
Er3     V5    9.995   1_455     S
Er3     V6    9.995   1_455     S
Er3     V4    9.995   .     S
V4     V10    10.011   .     S
V4     V22    10.011   1_556     S
V5     Er3    9.995   1_655     S
V5     V11    10.011   .     S
V5     V23    10.011   1_556     S
V6     Er3    9.995   1_655     S
V6     V7    10.011   .     S
V6     V19    10.011   1_556     S
V7     Er12    9.995   .     S
V7     Er9    9.995   .     S
V7     V18    10.011   .     S
V8     Er12    9.995   .     S
V8     Er9    9.995   .     S
V8     V16    10.011   .     S
Er9     V11    9.995   .     S
Er9     V10    9.995   .     S
V10     Er12    9.995   1_545     S
V10     V15    10.011   1_545     S
V11     Er12    9.995   1_545     S
V11     V17    10.011   1_545     S
Er12     V10    9.995   1_565     S
Er12     V11    9.995   1_565     S
Er13     V17    9.995   .     S
Er13     V18    9.995   .     S
Er13     V15    9.995   .     S
Er13     V16    9.995   .     S
Er14     V17    9.995   1_455     S
Er14     V18    9.995   1_455     S
Er14     V15    9.995   .     S
Er14     V16    9.995   .     S
V15     V10    10.011   1_565     S
V15     V22    10.011   1_565     S
V16     V20    10.011   .     S
V17     Er14    9.995   1_655     S
V17     V11    10.011   1_565     S
V17     V23    10.011   1_565     S
V18     Er14    9.995   1_655     S
V18     V19    10.011   .     S
V19     Er24    9.995   1_654     S
V19     Er21    9.995   1_655     S
V19     V6    10.011   1_554     S
V20     Er24    9.995   1_554     S
V20     Er21    9.995   .     S
V20     V1    10.011   1_554     S
Er21     V23    9.995   1_455     S
Er21     V19    9.995   1_455     S
Er21     V22    9.995   .     S
V22     Er24    9.995   1_544     S
V22     V15    10.011   1_545     S
V22     V4    10.011   1_554     S
V23     Er21    9.995   1_655     S
V23     Er24    9.995   1_644     S
V23     V17    10.011   1_545     S
V23     V5    10.011   1_554     S
Er24     V19    9.995   1_456     S
Er24     V20    9.995   1_556     S
Er24     V22    9.995   1_566     S
Er24     V23    9.995   1_466     S
