data_lum
_audit_creation_date              2020-02-04
_audit_creation_method            'Pymatgen'
_symmetry_space_group_name_H-M    'P1'
_symmetry_Int_Tables_number       1
loop_
_symmetry_equiv_pos_as_xyz
  x,y,z
_cell_length_a                    45.3516
_cell_length_b                    45.3516
_cell_length_c                    34.4516
_cell_angle_alpha                 90.0
_cell_angle_beta                 90.0
_cell_angle_gamma                 90.0
loop_
_atom_site_label
_atom_site_type_symbol
_atom_site_fract_x
_atom_site_fract_y
_atom_site_fract_z
Er1     Er     0.25   0.5796   0.75
V2     V     0.1102   0.75   0.7502
V3     V     0.3898   0.75   0.7498
Er4     Er     0.25   0.9204   0.75
V5     V     0.8898   0.75   0.7502
Er6     Er     0.75   0.5796   0.75
V7     V     0.6102   0.75   0.7498
Er8     Er     0.75   0.9204   0.75
V9     V     0.0   0.3602   0.5002
Er10     Er     0.8296   0.5   0.5
V11     V     0.0   0.6398   0.4998
Er12     Er     0.1704   0.5   0.5
V13     V     0.0   0.8602   0.4998
V14     V     0.0   0.1398   0.5002
Er15     Er     0.1704   0.0   0.5
Er16     Er     0.8296   0.0   0.5
V17     V     0.5   0.6398   0.0002
Er18     Er     0.6704   0.5   0.0
V19     V     0.5   0.3602   0.9998
Er20     Er     0.3296   0.5   0.0
V21     V     0.5   0.1398   0.9998
V22     V     0.5   0.8602   0.0002
Er23     Er     0.6704   0.0   0.0
Er24     Er     0.3296   0.0   0.0
Er25     Er     0.25   0.4204   0.25
V26     V     0.3898   0.25   0.2502
Er27     Er     0.25   0.0796   0.25
V28     V     0.1102   0.25   0.2498
V29     V     0.8898   0.25   0.2498
Er30     Er     0.75   0.0796   0.25
V31     V     0.6102   0.25   0.2502
Er32     Er     0.75   0.4204   0.25
loop_
_geom_bond_atom_site_label_1
_geom_bond_atom_site_label_2
_geom_bond_distance
_geom_bond_site_symmetry_2
_ccdc_geom_bond_type
Er1     V2    9.994   .     S
Er1     V3    9.994   .     S
Er1     Er12    10.014   .     S
Er1     Er20    10.014   1_556     S
V2     Er4    9.994   .     S
V2     V5    9.997   1_455     S
V3     Er4    9.994   .     S
V3     V7    9.997   .     S
Er4     Er15    10.014   1_565     S
Er4     Er24    10.014   1_566     S
V5     Er6    9.994   .     S
V5     Er8    9.994   .     S
V5     V2    9.997   1_655     S
Er6     V7    9.994   .     S
Er6     Er18    10.014   1_556     S
Er6     Er10    10.014   .     S
V7     Er8    9.994   .     S
Er8     Er16    10.014   1_565     S
Er8     Er23    10.014   1_566     S
V9     Er10    9.994   1_455     S
V9     Er12    9.994   .     S
V9     V14    9.997   .     S
Er10     V9    9.994   1_655     S
Er10     V11    9.994   1_655     S
Er10     Er32    10.014   .     S
V11     Er10    9.994   1_455     S
V11     Er12    9.994   .     S
V11     V13    9.997   .     S
Er12     Er25    10.014   .     S
V13     Er16    9.994   1_465     S
V13     Er15    9.994   1_565     S
V14     Er16    9.994   1_455     S
V14     Er15    9.994   .     S
Er15     V13    9.994   1_545     S
Er15     Er4    10.014   1_545     S
Er15     Er27    10.014   .     S
Er16     V13    9.994   1_645     S
Er16     V14    9.994   1_655     S
Er16     Er8    10.014   1_545     S
Er16     Er30    10.014   .     S
V17     Er20    9.994   .     S
V17     Er18    9.994   .     S
V17     V22    9.997   .     S
Er18     Er6    10.014   1_554     S
Er18     V19    9.994   1_554     S
Er18     Er32    10.014   .     S
V19     Er18    9.994   1_556     S
V19     Er20    9.994   1_556     S
V19     V21    9.997   .     S
Er20     V19    9.994   1_554     S
Er20     Er1    10.014   1_554     S
Er20     Er25    10.014   .     S
V21     Er24    9.994   1_556     S
V21     Er23    9.994   1_556     S
V22     Er24    9.994   1_565     S
V22     Er23    9.994   1_565     S
Er23     V22    9.994   1_545     S
Er23     V21    9.994   1_554     S
Er23     Er8    10.014   1_544     S
Er23     Er30    10.014   .     S
Er24     V21    9.994   1_554     S
Er24     V22    9.994   1_545     S
Er24     Er4    10.014   1_544     S
Er24     Er27    10.014   .     S
Er25     V26    9.994   .     S
Er25     V28    9.994   .     S
V26     Er27    9.994   .     S
V26     V31    9.997   .     S
Er27     V28    9.994   .     S
V28     V29    9.997   1_455     S
V29     Er32    9.994   .     S
V29     Er30    9.994   .     S
V29     V28    9.997   1_655     S
Er30     V31    9.994   .     S
V31     Er32    9.994   .     S
