data_lwa
_audit_creation_date              2020-02-04
_audit_creation_method            'Pymatgen'
_symmetry_space_group_name_H-M    'P1'
_symmetry_Int_Tables_number       1
loop_
_symmetry_equiv_pos_as_xyz
  x,y,z
_cell_length_a                    26.8706
_cell_length_b                    26.8706
_cell_length_c                    26.8706
_cell_angle_alpha                 90.0
_cell_angle_beta                 90.0
_cell_angle_gamma                 90.0
loop_
_atom_site_label
_atom_site_type_symbol
_atom_site_fract_x
_atom_site_fract_y
_atom_site_fract_z
Er1     Er     0.5   0.5   0.5
V2     V     0.5   0.8072   0.6853
V3     V     0.6853   0.5   0.8072
V4     V     0.8072   0.6853   0.5
V5     V     0.5   0.8072   0.3147
V6     V     0.3147   0.5   0.8072
V7     V     0.8072   0.3147   0.5
V8     V     0.5   0.1928   0.6853
V9     V     0.6853   0.5   0.1928
V10     V     0.1928   0.6853   0.5
V11     V     0.5   0.1928   0.3147
V12     V     0.3147   0.5   0.1928
V13     V     0.1928   0.3147   0.5
Er14     Er     0.0   0.0   0.0
V15     V     0.0   0.6928   0.8147
V16     V     0.8147   0.0   0.6928
V17     V     0.6928   0.8147   0.0
V18     V     0.0   0.6928   0.1853
V19     V     0.1853   0.0   0.6928
V20     V     0.6928   0.1853   0.0
V21     V     0.0   0.3072   0.1853
V22     V     0.0   0.3072   0.8147
V23     V     0.1853   0.0   0.3072
V24     V     0.8147   0.0   0.3072
V25     V     0.3072   0.1853   0.0
V26     V     0.3072   0.8147   0.0
loop_
_geom_bond_atom_site_label_1
_geom_bond_atom_site_label_2
_geom_bond_distance
_geom_bond_site_symmetry_2
_ccdc_geom_bond_type
Er1     V5    9.64   .     S
Er1     V2    9.64   .     S
Er1     V7    9.64   .     S
Er1     V4    9.64   .     S
Er1     V6    9.64   .     S
Er1     V3    9.64   .     S
Er1     V8    9.64   .     S
Er1     V11    9.64   .     S
Er1     V9    9.64   .     S
Er1     V12    9.64   .     S
Er1     V10    9.64   .     S
Er1     V13    9.64   .     S
V2     V10    10.181   .     S
V2     V4    10.181   .     S
V2     V3    10.181   .     S
V2     V6    10.181   .     S
V2     V8    10.362   1_565     S
V2     V17    9.919   1_556     S
V2     V26    9.919   1_556     S
V2     V19    9.919   1_565     S
V2     V16    9.919   1_565     S
V2     V5    9.959   .     S
V3     V8    10.181   .     S
V3     V4    10.181   .     S
V3     V7    10.181   .     S
V3     V9    10.362   1_556     S
V3     V15    9.919   1_655     S
V3     V22    9.919   1_655     S
V3     V20    9.919   1_556     S
V3     V17    9.919   1_556     S
V3     V6    9.959   .     S
V4     V9    10.181   .     S
V4     V5    10.181   .     S
V4     V10    10.362   1_655     S
V4     V16    9.919   1_565     S
V4     V24    9.919   1_565     S
V4     V18    9.919   1_655     S
V4     V15    9.919   1_655     S
V4     V7    9.959   .     S
V5     V10    10.181   .     S
V5     V12    10.181   .     S
V5     V9    10.181   .     S
V5     V11    10.362   1_565     S
V5     V17    9.919   .     S
V5     V26    9.919   .     S
V5     V24    9.919   1_565     S
V5     V23    9.919   1_565     S
V6     V8    10.181   .     S
V6     V13    10.181   .     S
V6     V10    10.181   .     S
V6     V12    10.362   1_556     S
V6     V15    9.919   .     S
V6     V22    9.919   .     S
V6     V26    9.919   1_556     S
V6     V25    9.919   1_556     S
V7     V9    10.181   .     S
V7     V11    10.181   .     S
V7     V8    10.181   .     S
V7     V13    10.362   1_655     S
V7     V16    9.919   .     S
V7     V24    9.919   .     S
V7     V22    9.919   1_655     S
V7     V21    9.919   1_655     S
V8     V13    10.181   .     S
V8     V2    10.362   1_545     S
V8     V20    9.919   1_556     S
V8     V25    9.919   1_556     S
V8     V16    9.919   .     S
V8     V19    9.919   .     S
V8     V11    9.959   .     S
V9     V11    10.181   .     S
V9     V3    10.362   1_554     S
V9     V18    9.919   1_655     S
V9     V21    9.919   1_655     S
V9     V17    9.919   .     S
V9     V20    9.919   .     S
V9     V12    9.959   .     S
V10     V12    10.181   .     S
V10     V4    10.362   1_455     S
V10     V19    9.919   1_565     S
V10     V23    9.919   1_565     S
V10     V15    9.919   .     S
V10     V18    9.919   .     S
V10     V13    9.959   .     S
V11     V12    10.181   .     S
V11     V13    10.181   .     S
V11     V5    10.362   1_545     S
V11     V20    9.919   .     S
V11     V25    9.919   .     S
V11     V23    9.919   .     S
V11     V24    9.919   .     S
V12     V13    10.181   .     S
V12     V6    10.362   1_554     S
V12     V18    9.919   .     S
V12     V21    9.919   .     S
V12     V25    9.919   .     S
V12     V26    9.919   .     S
V13     V7    10.362   1_455     S
V13     V19    9.919   .     S
V13     V23    9.919   .     S
V13     V21    9.919   .     S
V13     V22    9.919   .     S
Er14     V17    9.64   1_445     S
Er14     V20    9.64   1_455     S
Er14     V16    9.64   1_454     S
Er14     V19    9.64   1_554     S
Er14     V25    9.64   .     S
Er14     V23    9.64   .     S
Er14     V21    9.64   .     S
Er14     V22    9.64   1_554     S
Er14     V24    9.64   1_455     S
Er14     V26    9.64   1_545     S
Er14     V15    9.64   1_544     S
Er14     V18    9.64   1_545     S
V15     Er14    9.64   1_566     S
V15     V26    10.181   1_556     S
V15     V19    10.181   1_565     S
V15     V16    10.181   1_465     S
V15     V17    10.181   1_456     S
V15     V22    10.362   .     S
V15     V3    9.919   1_455     S
V15     V4    9.919   1_455     S
V15     V18    9.959   1_556     S
V16     Er14    9.64   1_656     S
V16     V22    10.181   1_655     S
V16     V20    10.181   1_556     S
V16     V15    10.181   1_645     S
V16     V17    10.181   1_546     S
V16     V24    10.362   .     S
V16     V4    9.919   1_545     S
V16     V2    9.919   1_545     S
V16     V19    9.959   1_655     S
V17     Er14    9.64   1_665     S
V17     V24    10.181   1_565     S
V17     V18    10.181   1_655     S
V17     V16    10.181   1_564     S
V17     V15    10.181   1_654     S
V17     V26    10.362   .     S
V17     V2    9.919   1_554     S
V17     V3    9.919   1_554     S
V17     V20    9.959   1_565     S
V18     Er14    9.64   1_565     S
V18     V24    10.181   1_465     S
V18     V23    10.181   1_565     S
V18     V26    10.181   .     S
V18     V17    10.181   1_455     S
V18     V21    10.362   .     S
V18     V9    9.919   1_455     S
V18     V4    9.919   1_455     S
V18     V15    9.959   1_554     S
V19     Er14    9.64   1_556     S
V19     V26    10.181   1_546     S
V19     V25    10.181   1_556     S
V19     V22    10.181   .     S
V19     V15    10.181   1_545     S
V19     V23    10.362   .     S
V19     V10    9.919   1_545     S
V19     V2    9.919   1_545     S
V19     V16    9.959   1_455     S
V20     Er14    9.64   1_655     S
V20     V22    10.181   1_654     S
V20     V21    10.181   1_655     S
V20     V24    10.181   .     S
V20     V16    10.181   1_554     S
V20     V25    10.362   .     S
V20     V8    9.919   1_554     S
V20     V3    9.919   1_554     S
V20     V17    9.959   1_545     S
V21     V20    10.181   1_455     S
V21     V25    10.181   .     S
V21     V23    10.181   .     S
V21     V24    10.181   1_455     S
V21     V9    9.919   1_455     S
V21     V7    9.919   1_455     S
V21     V22    9.959   1_554     S
V22     Er14    9.64   1_556     S
V22     V20    10.181   1_456     S
V22     V16    10.181   1_455     S
V22     V25    10.181   1_556     S
V22     V3    9.919   1_455     S
V22     V7    9.919   1_455     S
V22     V21    9.959   1_556     S
V23     V25    10.181   .     S
V23     V26    10.181   1_545     S
V23     V18    10.181   1_545     S
V23     V10    9.919   1_545     S
V23     V5    9.919   1_545     S
V23     V24    9.959   1_455     S
V24     Er14    9.64   1_655     S
V24     V17    10.181   1_545     S
V24     V21    10.181   1_655     S
V24     V18    10.181   1_645     S
V24     V4    9.919   1_545     S
V24     V5    9.919   1_545     S
V24     V23    9.959   1_655     S
V25     V19    10.181   1_554     S
V25     V22    10.181   1_554     S
V25     V8    9.919   1_554     S
V25     V6    9.919   1_554     S
V25     V26    9.959   1_545     S
V26     Er14    9.64   1_565     S
V26     V19    10.181   1_564     S
V26     V23    10.181   1_565     S
V26     V15    10.181   1_554     S
V26     V2    9.919   1_554     S
V26     V6    9.919   1_554     S
V26     V25    9.959   1_565     S
