data_lwha
_audit_creation_date              2020-02-04
_audit_creation_method            'Pymatgen'
_symmetry_space_group_name_H-M    'P1'
_symmetry_Int_Tables_number       1
loop_
_symmetry_equiv_pos_as_xyz
  x,y,z
_cell_length_a                    115.0656
_cell_length_b                    115.0656
_cell_length_c                    115.0656
_cell_angle_alpha                 90.0
_cell_angle_beta                 90.0
_cell_angle_gamma                 90.0
loop_
_atom_site_label
_atom_site_type_symbol
_atom_site_fract_x
_atom_site_fract_y
_atom_site_fract_z
Ti1     Ti     0.1043   0.4566   0.4566
Ti2     Ti     0.1043   0.4566   0.5434
Ti3     Ti     0.1043   0.5434   0.4566
Ti4     Ti     0.1043   0.5434   0.5434
Ti5     Ti     0.4566   0.8957   0.4566
Ti6     Ti     0.4566   0.8957   0.5434
Ti7     Ti     0.5434   0.8957   0.5434
Ti8     Ti     0.5434   0.8957   0.4566
Ti9     Ti     0.4566   0.1043   0.4566
Ti10     Ti     0.4566   0.1043   0.5434
Ti11     Ti     0.5434   0.1043   0.4566
Ti12     Ti     0.5434   0.1043   0.5434
Ti13     Ti     0.8957   0.4566   0.4566
Ti14     Ti     0.8957   0.4566   0.5434
Ti15     Ti     0.8957   0.5434   0.4566
Ti16     Ti     0.8957   0.5434   0.5434
Ti17     Ti     0.4566   0.4566   0.1043
Ti18     Ti     0.4566   0.5434   0.1043
Ti19     Ti     0.5434   0.5434   0.1043
Ti20     Ti     0.5434   0.4566   0.1043
Ti21     Ti     0.4566   0.4566   0.8957
Ti22     Ti     0.4566   0.5434   0.8957
Ti23     Ti     0.5434   0.5434   0.8957
Ti24     Ti     0.5434   0.4566   0.8957
Ti25     Ti     0.9566   0.6043   0.0434
Ti26     Ti     0.9566   0.6043   0.9566
Ti27     Ti     0.0434   0.6043   0.9566
Ti28     Ti     0.0434   0.6043   0.0434
Ti29     Ti     0.6043   0.0434   0.9566
Ti30     Ti     0.6043   0.9566   0.9566
Ti31     Ti     0.6043   0.9566   0.0434
Ti32     Ti     0.6043   0.0434   0.0434
Ti33     Ti     0.0434   0.3957   0.9566
Ti34     Ti     0.9566   0.3957   0.9566
Ti35     Ti     0.9566   0.3957   0.0434
Ti36     Ti     0.0434   0.3957   0.0434
Ti37     Ti     0.3957   0.9566   0.0434
Ti38     Ti     0.3957   0.9566   0.9566
Ti39     Ti     0.3957   0.0434   0.9566
Ti40     Ti     0.3957   0.0434   0.0434
Ti41     Ti     0.9566   0.9566   0.6043
Ti42     Ti     0.9566   0.0434   0.6043
Ti43     Ti     0.0434   0.9566   0.6043
Ti44     Ti     0.0434   0.0434   0.6043
Ce45     Ce     0.1472   0.5434   0.1472
Ce46     Ce     0.1472   0.4566   0.1472
Ce47     Ce     0.3528   0.6472   0.9566
Ce48     Ce     0.3528   0.6472   0.0434
Ce49     Ce     0.9566   0.6472   0.3528
Ce50     Ce     0.0434   0.6472   0.3528
S51     S     0.1646   0.6268   0.1646
Er52     Er     0.1049   0.6065   0.1049
Er53     Er     0.3951   0.8935   0.3951
S54     S     0.3354   0.8732   0.3354
Er55     Er     0.1065   0.6049   0.3951
S56     S     0.1268   0.6646   0.3354
Er57     Er     0.3951   0.6049   0.1065
S58     S     0.3354   0.6646   0.1268
Er59     Er     0.3935   0.8951   0.1049
S60     S     0.3732   0.8354   0.1646
V61     V     0.1827   0.7117   0.2883
V62     V     0.2883   0.7117   0.1827
V63     V     0.2117   0.6827   0.2117
V64     V     0.3173   0.7883   0.2117
V65     V     0.2117   0.7883   0.3173
V66     V     0.2883   0.8173   0.2883
Er67     Er     0.1049   0.8951   0.3935
S68     S     0.1646   0.8354   0.3732
Ce69     Ce     0.5434   0.1472   0.1472
Ce70     Ce     0.4566   0.1472   0.1472
Ce71     Ce     0.6472   0.3528   0.9566
Ce72     Ce     0.6472   0.3528   0.0434
Ce73     Ce     0.6472   0.9566   0.3528
Ce74     Ce     0.6472   0.0434   0.3528
S75     S     0.6268   0.1646   0.1646
Er76     Er     0.6065   0.1049   0.1049
Er77     Er     0.8935   0.3951   0.3951
S78     S     0.8732   0.3354   0.3354
Er79     Er     0.6049   0.1065   0.3951
S80     S     0.6646   0.1268   0.3354
Er81     Er     0.6049   0.3951   0.1065
S82     S     0.6646   0.3354   0.1268
Er83     Er     0.8951   0.3935   0.1049
S84     S     0.8354   0.3732   0.1646
V85     V     0.7117   0.1827   0.2883
V86     V     0.7117   0.2883   0.1827
V87     V     0.6827   0.2117   0.2117
V88     V     0.7883   0.3173   0.2117
V89     V     0.7883   0.2117   0.3173
V90     V     0.8173   0.2883   0.2883
Er91     Er     0.8951   0.1049   0.3935
S92     S     0.8354   0.1646   0.3732
Ce93     Ce     0.6472   0.9566   0.6472
Ce94     Ce     0.6472   0.0434   0.6472
Ce95     Ce     0.9566   0.6472   0.6472
Ce96     Ce     0.0434   0.6472   0.6472
Ce97     Ce     0.1472   0.8528   0.5434
Ce98     Ce     0.1472   0.8528   0.4566
Ce99     Ce     0.1472   0.5434   0.8528
Ce100     Ce     0.1472   0.4566   0.8528
Er101     Er     0.1049   0.6065   0.8951
S102     S     0.1646   0.6268   0.8354
Er103     Er     0.1049   0.8951   0.6065
S104     S     0.1646   0.8354   0.6268
Er105     Er     0.1065   0.6049   0.6049
S106     S     0.1268   0.6646   0.6646
Er107     Er     0.3951   0.8935   0.6049
S108     S     0.3354   0.8732   0.6646
Er109     Er     0.3951   0.6049   0.8935
S110     S     0.3354   0.6646   0.8732
V111     V     0.3173   0.7883   0.7883
V112     V     0.2883   0.8173   0.7117
V113     V     0.2117   0.7883   0.6827
V114     V     0.2883   0.7117   0.8173
V115     V     0.2117   0.6827   0.7883
V116     V     0.1827   0.7117   0.7117
Er117     Er     0.3935   0.8951   0.8951
S118     S     0.3732   0.8354   0.8354
Ce119     Ce     0.6472   0.6472   0.9566
Ce120     Ce     0.6472   0.6472   0.0434
Ce121     Ce     0.8528   0.1472   0.5434
Ce122     Ce     0.8528   0.1472   0.4566
Ce123     Ce     0.4566   0.1472   0.8528
Ce124     Ce     0.5434   0.1472   0.8528
Er125     Er     0.8951   0.1049   0.6065
S126     S     0.8354   0.1646   0.6268
Er127     Er     0.6065   0.1049   0.8951
S128     S     0.6268   0.1646   0.8354
Er129     Er     0.8935   0.3951   0.6049
S130     S     0.8732   0.3354   0.6646
Er131     Er     0.6049   0.1065   0.6049
S132     S     0.6646   0.1268   0.6646
Er133     Er     0.6049   0.3951   0.8935
S134     S     0.6646   0.3354   0.8732
V135     V     0.8173   0.2883   0.7117
V136     V     0.7883   0.2117   0.6827
V137     V     0.7117   0.2883   0.8173
V138     V     0.6827   0.2117   0.7883
V139     V     0.7117   0.1827   0.7117
V140     V     0.7883   0.3173   0.7883
Er141     Er     0.8951   0.3935   0.8951
S142     S     0.8354   0.3732   0.8354
Ce143     Ce     0.8528   0.8528   0.5434
Ce144     Ce     0.8528   0.8528   0.4566
Ce145     Ce     0.5434   0.8528   0.8528
Ce146     Ce     0.4566   0.8528   0.8528
Ce147     Ce     0.8528   0.4566   0.8528
Ce148     Ce     0.8528   0.5434   0.8528
Er149     Er     0.6065   0.8951   0.8951
S150     S     0.6268   0.8354   0.8354
Er151     Er     0.8951   0.8951   0.6065
S152     S     0.8354   0.8354   0.6268
Er153     Er     0.8951   0.6065   0.8951
S154     S     0.8354   0.6268   0.8354
Er155     Er     0.6049   0.8935   0.6049
S156     S     0.6646   0.8732   0.6646
Er157     Er     0.8935   0.6049   0.6049
S158     S     0.8732   0.6646   0.6646
V159     V     0.7883   0.7883   0.6827
V160     V     0.6827   0.7883   0.7883
V161     V     0.7883   0.6827   0.7883
V162     V     0.7117   0.7117   0.8173
V163     V     0.8173   0.7117   0.7117
V164     V     0.7117   0.8173   0.7117
Er165     Er     0.6049   0.6049   0.8935
S166     S     0.6646   0.6646   0.8732
Ce167     Ce     0.5434   0.8528   0.1472
Ce168     Ce     0.4566   0.8528   0.1472
Ce169     Ce     0.8528   0.5434   0.1472
Ce170     Ce     0.8528   0.4566   0.1472
Er171     Er     0.8951   0.6065   0.1049
S172     S     0.8354   0.6268   0.1646
Er173     Er     0.6065   0.8951   0.1049
S174     S     0.6268   0.8354   0.1646
Er175     Er     0.8935   0.6049   0.3951
S176     S     0.8732   0.6646   0.3354
Er177     Er     0.6049   0.8935   0.3951
S178     S     0.6646   0.8732   0.3354
Er179     Er     0.6049   0.6049   0.1065
S180     S     0.6646   0.6646   0.1268
V181     V     0.7883   0.7883   0.3173
V182     V     0.8173   0.7117   0.2883
V183     V     0.7883   0.6827   0.2117
V184     V     0.7117   0.8173   0.2883
V185     V     0.6827   0.7883   0.2117
V186     V     0.7117   0.7117   0.1827
Er187     Er     0.8951   0.8951   0.3935
S188     S     0.8354   0.8354   0.3732
Ce189     Ce     0.3528   0.3528   0.9566
Ce190     Ce     0.3528   0.3528   0.0434
Ce191     Ce     0.3528   0.9566   0.3528
Ce192     Ce     0.3528   0.0434   0.3528
Ce193     Ce     0.9566   0.3528   0.3528
Ce194     Ce     0.0434   0.3528   0.3528
S195     S     0.1268   0.3354   0.3354
Er196     Er     0.1065   0.3951   0.3951
S197     S     0.3354   0.1268   0.3354
Er198     Er     0.3951   0.1065   0.3951
S199     S     0.3354   0.3354   0.1268
Er200     Er     0.3951   0.3951   0.1065
Er201     Er     0.1049   0.3935   0.1049
S202     S     0.1646   0.3732   0.1646
Er203     Er     0.3935   0.1049   0.1049
S204     S     0.3732   0.1646   0.1646
V205     V     0.2883   0.1827   0.2883
V206     V     0.2883   0.2883   0.1827
V207     V     0.1827   0.2883   0.2883
V208     V     0.2117   0.2117   0.3173
V209     V     0.2117   0.3173   0.2117
V210     V     0.3173   0.2117   0.2117
Er211     Er     0.1049   0.1049   0.3935
S212     S     0.1646   0.1646   0.3732
Ce213     Ce     0.9566   0.3528   0.6472
Ce214     Ce     0.0434   0.3528   0.6472
Ce215     Ce     0.3528   0.9566   0.6472
Ce216     Ce     0.3528   0.0434   0.6472
Ce217     Ce     0.1472   0.1472   0.5434
Ce218     Ce     0.1472   0.1472   0.4566
S219     S     0.1646   0.1646   0.6268
Er220     Er     0.1049   0.1049   0.6065
Er221     Er     0.3951   0.3951   0.8935
S222     S     0.3354   0.3354   0.8732
Er223     Er     0.3951   0.1065   0.6049
S224     S     0.3354   0.1268   0.6646
Er225     Er     0.1065   0.3951   0.6049
S226     S     0.1268   0.3354   0.6646
Er227     Er     0.3935   0.1049   0.8951
S228     S     0.3732   0.1646   0.8354
V229     V     0.2883   0.1827   0.7117
V230     V     0.1827   0.2883   0.7117
V231     V     0.2117   0.2117   0.6827
V232     V     0.2117   0.3173   0.7883
V233     V     0.3173   0.2117   0.7883
V234     V     0.2883   0.2883   0.8173
Er235     Er     0.1049   0.3935   0.8951
S236     S     0.1646   0.3732   0.8354
Ti237     Ti     0.9566   0.9566   0.3957
Ti238     Ti     0.9566   0.0434   0.3957
Ti239     Ti     0.0434   0.9566   0.3957
Ti240     Ti     0.0434   0.0434   0.3957
loop_
_geom_bond_atom_site_label_1
_geom_bond_atom_site_label_2
_geom_bond_distance
_geom_bond_site_symmetry_2
_ccdc_geom_bond_type
Ti1     Ti2    9.999   .     S
Ti1     Ti3    9.999   .     S
Ti1     Er196    10.001   .     S
Ti2     Ti4    9.999   .     S
Ti2     Er225    10.001   .     S
Ti3     Ti4    9.999   .     S
Ti3     Er55    10.001   .     S
Ti4     Er105    10.001   .     S
Ti5     Ti6    9.999   .     S
Ti5     Ti8    9.999   .     S
Ti5     Er53    10.001   .     S
Ti6     Ti7    9.999   .     S
Ti6     Er107    10.001   .     S
Ti7     Ti8    9.999   .     S
Ti7     Er155    10.001   .     S
Ti8     Er177    10.001   .     S
Ti9     Ti10    9.999   .     S
Ti9     Ti11    9.999   .     S
Ti9     Er198    10.001   .     S
Ti10     Ti12    9.999   .     S
Ti10     Er223    10.001   .     S
Ti11     Ti12    9.999   .     S
Ti11     Er79    10.001   .     S
Ti12     Er131    10.001   .     S
Ti13     Ti14    9.999   .     S
Ti13     Ti15    9.999   .     S
Ti13     Er77    10.001   .     S
Ti14     Ti16    9.999   .     S
Ti14     Er129    10.001   .     S
Ti15     Ti16    9.999   .     S
Ti15     Er175    10.001   .     S
Ti16     Er157    10.001   .     S
Ti17     Ti18    9.999   .     S
Ti17     Ti20    9.999   .     S
Ti17     Er200    10.001   .     S
Ti18     Ti19    9.999   .     S
Ti18     Er57    10.001   .     S
Ti19     Ti20    9.999   .     S
Ti19     Er179    10.001   .     S
Ti20     Er81    10.001   .     S
Ti21     Ti22    9.999   .     S
Ti21     Ti24    9.999   .     S
Ti21     Er221    10.001   .     S
Ti22     Ti23    9.999   .     S
Ti22     Er109    10.001   .     S
Ti23     Ti24    9.999   .     S
Ti23     Er165    10.001   .     S
Ti24     Er133    10.001   .     S
Ti25     Ti28    9.999   1_655     S
Ti25     Ti26    9.999   1_554     S
Ti25     Er171    10.001   .     S
Ti26     Ti27    9.999   1_655     S
Ti26     Ti25    9.999   1_556     S
Ti26     Er153    10.001   .     S
Ti27     Ti26    9.999   1_455     S
Ti27     Ti28    9.999   1_556     S
Ti27     Er101    10.001   .     S
Ti28     Ti25    9.999   1_455     S
Ti28     Ti27    9.999   1_554     S
Ti28     Er52    10.001   .     S
Ti29     Ti32    9.999   1_556     S
Ti29     Ti30    9.999   1_545     S
Ti29     Er127    10.001   .     S
Ti30     Ti31    9.999   1_556     S
Ti30     Ti29    9.999   1_565     S
Ti30     Er149    10.001   .     S
Ti31     Ti30    9.999   1_554     S
Ti31     Ti32    9.999   1_565     S
Ti31     Er173    10.001   .     S
Ti32     Ti29    9.999   1_554     S
Ti32     Ti31    9.999   1_545     S
Ti32     Er76    10.001   .     S
Ti33     Ti36    9.999   1_556     S
Ti33     Ti34    9.999   1_455     S
Ti33     Er235    10.001   .     S
Ti34     Ti35    9.999   1_556     S
Ti34     Ti33    9.999   1_655     S
Ti34     Er141    10.001   .     S
Ti35     Ti34    9.999   1_554     S
Ti35     Ti36    9.999   1_655     S
Ti35     Er83    10.001   .     S
Ti36     Ti33    9.999   1_554     S
Ti36     Ti35    9.999   1_455     S
Ti36     Er201    10.001   .     S
Ti37     Ti40    9.999   1_565     S
Ti37     Ti38    9.999   1_554     S
Ti37     Er59    10.001   .     S
Ti38     Ti39    9.999   1_565     S
Ti38     Ti37    9.999   1_556     S
Ti38     Er117    10.001   .     S
Ti39     Ti38    9.999   1_545     S
Ti39     Ti40    9.999   1_556     S
Ti39     Er227    10.001   .     S
Ti40     Ti37    9.999   1_545     S
Ti40     Ti39    9.999   1_554     S
Ti40     Er203    10.001   .     S
Ti41     Ti42    9.999   1_565     S
Ti41     Ti43    9.999   1_655     S
Ti41     Er151    10.001   .     S
Ti42     Ti41    9.999   1_545     S
Ti42     Ti44    9.999   1_655     S
Ti42     Er125    10.001   .     S
Ti43     Ti41    9.999   1_455     S
Ti43     Ti44    9.999   1_565     S
Ti43     Er103    10.001   .     S
Ti44     Ti42    9.999   1_455     S
Ti44     Ti43    9.999   1_545     S
Ti44     Er220    10.001   .     S
Ce45     Ce46    9.999   .     S
Ce45     Er52    10.0   .     S
Ce45     S51    10.0   .     S
Ce46     Er201    10.0   .     S
Ce46     S202    10.0   .     S
Ce47     Ce48    9.999   1_556     S
Ce47     Er109    10.0   .     S
Ce47     S110    10.0   .     S
Ce48     Ce47    9.999   1_554     S
Ce48     Er57    10.0   .     S
Ce48     S58    10.0   .     S
Ce49     Ce50    9.999   1_655     S
Ce49     Er175    10.0   .     S
Ce49     S176    10.0   .     S
Ce50     Ce49    9.999   1_455     S
Ce50     Er55    10.0   .     S
Ce50     S56    10.0   .     S
S51     V63    10.0   .     S
S51     Er52    10.0   .     S
Er53     S54    10.0   .     S
Er53     Ce191    10.0   .     S
S54     Ce191    10.0   .     S
S54     V66    10.0   .     S
Er55     S56    10.0   .     S
S56     V61    10.0   .     S
Er57     S58    10.0   .     S
S58     V62    10.0   .     S
Er59     S60    10.0   .     S
Er59     Ce168    10.0   .     S
S60     Ce168    10.0   .     S
S60     V64    10.0   .     S
V61     V63    10.0   .     S
V61     V65    10.0   .     S
V62     V63    10.0   .     S
V62     V64    10.0   .     S
V64     V66    10.0   .     S
V65     V66    10.0   .     S
V65     S68    10.0   .     S
Er67     S68    10.0   .     S
Er67     Ce98    10.0   .     S
Er67     Ti239    10.001   .     S
S68     Ce98    10.0   .     S
Ce69     Ce70    9.999   .     S
Ce69     Er76    10.0   .     S
Ce69     S75    10.0   .     S
Ce70     Er203    10.0   .     S
Ce70     S204    10.0   .     S
Ce71     Ce72    9.999   1_556     S
Ce71     Er133    10.0   .     S
Ce71     S134    10.0   .     S
Ce72     Ce71    9.999   1_554     S
Ce72     Er81    10.0   .     S
Ce72     S82    10.0   .     S
Ce73     Ce74    9.999   1_565     S
Ce73     Er177    10.0   .     S
Ce73     S178    10.0   .     S
Ce74     Ce73    9.999   1_545     S
Ce74     Er79    10.0   .     S
Ce74     S80    10.0   .     S
S75     V87    10.0   .     S
S75     Er76    10.0   .     S
Er77     S78    10.0   .     S
Er77     Ce193    10.0   .     S
S78     Ce193    10.0   .     S
S78     V90    10.0   .     S
Er79     S80    10.0   .     S
S80     V85    10.0   .     S
Er81     S82    10.0   .     S
S82     V86    10.0   .     S
Er83     S84    10.0   .     S
Er83     Ce170    10.0   .     S
S84     Ce170    10.0   .     S
S84     V88    10.0   .     S
V85     V87    10.0   .     S
V85     V89    10.0   .     S
V86     V87    10.0   .     S
V86     V88    10.0   .     S
V88     V90    10.0   .     S
V89     V90    10.0   .     S
V89     S92    10.0   .     S
Er91     S92    10.0   .     S
Er91     Ce122    10.0   .     S
Er91     Ti238    10.001   .     S
S92     Ce122    10.0   .     S
Ce93     Ce94    9.999   1_565     S
Ce93     Er155    10.0   .     S
Ce93     S156    10.0   .     S
Ce94     Ce93    9.999   1_545     S
Ce94     Er131    10.0   .     S
Ce94     S132    10.0   .     S
Ce95     Ce96    9.999   1_655     S
Ce95     Er157    10.0   .     S
Ce95     S158    10.0   .     S
Ce96     Ce95    9.999   1_455     S
Ce96     Er105    10.0   .     S
Ce96     S106    10.0   .     S
Ce97     Ce98    9.999   .     S
Ce97     Er103    10.0   .     S
Ce97     S104    10.0   .     S
Ce99     Ce100    9.999   .     S
Ce99     Er101    10.0   .     S
Ce99     S102    10.0   .     S
Ce100     Er235    10.0   .     S
Ce100     S236    10.0   .     S
Er101     S102    10.0   .     S
S102     V115    10.0   .     S
Er103     S104    10.0   .     S
S104     V113    10.0   .     S
Er105     S106    10.0   .     S
S106     V116    10.0   .     S
Er107     S108    10.0   .     S
Er107     Ce215    10.0   .     S
S108     Ce215    10.0   .     S
S108     V112    10.0   .     S
Er109     S110    10.0   .     S
S110     V114    10.0   .     S
V111     V112    10.0   .     S
V111     V114    10.0   .     S
V111     S118    10.0   .     S
V112     V113    10.0   .     S
V113     V116    10.0   .     S
V114     V115    10.0   .     S
V115     V116    10.0   .     S
Er117     S118    10.0   .     S
Er117     Ce146    10.0   .     S
S118     Ce146    10.0   .     S
Ce119     Ce120    9.999   1_556     S
Ce119     Er165    10.0   .     S
Ce119     S166    10.0   .     S
Ce120     Ce119    9.999   1_554     S
Ce120     Er179    10.0   .     S
Ce120     S180    10.0   .     S
Ce121     Ce122    9.999   .     S
Ce121     Er125    10.0   .     S
Ce121     S126    10.0   .     S
Ce123     Ce124    9.999   .     S
Ce123     Er227    10.0   .     S
Ce123     S228    10.0   .     S
Ce124     Er127    10.0   .     S
Ce124     S128    10.0   .     S
Er125     S126    10.0   .     S
S126     V136    10.0   .     S
Er127     S128    10.0   .     S
S128     V138    10.0   .     S
Er129     S130    10.0   .     S
Er129     Ce213    10.0   .     S
S130     Ce213    10.0   .     S
S130     V135    10.0   .     S
Er131     S132    10.0   .     S
S132     V139    10.0   .     S
Er133     S134    10.0   .     S
S134     V137    10.0   .     S
V135     V136    10.0   .     S
V135     V140    10.0   .     S
V136     V139    10.0   .     S
V137     V138    10.0   .     S
V137     V140    10.0   .     S
V138     V139    10.0   .     S
V140     S142    10.0   .     S
Er141     S142    10.0   .     S
Er141     Ce147    10.0   .     S
S142     Ce147    10.0   .     S
Ce143     Ce144    9.999   .     S
Ce143     Er151    10.0   .     S
Ce143     S152    10.0   .     S
Ce144     Er187    10.0   .     S
Ce144     S188    10.0   .     S
Ce145     Ce146    9.999   .     S
Ce145     Er149    10.0   .     S
Ce145     S150    10.0   .     S
Ce147     Ce148    9.999   .     S
Ce148     Er153    10.0   .     S
Ce148     S154    10.0   .     S
Er149     S150    10.0   .     S
S150     V160    10.0   .     S
Er151     S152    10.0   .     S
S152     V159    10.0   .     S
Er153     S154    10.0   .     S
S154     V161    10.0   .     S
Er155     S156    10.0   .     S
S156     V164    10.0   .     S
Er157     S158    10.0   .     S
S158     V163    10.0   .     S
V159     V164    10.0   .     S
V159     V163    10.0   .     S
V160     V162    10.0   .     S
V160     V164    10.0   .     S
V161     V163    10.0   .     S
V161     V162    10.0   .     S
V162     S166    10.0   .     S
Er165     S166    10.0   .     S
Ce167     Ce168    9.999   .     S
Ce167     Er173    10.0   .     S
Ce167     S174    10.0   .     S
Ce169     Ce170    9.999   .     S
Ce169     Er171    10.0   .     S
Ce169     S172    10.0   .     S
Er171     S172    10.0   .     S
S172     V183    10.0   .     S
Er173     S174    10.0   .     S
S174     V185    10.0   .     S
Er175     S176    10.0   .     S
S176     V182    10.0   .     S
Er177     S178    10.0   .     S
S178     V184    10.0   .     S
Er179     S180    10.0   .     S
S180     V186    10.0   .     S
V181     V182    10.0   .     S
V181     V184    10.0   .     S
V181     S188    10.0   .     S
V182     V183    10.0   .     S
V183     V186    10.0   .     S
V184     V185    10.0   .     S
V185     V186    10.0   .     S
Er187     S188    10.0   .     S
Er187     Ti237    10.001   .     S
Ce189     Ce190    9.999   1_556     S
Ce189     Er221    10.0   .     S
Ce189     S222    10.0   .     S
Ce190     Ce189    9.999   1_554     S
Ce190     Er200    10.0   .     S
Ce190     S199    10.0   .     S
Ce191     Ce192    9.999   1_565     S
Ce192     Ce191    9.999   1_545     S
Ce192     Er198    10.0   .     S
Ce192     S197    10.0   .     S
Ce193     Ce194    9.999   1_655     S
Ce194     Ce193    9.999   1_455     S
Ce194     Er196    10.0   .     S
Ce194     S195    10.0   .     S
S195     V207    10.0   .     S
S195     Er196    10.0   .     S
S197     V205    10.0   .     S
S197     Er198    10.0   .     S
S199     V206    10.0   .     S
S199     Er200    10.0   .     S
Er201     S202    10.0   .     S
S202     V209    10.0   .     S
Er203     S204    10.0   .     S
S204     V210    10.0   .     S
V205     V210    10.0   .     S
V205     V208    10.0   .     S
V206     V209    10.0   .     S
V206     V210    10.0   .     S
V207     V208    10.0   .     S
V207     V209    10.0   .     S
V208     S212    10.0   .     S
Er211     S212    10.0   .     S
Er211     Ce218    10.0   .     S
Er211     Ti240    10.001   .     S
S212     Ce218    10.0   .     S
Ce213     Ce214    9.999   1_655     S
Ce214     Ce213    9.999   1_455     S
Ce214     Er225    10.0   .     S
Ce214     S226    10.0   .     S
Ce215     Ce216    9.999   1_565     S
Ce216     Ce215    9.999   1_545     S
Ce216     Er223    10.0   .     S
Ce216     S224    10.0   .     S
Ce217     Ce218    9.999   .     S
Ce217     Er220    10.0   .     S
Ce217     S219    10.0   .     S
S219     V231    10.0   .     S
S219     Er220    10.0   .     S
Er221     S222    10.0   .     S
S222     V234    10.0   .     S
Er223     S224    10.0   .     S
S224     V229    10.0   .     S
Er225     S226    10.0   .     S
S226     V230    10.0   .     S
Er227     S228    10.0   .     S
S228     V233    10.0   .     S
V229     V231    10.0   .     S
V229     V233    10.0   .     S
V230     V231    10.0   .     S
V230     V232    10.0   .     S
V232     V234    10.0   .     S
V232     S236    10.0   .     S
V233     V234    10.0   .     S
Er235     S236    10.0   .     S
Ti237     Ti238    9.999   1_565     S
Ti237     Ti239    9.999   1_655     S
Ti238     Ti237    9.999   1_545     S
Ti238     Ti240    9.999   1_655     S
Ti239     Ti237    9.999   1_455     S
Ti239     Ti240    9.999   1_565     S
Ti240     Ti238    9.999   1_455     S
Ti240     Ti239    9.999   1_545     S
