data_maw
_audit_creation_date              2020-02-04
_audit_creation_method            'Pymatgen'
_symmetry_space_group_name_H-M    'P1'
_symmetry_Int_Tables_number       1
loop_
_symmetry_equiv_pos_as_xyz
  x,y,z
_cell_length_a                    48.2888
_cell_length_b                    48.2888
_cell_length_c                    48.2888
_cell_angle_alpha                 90.0
_cell_angle_beta                 90.0
_cell_angle_gamma                 90.0
loop_
_atom_site_label
_atom_site_type_symbol
_atom_site_fract_x
_atom_site_fract_y
_atom_site_fract_z
Er1     Er     0.6467   0.1465   0.8535
Er2     Er     0.8535   0.1465   0.6467
Er3     Er     0.8535   0.3533   0.8535
Er4     Er     0.6465   0.3535   0.8533
Er5     Er     0.8533   0.3535   0.6465
Er6     Er     0.6465   0.1467   0.6465
Er7     Er     0.1465   0.3533   0.8535
Er8     Er     0.1465   0.1465   0.6467
Er9     Er     0.3533   0.1465   0.8535
Er10     Er     0.3535   0.3535   0.8533
Er11     Er     0.3535   0.1467   0.6465
Er12     Er     0.1467   0.3535   0.6465
Er13     Er     0.3533   0.8535   0.8535
Er14     Er     0.1465   0.8535   0.6467
Er15     Er     0.1465   0.6467   0.8535
Er16     Er     0.3535   0.6465   0.8533
Er17     Er     0.1467   0.6465   0.6465
Er18     Er     0.3535   0.8533   0.6465
Er19     Er     0.8535   0.8535   0.6467
Er20     Er     0.6467   0.8535   0.8535
Er21     Er     0.8535   0.6467   0.8535
Er22     Er     0.8533   0.6465   0.6465
Er23     Er     0.6465   0.6465   0.8533
Er24     Er     0.6465   0.8533   0.6465
Er25     Er     0.1465   0.6467   0.1465
Er26     Er     0.1465   0.8535   0.3533
Er27     Er     0.3533   0.8535   0.1465
Er28     Er     0.3535   0.6465   0.1467
Er29     Er     0.3535   0.8533   0.3535
Er30     Er     0.1467   0.6465   0.3535
Er31     Er     0.6467   0.8535   0.1465
Er32     Er     0.8535   0.8535   0.3533
Er33     Er     0.8535   0.6467   0.1465
Er34     Er     0.6465   0.6465   0.1467
Er35     Er     0.8533   0.6465   0.3535
Er36     Er     0.6465   0.8533   0.3535
Er37     Er     0.8535   0.3533   0.1465
Er38     Er     0.8535   0.1465   0.3533
Er39     Er     0.6467   0.1465   0.1465
Er40     Er     0.6465   0.3535   0.1467
Er41     Er     0.6465   0.1467   0.3535
Er42     Er     0.8533   0.3535   0.3535
Er43     Er     0.1465   0.3533   0.1465
Er44     Er     0.3533   0.1465   0.1465
Er45     Er     0.1465   0.1465   0.3533
Er46     Er     0.3535   0.1467   0.3535
Er47     Er     0.1467   0.3535   0.3535
Er48     Er     0.3535   0.3535   0.1467
V49     V     0.5   0.5   0.1468
V50     V     0.1468   0.5   0.5
V51     V     0.5   0.1468   0.5
V52     V     0.8532   0.5   0.5
V53     V     0.5   0.8532   0.5
V54     V     0.5   0.5   0.8532
V55     V     0.0   0.0   0.3532
V56     V     0.0   0.0   0.6468
V57     V     0.3532   0.0   0.0
V58     V     0.0   0.3532   0.0
V59     V     0.6468   0.0   0.0
V60     V     0.0   0.6468   0.0
loop_
_geom_bond_atom_site_label_1
_geom_bond_atom_site_label_2
_geom_bond_distance
_geom_bond_site_symmetry_2
_ccdc_geom_bond_type
Er1     Er6    9.995   .     S
Er1     Er4    9.995   .     S
Er1     V59    10.005   1_556     S
Er2     Er6    9.995   .     S
Er2     Er5    9.995   .     S
Er2     V56    10.005   1_655     S
Er3     Er4    9.995   .     S
Er3     Er5    9.995   .     S
Er3     V58    10.005   1_656     S
Er4     V54    10.005   .     S
Er5     V52    10.005   .     S
Er6     V51    10.005   .     S
Er7     Er12    9.995   .     S
Er7     Er10    9.995   .     S
Er7     V58    10.005   1_556     S
Er8     Er11    9.995   .     S
Er8     Er12    9.995   .     S
Er8     V56    10.005   .     S
Er9     Er11    9.995   .     S
Er9     Er10    9.995   .     S
Er9     V57    10.005   1_556     S
Er10     V54    10.005   .     S
Er11     V51    10.005   .     S
Er12     V50    10.005   .     S
Er13     Er18    9.995   .     S
Er13     Er16    9.995   .     S
Er13     V57    10.005   1_566     S
Er14     Er17    9.995   .     S
Er14     Er18    9.995   .     S
Er14     V56    10.005   1_565     S
Er15     Er17    9.995   .     S
Er15     Er16    9.995   .     S
Er15     V60    10.005   1_556     S
Er16     V54    10.005   .     S
Er17     V50    10.005   .     S
Er18     V53    10.005   .     S
Er19     Er24    9.995   .     S
Er19     Er22    9.995   .     S
Er19     V56    10.005   1_665     S
Er20     Er23    9.995   .     S
Er20     Er24    9.995   .     S
Er20     V59    10.005   1_566     S
Er21     Er22    9.995   .     S
Er21     Er23    9.995   .     S
Er21     V60    10.005   1_656     S
Er22     V52    10.005   .     S
Er23     V54    10.005   .     S
Er24     V53    10.005   .     S
Er25     Er30    9.995   .     S
Er25     Er28    9.995   .     S
Er25     V60    10.005   .     S
Er26     Er30    9.995   .     S
Er26     Er29    9.995   .     S
Er26     V55    10.005   1_565     S
Er27     Er28    9.995   .     S
Er27     Er29    9.995   .     S
Er27     V57    10.005   1_565     S
Er28     V49    10.005   .     S
Er29     V53    10.005   .     S
Er30     V50    10.005   .     S
Er31     Er34    9.995   .     S
Er31     Er36    9.995   .     S
Er31     V59    10.005   1_565     S
Er32     Er35    9.995   .     S
Er32     Er36    9.995   .     S
Er32     V55    10.005   1_665     S
Er33     Er34    9.995   .     S
Er33     Er35    9.995   .     S
Er33     V60    10.005   1_655     S
Er34     V49    10.005   .     S
Er35     V52    10.005   .     S
Er36     V53    10.005   .     S
Er37     Er40    9.995   .     S
Er37     Er42    9.995   .     S
Er37     V58    10.005   1_655     S
Er38     Er41    9.995   .     S
Er38     Er42    9.995   .     S
Er38     V55    10.005   1_655     S
Er39     Er40    9.995   .     S
Er39     Er41    9.995   .     S
Er39     V59    10.005   .     S
Er40     V49    10.005   .     S
Er41     V51    10.005   .     S
Er42     V52    10.005   .     S
Er43     Er48    9.995   .     S
Er43     Er47    9.995   .     S
Er43     V58    10.005   .     S
Er44     Er46    9.995   .     S
Er44     Er48    9.995   .     S
Er44     V57    10.005   .     S
Er45     Er47    9.995   .     S
Er45     Er46    9.995   .     S
Er45     V55    10.005   .     S
Er46     V51    10.005   .     S
Er47     V50    10.005   .     S
Er48     V49    10.005   .     S
V55     Er26    10.005   1_545     S
V55     Er32    10.005   1_445     S
V55     Er38    10.005   1_455     S
V56     Er2    10.005   1_455     S
V56     Er14    10.005   1_545     S
V56     Er19    10.005   1_445     S
V57     Er9    10.005   1_554     S
V57     Er13    10.005   1_544     S
V57     Er27    10.005   1_545     S
V58     Er3    10.005   1_454     S
V58     Er7    10.005   1_554     S
V58     Er37    10.005   1_455     S
V59     Er1    10.005   1_554     S
V59     Er20    10.005   1_544     S
V59     Er31    10.005   1_545     S
V60     Er15    10.005   1_554     S
V60     Er21    10.005   1_454     S
V60     Er33    10.005   1_455     S
