data_mbc
_audit_creation_date              2020-02-04
_audit_creation_method            'Pymatgen'
_symmetry_space_group_name_H-M    'P1'
_symmetry_Int_Tables_number       1
loop_
_symmetry_equiv_pos_as_xyz
  x,y,z
_cell_length_a                    20.0
_cell_length_b                    59.7473
_cell_length_c                    19.9998
_cell_angle_alpha                 90.0
_cell_angle_beta                 90.0
_cell_angle_gamma                 90.0
loop_
_atom_site_label
_atom_site_type_symbol
_atom_site_fract_x
_atom_site_fract_y
_atom_site_fract_z
V1     V     0.25   0.8092   0.375
V2     V     0.25   0.8092   0.875
V3     V     0.75   0.8092   0.375
V4     V     0.75   0.8092   0.875
V5     V     0.0   0.6908   0.125
V6     V     0.0   0.6908   0.625
V7     V     0.5   0.6908   0.125
V8     V     0.5   0.6908   0.625
Er9     Er     0.0   0.0725   0.375
Er10     Er     0.0   0.0725   0.875
Er11     Er     0.5   0.0725   0.375
Er12     Er     0.5   0.0725   0.875
Er13     Er     0.0   0.9275   0.125
Er14     Er     0.0   0.9275   0.625
Er15     Er     0.5   0.9275   0.125
Er16     Er     0.5   0.9275   0.625
V17     V     0.0   0.3092   0.375
V18     V     0.0   0.3092   0.875
V19     V     0.5   0.3092   0.375
V20     V     0.5   0.3092   0.875
V21     V     0.25   0.1908   0.125
V22     V     0.25   0.1908   0.625
V23     V     0.75   0.1908   0.125
V24     V     0.75   0.1908   0.625
Er25     Er     0.25   0.5725   0.375
Er26     Er     0.25   0.5725   0.875
Er27     Er     0.75   0.5725   0.375
Er28     Er     0.75   0.5725   0.875
Er29     Er     0.25   0.4275   0.125
Er30     Er     0.25   0.4275   0.625
Er31     Er     0.75   0.4275   0.125
Er32     Er     0.75   0.4275   0.625
loop_
_geom_bond_atom_site_label_1
_geom_bond_atom_site_label_2
_geom_bond_distance
_geom_bond_site_symmetry_2
_ccdc_geom_bond_type
V1     V6    10.0   .     S
V1     V7    10.0   .     S
V1     V5    10.0   .     S
V1     V8    10.0   .     S
V1     V2    10.0   1_554     S
V1     V2    10.0   .     S
V1     V3    10.0   1_455     S
V1     V3    10.0   .     S
V1     Er13    10.0   .     S
V1     Er14    10.0   .     S
V1     Er16    10.0   .     S
V1     Er15    10.0   .     S
V2     V5    10.0   1_556     S
V2     V8    10.0   .     S
V2     V6    10.0   .     S
V2     V7    10.0   1_556     S
V2     V1    10.0   1_556     S
V2     V4    10.0   1_455     S
V2     V4    10.0   .     S
V2     Er14    10.0   .     S
V2     Er13    10.0   1_556     S
V2     Er15    10.0   1_556     S
V2     Er16    10.0   .     S
V3     V8    10.0   .     S
V3     V5    10.0   1_655     S
V3     V7    10.0   .     S
V3     V6    10.0   1_655     S
V3     V4    10.0   1_554     S
V3     V4    10.0   .     S
V3     V1    10.0   1_655     S
V3     Er15    10.0   .     S
V3     Er16    10.0   .     S
V3     Er14    10.0   1_655     S
V3     Er13    10.0   1_655     S
V4     V7    10.0   1_556     S
V4     V6    10.0   1_655     S
V4     V8    10.0   .     S
V4     V5    10.0   1_656     S
V4     V3    10.0   1_556     S
V4     V2    10.0   1_655     S
V4     Er16    10.0   .     S
V4     Er15    10.0   1_556     S
V4     Er13    10.0   1_656     S
V4     Er14    10.0   1_655     S
V5     V2    10.0   1_554     S
V5     V3    10.0   1_455     S
V5     V4    10.0   1_454     S
V5     V6    10.0   .     S
V5     V6    10.0   1_554     S
V5     V7    10.0   .     S
V5     V7    10.0   1_455     S
V5     Er26    10.0   1_554     S
V5     Er25    10.0   .     S
V5     Er27    10.0   1_455     S
V5     Er28    10.0   1_454     S
V6     V4    10.0   1_455     S
V6     V3    10.0   1_455     S
V6     V5    10.0   1_556     S
V6     V8    10.0   .     S
V6     V8    10.0   1_455     S
V6     Er25    10.0   .     S
V6     Er26    10.0   .     S
V6     Er28    10.0   1_455     S
V6     Er27    10.0   1_455     S
V7     V4    10.0   1_554     S
V7     V2    10.0   1_554     S
V7     V8    10.0   .     S
V7     V8    10.0   1_554     S
V7     V5    10.0   1_655     S
V7     Er28    10.0   1_554     S
V7     Er27    10.0   .     S
V7     Er25    10.0   .     S
V7     Er26    10.0   1_554     S
V8     V7    10.0   1_556     S
V8     V6    10.0   1_655     S
V8     Er27    10.0   .     S
V8     Er28    10.0   .     S
V8     Er26    10.0   .     S
V8     Er25    10.0   .     S
Er9     Er13    10.0   1_545     S
Er9     Er14    10.0   1_545     S
Er9     Er10    10.0   1_554     S
Er9     Er10    10.0   .     S
Er9     Er11    10.0   .     S
Er9     Er11    10.0   1_455     S
Er9     V24    10.0   1_455     S
Er9     V23    10.0   1_455     S
Er9     V21    10.0   .     S
Er9     V22    10.0   .     S
Er10     Er14    10.0   1_545     S
Er10     Er13    10.0   1_546     S
Er10     Er9    10.0   1_556     S
Er10     Er12    10.0   .     S
Er10     Er12    10.0   1_455     S
Er10     V23    10.0   1_456     S
Er10     V24    10.0   1_455     S
Er10     V22    10.0   .     S
Er10     V21    10.0   1_556     S
Er11     Er15    10.0   1_545     S
Er11     Er16    10.0   1_545     S
Er11     Er12    10.0   1_554     S
Er11     Er12    10.0   .     S
Er11     Er9    10.0   1_655     S
Er11     V22    10.0   .     S
Er11     V21    10.0   .     S
Er11     V23    10.0   .     S
Er11     V24    10.0   .     S
Er12     Er16    10.0   1_545     S
Er12     Er15    10.0   1_546     S
Er12     Er11    10.0   1_556     S
Er12     Er10    10.0   1_655     S
Er12     V21    10.0   1_556     S
Er12     V22    10.0   .     S
Er12     V24    10.0   .     S
Er12     V23    10.0   1_556     S
Er13     Er9    10.0   1_565     S
Er13     Er10    10.0   1_564     S
Er13     Er14    10.0   .     S
Er13     Er14    10.0   1_554     S
Er13     Er15    10.0   .     S
Er13     Er15    10.0   1_455     S
Er13     V2    10.0   1_554     S
Er13     V4    10.0   1_454     S
Er13     V3    10.0   1_455     S
Er14     Er10    10.0   1_565     S
Er14     Er9    10.0   1_565     S
Er14     Er13    10.0   1_556     S
Er14     Er16    10.0   .     S
Er14     Er16    10.0   1_455     S
Er14     V3    10.0   1_455     S
Er14     V4    10.0   1_455     S
Er15     Er11    10.0   1_565     S
Er15     Er12    10.0   1_564     S
Er15     Er16    10.0   .     S
Er15     Er16    10.0   1_554     S
Er15     Er13    10.0   1_655     S
Er15     V4    10.0   1_554     S
Er15     V2    10.0   1_554     S
Er16     Er12    10.0   1_565     S
Er16     Er11    10.0   1_565     S
Er16     Er15    10.0   1_556     S
Er16     Er14    10.0   1_655     S
V17     V23    10.0   1_455     S
V17     V22    10.0   .     S
V17     V24    10.0   1_455     S
V17     V21    10.0   .     S
V17     V18    10.0   1_554     S
V17     V18    10.0   .     S
V17     V19    10.0   .     S
V17     V19    10.0   1_455     S
V17     Er31    10.0   1_455     S
V17     Er32    10.0   1_455     S
V17     Er30    10.0   .     S
V17     Er29    10.0   .     S
V18     V24    10.0   1_455     S
V18     V21    10.0   1_556     S
V18     V23    10.0   1_456     S
V18     V22    10.0   .     S
V18     V17    10.0   1_556     S
V18     V20    10.0   .     S
V18     V20    10.0   1_455     S
V18     Er32    10.0   1_455     S
V18     Er31    10.0   1_456     S
V18     Er29    10.0   1_556     S
V18     Er30    10.0   .     S
V19     V21    10.0   .     S
V19     V24    10.0   .     S
V19     V22    10.0   .     S
V19     V23    10.0   .     S
V19     V20    10.0   1_554     S
V19     V20    10.0   .     S
V19     V17    10.0   1_655     S
V19     Er29    10.0   .     S
V19     Er30    10.0   .     S
V19     Er32    10.0   .     S
V19     Er31    10.0   .     S
V20     V22    10.0   .     S
V20     V23    10.0   1_556     S
V20     V21    10.0   1_556     S
V20     V24    10.0   .     S
V20     V19    10.0   1_556     S
V20     V18    10.0   1_655     S
V20     Er30    10.0   .     S
V20     Er29    10.0   1_556     S
V20     Er31    10.0   1_556     S
V20     Er32    10.0   .     S
V21     V18    10.0   1_554     S
V21     V20    10.0   1_554     S
V21     V22    10.0   .     S
V21     V22    10.0   1_554     S
V21     V23    10.0   1_455     S
V21     V23    10.0   .     S
V21     Er12    10.0   1_554     S
V21     Er10    10.0   1_554     S
V22     V21    10.0   1_556     S
V22     V24    10.0   1_455     S
V22     V24    10.0   .     S
V23     V17    10.0   1_655     S
V23     V20    10.0   1_554     S
V23     V18    10.0   1_654     S
V23     V24    10.0   .     S
V23     V24    10.0   1_554     S
V23     V21    10.0   1_655     S
V23     Er10    10.0   1_654     S
V23     Er9    10.0   1_655     S
V23     Er12    10.0   1_554     S
V24     V18    10.0   1_655     S
V24     V17    10.0   1_655     S
V24     V23    10.0   1_556     S
V24     V22    10.0   1_655     S
V24     Er9    10.0   1_655     S
V24     Er10    10.0   1_655     S
Er25     Er29    10.0   .     S
Er25     Er30    10.0   .     S
Er25     Er26    10.0   1_554     S
Er25     Er26    10.0   .     S
Er25     Er27    10.0   1_455     S
Er25     Er27    10.0   .     S
Er26     V5    10.0   1_556     S
Er26     V7    10.0   1_556     S
Er26     Er30    10.0   .     S
Er26     Er29    10.0   1_556     S
Er26     Er25    10.0   1_556     S
Er26     Er28    10.0   1_455     S
Er26     Er28    10.0   .     S
Er27     V5    10.0   1_655     S
Er27     V6    10.0   1_655     S
Er27     Er31    10.0   .     S
Er27     Er32    10.0   .     S
Er27     Er28    10.0   1_554     S
Er27     Er28    10.0   .     S
Er27     Er25    10.0   1_655     S
Er28     V7    10.0   1_556     S
Er28     V6    10.0   1_655     S
Er28     V5    10.0   1_656     S
Er28     Er32    10.0   .     S
Er28     Er31    10.0   1_556     S
Er28     Er27    10.0   1_556     S
Er28     Er26    10.0   1_655     S
Er29     Er26    10.0   1_554     S
Er29     Er30    10.0   .     S
Er29     Er30    10.0   1_554     S
Er29     Er31    10.0   1_455     S
Er29     Er31    10.0   .     S
Er29     V20    10.0   1_554     S
Er29     V18    10.0   1_554     S
Er30     Er29    10.0   1_556     S
Er30     Er32    10.0   1_455     S
Er30     Er32    10.0   .     S
Er31     Er28    10.0   1_554     S
Er31     Er32    10.0   .     S
Er31     Er32    10.0   1_554     S
Er31     Er29    10.0   1_655     S
Er31     V17    10.0   1_655     S
Er31     V18    10.0   1_654     S
Er31     V20    10.0   1_554     S
Er32     Er31    10.0   1_556     S
Er32     Er30    10.0   1_655     S
Er32     V18    10.0   1_655     S
Er32     V17    10.0   1_655     S
