data_mcsa
_audit_creation_date              2020-02-04
_audit_creation_method            'Pymatgen'
_symmetry_space_group_name_H-M    'P1'
_symmetry_Int_Tables_number       1
loop_
_symmetry_equiv_pos_as_xyz
  x,y,z
_cell_length_a                    68.3255
_cell_length_b                    68.3255
_cell_length_c                    68.3255
_cell_angle_alpha                 90.0
_cell_angle_beta                 90.0
_cell_angle_gamma                 90.0
loop_
_atom_site_label
_atom_site_type_symbol
_atom_site_fract_x
_atom_site_fract_y
_atom_site_fract_z
V1     V     0.9771   0.2296   0.4075
Ti2     Ti     0.0199   0.2428   0.2683
Er3     Er     0.9832   0.3618   0.3452
V4     V     0.7704   0.9075   0.5229
Ti5     Ti     0.7572   0.7683   0.4801
Er6     Er     0.6382   0.8452   0.5168
V7     V     0.0925   0.0229   0.7296
Ti8     Ti     0.2317   0.9801   0.7428
Er9     Er     0.1548   0.0168   0.8618
Ce10     Ce     0.8844   0.9976   0.5403
Ce11     Ce     0.0024   0.0403   0.6156
Ce12     Ce     0.9597   0.1156   0.4976
S13     S     0.4406   0.865   0.6773
H14     H     0.4986   0.8806   0.544
S15     S     0.365   0.8227   0.5594
H16     H     0.3806   0.956   0.5014
S17     S     0.3227   0.9406   0.635
H18     H     0.456   0.9986   0.6194
S19     S     0.135   0.1773   0.0594
H20     H     0.1194   0.044   0.0014
S21     S     0.1773   0.0594   0.135
H22     H     0.044   0.0014   0.1194
S23     S     0.0594   0.135   0.1773
H24     H     0.0014   0.1194   0.044
V25     V     0.4075   0.9771   0.2296
Ti26     Ti     0.2683   0.0199   0.2428
Er27     Er     0.3452   0.9832   0.3618
V28     V     0.7296   0.0925   0.0229
Ti29     Ti     0.7428   0.2317   0.9801
Er30     Er     0.8618   0.1548   0.0168
V31     V     0.5229   0.7704   0.9075
Ti32     Ti     0.4801   0.7572   0.7683
Er33     Er     0.5168   0.6382   0.8452
Ce34     Ce     0.5403   0.8844   0.9976
Ce35     Ce     0.6156   0.0024   0.0403
Ce36     Ce     0.4976   0.9597   0.1156
S37     S     0.6773   0.4406   0.865
H38     H     0.544   0.4986   0.8806
S39     S     0.5594   0.365   0.8227
H40     H     0.5014   0.3806   0.956
S41     S     0.635   0.3227   0.9406
H42     H     0.6194   0.456   0.9986
V43     V     0.2704   0.5925   0.4771
Ti44     Ti     0.2572   0.7317   0.5199
Er45     Er     0.1382   0.6548   0.4832
V46     V     0.4771   0.2704   0.5925
Ti47     Ti     0.5199   0.2572   0.7317
Er48     Er     0.4832   0.1382   0.6548
V49     V     0.5925   0.4771   0.2704
Ti50     Ti     0.7317   0.5199   0.2572
Er51     Er     0.6548   0.4832   0.1382
Ce52     Ce     0.4597   0.3844   0.5024
Ce53     Ce     0.5024   0.4597   0.3844
Ce54     Ce     0.3844   0.5024   0.4597
V55     V     0.2296   0.4075   0.9771
Ti56     Ti     0.2428   0.2683   0.0199
Er57     Er     0.3618   0.3452   0.9832
V58     V     0.0229   0.7296   0.0925
Ti59     Ti     0.9801   0.7428   0.2317
Er60     Er     0.0168   0.8618   0.1548
V61     V     0.9075   0.5229   0.7704
Ti62     Ti     0.7683   0.4801   0.7572
Er63     Er     0.8452   0.5168   0.6382
Ce64     Ce     0.9976   0.5403   0.8844
Ce65     Ce     0.0403   0.6156   0.0024
Ce66     Ce     0.1156   0.4976   0.9597
S67     S     0.865   0.6773   0.4406
H68     H     0.8806   0.544   0.4986
S69     S     0.8227   0.5594   0.365
H70     H     0.956   0.5014   0.3806
S71     S     0.9406   0.635   0.3227
H72     H     0.9986   0.6194   0.456
loop_
_geom_bond_atom_site_label_1
_geom_bond_atom_site_label_2
_geom_bond_distance
_geom_bond_site_symmetry_2
_ccdc_geom_bond_type
V1     Ti2    9.993   1_655     S
V1     Er3    9.998   .     S
V1     Ce12    10.0   .     S
Ti2     V1    9.993   1_455     S
Ti2     Er3    10.007   1_455     S
Ti2     S23    10.008   .     S
Er3     Ti2    10.007   1_655     S
Er3     H70    10.011   .     S
V4     Ti5    9.993   .     S
V4     Er6    9.998   .     S
V4     Ce10    10.0   .     S
Ti5     Er6    10.007   .     S
Ti5     S67    10.008   .     S
Er6     H14    10.011   .     S
V7     Ti8    9.993   1_545     S
V7     Er9    9.998   .     S
V7     Ce11    10.0   .     S
Ti8     V7    9.993   1_565     S
Ti8     Er9    10.007   1_565     S
Ti8     S17    10.008   .     S
Er9     Ti8    10.007   1_545     S
Er9     H20    10.011   1_556     S
Ce10     Ce12    9.995   1_565     S
Ce10     Ce11    9.995   1_665     S
Ce11     Ce10    9.995   1_445     S
Ce11     Ce12    9.995   1_455     S
Ce12     Ce10    9.995   1_545     S
Ce12     Ce11    9.995   1_655     S
S13     S15    9.995   .     S
S13     H14    9.991   .     S
S13     H18    10.003   .     S
S13     S17    9.995   .     S
S13     Ti32    10.008   .     S
H14     S15    10.003   .     S
H14     H16    9.999   .     S
H14     H18    9.999   .     S
S15     H16    9.991   .     S
S15     S17    9.995   .     S
S15     Ti44    10.008   .     S
H16     H18    9.999   .     S
H16     S17    10.003   .     S
H16     Er27    10.011   .     S
S17     H18    9.991   .     S
H18     Er48    10.011   1_565     S
S19     H20    9.991   .     S
S19     S21    9.995   .     S
S19     H24    10.003   .     S
S19     S23    9.995   .     S
S19     Ti56    10.008   .     S
H20     H22    9.999   .     S
H20     S21    10.003   .     S
H20     H24    9.999   .     S
H20     Er9    10.011   1_554     S
S21     H22    9.991   .     S
S21     S23    9.995   .     S
S21     Ti26    10.008   .     S
H22     H24    9.999   .     S
H22     S23    10.003   .     S
H22     Er60    10.011   1_545     S
S23     H24    9.991   .     S
H24     Er30    10.011   1_455     S
V25     Ti26    9.993   1_565     S
V25     Er27    9.998   .     S
V25     Ce36    10.0   .     S
Ti26     V25    9.993   1_545     S
Ti26     Er27    10.007   1_545     S
Er27     Ti26    10.007   1_565     S
V28     Ti29    9.993   1_554     S
V28     Er30    9.998   .     S
V28     Ce35    10.0   .     S
Ti29     V28    9.993   1_556     S
Ti29     Er30    10.007   1_556     S
Ti29     S41    10.008   .     S
Er30     Ti29    10.007   1_554     S
Er30     H24    10.011   1_655     S
V31     Ti32    9.993   .     S
V31     Er33    9.998   .     S
V31     Ce34    10.0   .     S
Ti32     Er33    10.007   .     S
Er33     H38    10.011   .     S
Ce34     Ce36    9.995   1_556     S
Ce34     Ce35    9.995   1_566     S
Ce35     Ce34    9.995   1_544     S
Ce35     Ce36    9.995   1_545     S
Ce36     Ce34    9.995   1_554     S
Ce36     Ce35    9.995   1_565     S
S37     S39    9.995   .     S
S37     H38    9.991   .     S
S37     H42    10.003   .     S
S37     S41    9.995   .     S
S37     Ti62    10.008   .     S
H38     S39    10.003   .     S
H38     H40    9.999   .     S
H38     H42    9.999   .     S
S39     H40    9.991   .     S
S39     S41    9.995   .     S
S39     Ti47    10.008   .     S
H40     H42    9.999   .     S
H40     S41    10.003   .     S
H40     Er57    10.011   .     S
S41     H42    9.991   .     S
H42     Er51    10.011   1_556     S
V43     Ti44    9.993   .     S
V43     Er45    9.998   .     S
V43     Ce54    10.0   .     S
Ti44     Er45    10.007   .     S
Er45     H72    10.011   1_455     S
V46     Ti47    9.993   .     S
V46     Er48    9.998   .     S
V46     Ce52    10.0   .     S
Ti47     Er48    10.007   .     S
Er48     H18    10.011   1_545     S
V49     Ti50    9.993   .     S
V49     Er51    9.998   .     S
V49     Ce53    10.0   .     S
Ti50     Er51    10.007   .     S
Ti50     S69    10.008   .     S
Er51     H42    10.011   1_554     S
Ce52     Ce53    9.995   .     S
Ce52     Ce54    9.995   .     S
Ce53     Ce54    9.995   .     S
V55     Ti56    9.993   1_556     S
V55     Er57    9.998   .     S
V55     Ce66    10.0   .     S
Ti56     V55    9.993   1_554     S
Ti56     Er57    10.007   1_554     S
Er57     Ti56    10.007   1_556     S
V58     Ti59    9.993   1_455     S
V58     Er60    9.998   .     S
V58     Ce65    10.0   .     S
Ti59     V58    9.993   1_655     S
Ti59     Er60    10.007   1_655     S
Ti59     S71    10.008   .     S
Er60     Ti59    10.007   1_455     S
Er60     H22    10.011   1_565     S
V61     Ti62    9.993   .     S
V61     Er63    9.998   .     S
V61     Ce64    10.0   .     S
Ti62     Er63    10.007   .     S
Er63     H68    10.011   .     S
Ce64     Ce66    9.995   1_655     S
Ce64     Ce65    9.995   1_656     S
Ce65     Ce64    9.995   1_454     S
Ce65     Ce66    9.995   1_554     S
Ce66     Ce64    9.995   1_455     S
Ce66     Ce65    9.995   1_556     S
S67     S69    9.995   .     S
S67     H68    9.991   .     S
S67     H72    10.003   .     S
S67     S71    9.995   .     S
H68     S69    10.003   .     S
H68     H70    9.999   .     S
H68     H72    9.999   .     S
S69     H70    9.991   .     S
S69     S71    9.995   .     S
H70     H72    9.999   .     S
H70     S71    10.003   .     S
S71     H72    9.991   .     S
H72     Er45    10.011   1_655     S
