data_mct
_audit_creation_date              2020-02-04
_audit_creation_method            'Pymatgen'
_symmetry_space_group_name_H-M    'P1'
_symmetry_Int_Tables_number       1
loop_
_symmetry_equiv_pos_as_xyz
  x,y,z
_cell_length_a                    104.8548
_cell_length_b                    104.8548
_cell_length_c                    104.8548
_cell_angle_alpha                 90.0
_cell_angle_beta                 90.0
_cell_angle_gamma                 90.0
loop_
_atom_site_label
_atom_site_type_symbol
_atom_site_fract_x
_atom_site_fract_y
_atom_site_fract_z
Er1     Er     0.7872   0.3294   0.7872
Er2     Er     0.6706   0.2128   0.7872
Er3     Er     0.7128   0.2872   0.8294
Er4     Er     0.7872   0.2128   0.6706
Er5     Er     0.8294   0.2872   0.7128
Er6     Er     0.7128   0.1706   0.7128
Ti7     Ti     0.8907   0.4523   0.7694
Ti8     Ti     0.7694   0.4523   0.8907
V9     V     0.8171   0.4149   0.8171
Ti10     Ti     0.7306   0.3907   0.9523
Ti11     Ti     0.6093   0.2694   0.9523
V12     V     0.6829   0.3171   0.9149
Ti13     Ti     0.5477   0.1093   0.7694
Ti14     Ti     0.5477   0.2306   0.8907
V15     V     0.5851   0.1829   0.8171
Ti16     Ti     0.6093   0.0477   0.7306
Ti17     Ti     0.7306   0.0477   0.6093
V18     V     0.6829   0.0851   0.6829
Ti19     Ti     0.9523   0.3907   0.7306
Ti20     Ti     0.9523   0.2694   0.6093
V21     V     0.9149   0.3171   0.6829
Ti22     Ti     0.7694   0.1093   0.5477
Ti23     Ti     0.8907   0.2306   0.5477
V24     V     0.8171   0.1829   0.5851
Er25     Er     0.2128   0.3294   0.7872
Er26     Er     0.1706   0.2872   0.7128
Er27     Er     0.2872   0.1706   0.7128
Er28     Er     0.2128   0.2128   0.6706
Er29     Er     0.3294   0.2128   0.7872
Er30     Er     0.2872   0.2872   0.8294
Ti31     Ti     0.3907   0.0477   0.7306
Ti32     Ti     0.2694   0.0477   0.6093
V33     V     0.3171   0.0851   0.6829
Ti34     Ti     0.0477   0.3907   0.7306
Ti35     Ti     0.0477   0.2694   0.6093
V36     V     0.0851   0.3171   0.6829
Ti37     Ti     0.2306   0.1093   0.5477
Ti38     Ti     0.1093   0.2306   0.5477
V39     V     0.1829   0.1829   0.5851
Ti40     Ti     0.1093   0.4523   0.7694
Ti41     Ti     0.2306   0.4523   0.8907
V42     V     0.1829   0.4149   0.8171
Ti43     Ti     0.2694   0.3907   0.9523
Ti44     Ti     0.3907   0.2694   0.9523
V45     V     0.3171   0.3171   0.9149
Ti46     Ti     0.4523   0.1093   0.7694
Ti47     Ti     0.4523   0.2306   0.8907
V48     V     0.4149   0.1829   0.8171
Er49     Er     0.7128   0.8294   0.7128
Er50     Er     0.7872   0.7872   0.6706
Er51     Er     0.8294   0.7128   0.7128
Er52     Er     0.7872   0.6706   0.7872
Er53     Er     0.6706   0.7872   0.7872
Er54     Er     0.7128   0.7128   0.8294
Ti55     Ti     0.8907   0.7694   0.5477
Ti56     Ti     0.7694   0.8907   0.5477
V57     V     0.8171   0.8171   0.5851
Ti58     Ti     0.7306   0.9523   0.6093
Ti59     Ti     0.6093   0.9523   0.7306
V60     V     0.6829   0.9149   0.6829
Ti61     Ti     0.5477   0.8907   0.7694
Ti62     Ti     0.5477   0.7694   0.8907
V63     V     0.5851   0.8171   0.8171
Ti64     Ti     0.6093   0.7306   0.9523
Ti65     Ti     0.7306   0.6093   0.9523
V66     V     0.6829   0.6829   0.9149
Ti67     Ti     0.9523   0.7306   0.6093
Ti68     Ti     0.9523   0.6093   0.7306
V69     V     0.9149   0.6829   0.6829
Ti70     Ti     0.7694   0.5477   0.8907
Ti71     Ti     0.8907   0.5477   0.7694
V72     V     0.8171   0.5851   0.8171
Er73     Er     0.3294   0.7872   0.7872
Er74     Er     0.2128   0.6706   0.7872
Er75     Er     0.2872   0.7128   0.8294
Er76     Er     0.2128   0.7872   0.6706
Er77     Er     0.2872   0.8294   0.7128
Er78     Er     0.1706   0.7128   0.7128
Ti79     Ti     0.4523   0.7694   0.8907
Ti80     Ti     0.4523   0.8907   0.7694
V81     V     0.4149   0.8171   0.8171
Ti82     Ti     0.3907   0.9523   0.7306
Ti83     Ti     0.2694   0.9523   0.6093
V84     V     0.3171   0.9149   0.6829
Ti85     Ti     0.1093   0.7694   0.5477
Ti86     Ti     0.2306   0.8907   0.5477
V87     V     0.1829   0.8171   0.5851
Ti88     Ti     0.0477   0.7306   0.6093
Ti89     Ti     0.0477   0.6093   0.7306
V90     V     0.0851   0.6829   0.6829
Ti91     Ti     0.3907   0.7306   0.9523
Ti92     Ti     0.2694   0.6093   0.9523
V93     V     0.3171   0.6829   0.9149
Ti94     Ti     0.1093   0.5477   0.7694
Ti95     Ti     0.2306   0.5477   0.8907
V96     V     0.1829   0.5851   0.8171
Er97     Er     0.7872   0.2128   0.3294
Er98     Er     0.7128   0.1706   0.2872
Er99     Er     0.7128   0.2872   0.1706
Er100     Er     0.6706   0.2128   0.2128
Er101     Er     0.7872   0.3294   0.2128
Er102     Er     0.8294   0.2872   0.2872
Ti103     Ti     0.7306   0.3907   0.0477
Ti104     Ti     0.6093   0.2694   0.0477
V105     V     0.6829   0.3171   0.0851
Ti106     Ti     0.7306   0.0477   0.3907
Ti107     Ti     0.6093   0.0477   0.2694
V108     V     0.6829   0.0851   0.3171
Ti109     Ti     0.5477   0.2306   0.1093
Ti110     Ti     0.5477   0.1093   0.2306
V111     V     0.5851   0.1829   0.1829
Ti112     Ti     0.7694   0.1093   0.4523
Ti113     Ti     0.8907   0.2306   0.4523
V114     V     0.8171   0.1829   0.4149
Ti115     Ti     0.9523   0.2694   0.3907
Ti116     Ti     0.9523   0.3907   0.2694
V117     V     0.9149   0.3171   0.3171
Ti118     Ti     0.7694   0.4523   0.1093
Ti119     Ti     0.8907   0.4523   0.2306
V120     V     0.8171   0.4149   0.1829
Er121     Er     0.7128   0.7128   0.1706
Er122     Er     0.6706   0.7872   0.2128
Er123     Er     0.7128   0.8294   0.2872
Er124     Er     0.7872   0.6706   0.2128
Er125     Er     0.8294   0.7128   0.2872
Er126     Er     0.7872   0.7872   0.3294
Ti127     Ti     0.7694   0.8907   0.4523
Ti128     Ti     0.8907   0.7694   0.4523
V129     V     0.8171   0.8171   0.4149
Ti130     Ti     0.7306   0.9523   0.3907
Ti131     Ti     0.6093   0.9523   0.2694
V132     V     0.6829   0.9149   0.3171
Ti133     Ti     0.5477   0.7694   0.1093
Ti134     Ti     0.5477   0.8907   0.2306
V135     V     0.5851   0.8171   0.1829
Ti136     Ti     0.6093   0.7306   0.0477
Ti137     Ti     0.7306   0.6093   0.0477
V138     V     0.6829   0.6829   0.0851
Ti139     Ti     0.9523   0.7306   0.3907
Ti140     Ti     0.9523   0.6093   0.2694
V141     V     0.9149   0.6829   0.3171
Ti142     Ti     0.7694   0.5477   0.1093
Ti143     Ti     0.8907   0.5477   0.2306
V144     V     0.8171   0.5851   0.1829
Er145     Er     0.2128   0.3294   0.2128
Er146     Er     0.3294   0.2128   0.2128
Er147     Er     0.2128   0.2128   0.3294
Er148     Er     0.1706   0.2872   0.2872
Er149     Er     0.2872   0.1706   0.2872
Er150     Er     0.2872   0.2872   0.1706
Ti151     Ti     0.1093   0.4523   0.2306
Ti152     Ti     0.2306   0.4523   0.1093
V153     V     0.1829   0.4149   0.1829
Ti154     Ti     0.2694   0.3907   0.0477
Ti155     Ti     0.3907   0.2694   0.0477
V156     V     0.3171   0.3171   0.0851
Ti157     Ti     0.4523   0.2306   0.1093
Ti158     Ti     0.4523   0.1093   0.2306
V159     V     0.4149   0.1829   0.1829
Ti160     Ti     0.3907   0.0477   0.2694
Ti161     Ti     0.2694   0.0477   0.3907
V162     V     0.3171   0.0851   0.3171
Ti163     Ti     0.0477   0.3907   0.2694
Ti164     Ti     0.0477   0.2694   0.3907
V165     V     0.0851   0.3171   0.3171
Ti166     Ti     0.2306   0.1093   0.4523
Ti167     Ti     0.1093   0.2306   0.4523
V168     V     0.1829   0.1829   0.4149
Er169     Er     0.3294   0.7872   0.2128
Er170     Er     0.2872   0.7128   0.1706
Er171     Er     0.1706   0.7128   0.2872
Er172     Er     0.2128   0.6706   0.2128
Er173     Er     0.2128   0.7872   0.3294
Er174     Er     0.2872   0.8294   0.2872
Ti175     Ti     0.0477   0.7306   0.3907
Ti176     Ti     0.0477   0.6093   0.2694
V177     V     0.0851   0.6829   0.3171
Ti178     Ti     0.3907   0.7306   0.0477
Ti179     Ti     0.2694   0.6093   0.0477
V180     V     0.3171   0.6829   0.0851
Ti181     Ti     0.1093   0.5477   0.2306
Ti182     Ti     0.2306   0.5477   0.1093
V183     V     0.1829   0.5851   0.1829
Ti184     Ti     0.4523   0.7694   0.1093
Ti185     Ti     0.4523   0.8907   0.2306
V186     V     0.4149   0.8171   0.1829
Ti187     Ti     0.3907   0.9523   0.2694
Ti188     Ti     0.2694   0.9523   0.3907
V189     V     0.3171   0.9149   0.3171
Ti190     Ti     0.1093   0.7694   0.4523
Ti191     Ti     0.2306   0.8907   0.4523
V192     V     0.1829   0.8171   0.4149
loop_
_geom_bond_atom_site_label_1
_geom_bond_atom_site_label_2
_geom_bond_distance
_geom_bond_site_symmetry_2
_ccdc_geom_bond_type
Er1     Er3    10.0   .     S
Er1     Er5    10.0   .     S
Er1     V9    10.0   .     S
Er2     Er3    10.0   .     S
Er2     Er6    10.0   .     S
Er2     V15    10.0   .     S
Er3     V12    10.0   .     S
Er4     Er5    10.0   .     S
Er4     Er6    10.0   .     S
Er4     V24    10.0   .     S
Er5     V21    10.0   .     S
Er6     V18    10.0   .     S
Ti7     V9    9.999   .     S
Ti7     Ti19    10.0   .     S
Ti7     Ti71    10.001   .     S
Ti8     V9    9.999   .     S
Ti8     Ti10    10.0   .     S
Ti8     Ti70    10.001   .     S
Ti10     V12    9.999   .     S
Ti10     Ti103    10.001   1_556     S
Ti11     V12    9.999   .     S
Ti11     Ti14    10.0   .     S
Ti11     Ti104    10.001   1_556     S
Ti13     V15    9.999   .     S
Ti13     Ti16    10.0   .     S
Ti13     Ti46    10.001   .     S
Ti14     V15    9.999   .     S
Ti14     Ti47    10.001   .     S
Ti16     V18    9.999   .     S
Ti16     Ti59    10.001   1_545     S
Ti17     V18    9.999   .     S
Ti17     Ti22    10.0   .     S
Ti17     Ti58    10.001   1_545     S
Ti19     V21    9.999   .     S
Ti19     Ti34    10.001   1_655     S
Ti20     V21    9.999   .     S
Ti20     Ti23    10.0   .     S
Ti20     Ti35    10.001   1_655     S
Ti22     V24    9.999   .     S
Ti22     Ti112    10.001   .     S
Ti23     V24    9.999   .     S
Ti23     Ti113    10.001   .     S
Er25     Er30    10.0   .     S
Er25     Er26    10.0   .     S
Er25     V42    10.0   .     S
Er26     Er28    10.0   .     S
Er26     V36    10.0   .     S
Er27     Er28    10.0   .     S
Er27     Er29    10.0   .     S
Er27     V33    10.0   .     S
Er28     V39    10.0   .     S
Er29     Er30    10.0   .     S
Er29     V48    10.0   .     S
Er30     V45    10.0   .     S
Ti31     V33    9.999   .     S
Ti31     Ti46    10.0   .     S
Ti31     Ti82    10.001   1_545     S
Ti32     V33    9.999   .     S
Ti32     Ti37    10.0   .     S
Ti32     Ti83    10.001   1_545     S
Ti34     V36    9.999   .     S
Ti34     Ti40    10.0   .     S
Ti34     Ti19    10.001   1_455     S
Ti35     V36    9.999   .     S
Ti35     Ti38    10.0   .     S
Ti35     Ti20    10.001   1_455     S
Ti37     V39    9.999   .     S
Ti37     Ti166    10.001   .     S
Ti38     V39    9.999   .     S
Ti38     Ti167    10.001   .     S
Ti40     V42    9.999   .     S
Ti40     Ti94    10.001   .     S
Ti41     V42    9.999   .     S
Ti41     Ti43    10.0   .     S
Ti41     Ti95    10.001   .     S
Ti43     V45    9.999   .     S
Ti43     Ti154    10.001   1_556     S
Ti44     V45    9.999   .     S
Ti44     Ti47    10.0   .     S
Ti44     Ti155    10.001   1_556     S
Ti46     V48    9.999   .     S
Ti47     V48    9.999   .     S
Er49     Er50    10.0   .     S
Er49     Er53    10.0   .     S
Er49     V60    10.0   .     S
Er50     Er51    10.0   .     S
Er50     V57    10.0   .     S
Er51     Er52    10.0   .     S
Er51     V69    10.0   .     S
Er52     Er54    10.0   .     S
Er52     V72    10.0   .     S
Er53     Er54    10.0   .     S
Er53     V63    10.0   .     S
Er54     V66    10.0   .     S
Ti55     V57    9.999   .     S
Ti55     Ti67    10.0   .     S
Ti55     Ti128    10.001   .     S
Ti56     V57    9.999   .     S
Ti56     Ti58    10.0   .     S
Ti56     Ti127    10.001   .     S
Ti58     Ti17    10.001   1_565     S
Ti58     V60    9.999   .     S
Ti59     Ti16    10.001   1_565     S
Ti59     V60    9.999   .     S
Ti59     Ti61    10.0   .     S
Ti61     V63    9.999   .     S
Ti61     Ti80    10.001   .     S
Ti62     V63    9.999   .     S
Ti62     Ti64    10.0   .     S
Ti62     Ti79    10.001   .     S
Ti64     V66    9.999   .     S
Ti64     Ti136    10.001   1_556     S
Ti65     V66    9.999   .     S
Ti65     Ti70    10.0   .     S
Ti65     Ti137    10.001   1_556     S
Ti67     V69    9.999   .     S
Ti67     Ti88    10.001   1_655     S
Ti68     V69    9.999   .     S
Ti68     Ti71    10.0   .     S
Ti68     Ti89    10.001   1_655     S
Ti70     V72    9.999   .     S
Ti71     V72    9.999   .     S
Er73     Er77    10.0   .     S
Er73     Er75    10.0   .     S
Er73     V81    10.0   .     S
Er74     Er75    10.0   .     S
Er74     Er78    10.0   .     S
Er74     V96    10.0   .     S
Er75     V93    10.0   .     S
Er76     Er77    10.0   .     S
Er76     Er78    10.0   .     S
Er76     V87    10.0   .     S
Er77     V84    10.0   .     S
Er78     V90    10.0   .     S
Ti79     V81    9.999   .     S
Ti79     Ti91    10.0   .     S
Ti80     V81    9.999   .     S
Ti80     Ti82    10.0   .     S
Ti82     Ti31    10.001   1_565     S
Ti82     V84    9.999   .     S
Ti83     Ti32    10.001   1_565     S
Ti83     V84    9.999   .     S
Ti83     Ti86    10.0   .     S
Ti85     V87    9.999   .     S
Ti85     Ti88    10.0   .     S
Ti85     Ti190    10.001   .     S
Ti86     V87    9.999   .     S
Ti86     Ti191    10.001   .     S
Ti88     V90    9.999   .     S
Ti88     Ti67    10.001   1_455     S
Ti89     V90    9.999   .     S
Ti89     Ti94    10.0   .     S
Ti89     Ti68    10.001   1_455     S
Ti91     V93    9.999   .     S
Ti91     Ti178    10.001   1_556     S
Ti92     V93    9.999   .     S
Ti92     Ti95    10.0   .     S
Ti92     Ti179    10.001   1_556     S
Ti94     V96    9.999   .     S
Ti95     V96    9.999   .     S
Er97     Er102    10.0   .     S
Er97     Er98    10.0   .     S
Er97     V114    10.0   .     S
Er98     Er100    10.0   .     S
Er98     V108    10.0   .     S
Er99     Er100    10.0   .     S
Er99     Er101    10.0   .     S
Er99     V105    10.0   .     S
Er100     V111    10.0   .     S
Er101     Er102    10.0   .     S
Er101     V120    10.0   .     S
Er102     V117    10.0   .     S
Ti103     V105    9.999   .     S
Ti103     Ti118    10.0   .     S
Ti103     Ti10    10.001   1_554     S
Ti104     V105    9.999   .     S
Ti104     Ti109    10.0   .     S
Ti104     Ti11    10.001   1_554     S
Ti106     V108    9.999   .     S
Ti106     Ti112    10.0   .     S
Ti106     Ti130    10.001   1_545     S
Ti107     V108    9.999   .     S
Ti107     Ti110    10.0   .     S
Ti107     Ti131    10.001   1_545     S
Ti109     V111    9.999   .     S
Ti109     Ti157    10.001   .     S
Ti110     V111    9.999   .     S
Ti110     Ti158    10.001   .     S
Ti112     V114    9.999   .     S
Ti113     V114    9.999   .     S
Ti113     Ti115    10.0   .     S
Ti115     V117    9.999   .     S
Ti115     Ti164    10.001   1_655     S
Ti116     V117    9.999   .     S
Ti116     Ti119    10.0   .     S
Ti116     Ti163    10.001   1_655     S
Ti118     V120    9.999   .     S
Ti118     Ti142    10.001   .     S
Ti119     V120    9.999   .     S
Ti119     Ti143    10.001   .     S
Er121     Er124    10.0   .     S
Er121     Er122    10.0   .     S
Er121     V138    10.0   .     S
Er122     Er123    10.0   .     S
Er122     V135    10.0   .     S
Er123     Er126    10.0   .     S
Er123     V132    10.0   .     S
Er124     Er125    10.0   .     S
Er124     V144    10.0   .     S
Er125     Er126    10.0   .     S
Er125     V141    10.0   .     S
Er126     V129    10.0   .     S
Ti127     V129    9.999   .     S
Ti127     Ti130    10.0   .     S
Ti128     V129    9.999   .     S
Ti128     Ti139    10.0   .     S
Ti130     Ti106    10.001   1_565     S
Ti130     V132    9.999   .     S
Ti131     Ti107    10.001   1_565     S
Ti131     V132    9.999   .     S
Ti131     Ti134    10.0   .     S
Ti133     V135    9.999   .     S
Ti133     Ti136    10.0   .     S
Ti133     Ti184    10.001   .     S
Ti134     V135    9.999   .     S
Ti134     Ti185    10.001   .     S
Ti136     V138    9.999   .     S
Ti136     Ti64    10.001   1_554     S
Ti137     V138    9.999   .     S
Ti137     Ti142    10.0   .     S
Ti137     Ti65    10.001   1_554     S
Ti139     V141    9.999   .     S
Ti139     Ti175    10.001   1_655     S
Ti140     V141    9.999   .     S
Ti140     Ti143    10.0   .     S
Ti140     Ti176    10.001   1_655     S
Ti142     V144    9.999   .     S
Ti143     V144    9.999   .     S
Er145     Er150    10.0   .     S
Er145     Er148    10.0   .     S
Er145     V153    10.0   .     S
Er146     Er150    10.0   .     S
Er146     Er149    10.0   .     S
Er146     V159    10.0   .     S
Er147     Er148    10.0   .     S
Er147     Er149    10.0   .     S
Er147     V168    10.0   .     S
Er148     V165    10.0   .     S
Er149     V162    10.0   .     S
Er150     V156    10.0   .     S
Ti151     V153    9.999   .     S
Ti151     Ti163    10.0   .     S
Ti151     Ti181    10.001   .     S
Ti152     V153    9.999   .     S
Ti152     Ti154    10.0   .     S
Ti152     Ti182    10.001   .     S
Ti154     V156    9.999   .     S
Ti154     Ti43    10.001   1_554     S
Ti155     V156    9.999   .     S
Ti155     Ti157    10.0   .     S
Ti155     Ti44    10.001   1_554     S
Ti157     V159    9.999   .     S
Ti158     V159    9.999   .     S
Ti158     Ti160    10.0   .     S
Ti160     V162    9.999   .     S
Ti160     Ti187    10.001   1_545     S
Ti161     V162    9.999   .     S
Ti161     Ti166    10.0   .     S
Ti161     Ti188    10.001   1_545     S
Ti163     V165    9.999   .     S
Ti163     Ti116    10.001   1_455     S
Ti164     V165    9.999   .     S
Ti164     Ti167    10.0   .     S
Ti164     Ti115    10.001   1_455     S
Ti166     V168    9.999   .     S
Ti167     V168    9.999   .     S
Er169     Er174    10.0   .     S
Er169     Er170    10.0   .     S
Er169     V186    10.0   .     S
Er170     Er172    10.0   .     S
Er170     V180    10.0   .     S
Er171     Er172    10.0   .     S
Er171     Er173    10.0   .     S
Er171     V177    10.0   .     S
Er172     V183    10.0   .     S
Er173     Er174    10.0   .     S
Er173     V192    10.0   .     S
Er174     V189    10.0   .     S
Ti175     V177    9.999   .     S
Ti175     Ti190    10.0   .     S
Ti175     Ti139    10.001   1_455     S
Ti176     V177    9.999   .     S
Ti176     Ti181    10.0   .     S
Ti176     Ti140    10.001   1_455     S
Ti178     V180    9.999   .     S
Ti178     Ti184    10.0   .     S
Ti178     Ti91    10.001   1_554     S
Ti179     V180    9.999   .     S
Ti179     Ti182    10.0   .     S
Ti179     Ti92    10.001   1_554     S
Ti181     V183    9.999   .     S
Ti182     V183    9.999   .     S
Ti184     V186    9.999   .     S
Ti185     V186    9.999   .     S
Ti185     Ti187    10.0   .     S
Ti187     Ti160    10.001   1_565     S
Ti187     V189    9.999   .     S
Ti188     Ti161    10.001   1_565     S
Ti188     V189    9.999   .     S
Ti188     Ti191    10.0   .     S
Ti190     V192    9.999   .     S
Ti191     V192    9.999   .     S
