data_mef
_audit_creation_date              2020-02-04
_audit_creation_method            'Pymatgen'
_symmetry_space_group_name_H-M    'P1'
_symmetry_Int_Tables_number       1
loop_
_symmetry_equiv_pos_as_xyz
  x,y,z
_cell_length_a                    51.1321
_cell_length_b                    51.1321
_cell_length_c                    51.1321
_cell_angle_alpha                 90.0
_cell_angle_beta                 90.0
_cell_angle_gamma                 90.0
loop_
_atom_site_label
_atom_site_type_symbol
_atom_site_fract_x
_atom_site_fract_y
_atom_site_fract_z
Er1     Er     0.6383   0.1383   0.25
Er2     Er     0.3617   0.1383   0.25
S3     S     0.5   0.2017   0.3729
Er4     Er     0.3617   0.8617   0.25
Er5     Er     0.6383   0.8617   0.25
S6     S     0.7017   0.0   0.1271
S7     S     0.5   0.7983   0.3729
S8     S     0.2983   0.0   0.1271
Er9     Er     0.1383   0.25   0.6383
Er10     Er     0.1383   0.25   0.3617
S11     S     0.2017   0.3729   0.5
Er12     Er     0.8617   0.25   0.3617
Er13     Er     0.8617   0.25   0.6383
S14     S     0.0   0.1271   0.7017
S15     S     0.7983   0.3729   0.5
S16     S     0.0   0.1271   0.2983
Er17     Er     0.25   0.6383   0.1383
Er18     Er     0.25   0.3617   0.1383
S19     S     0.3729   0.5   0.2017
Er20     Er     0.25   0.3617   0.8617
Er21     Er     0.25   0.6383   0.8617
S22     S     0.1271   0.7017   0.0
S23     S     0.3729   0.5   0.7983
S24     S     0.1271   0.2983   0.0
Er25     Er     0.75   0.3617   0.1383
Er26     Er     0.75   0.6383   0.1383
Er27     Er     0.75   0.6383   0.8617
Er28     Er     0.75   0.3617   0.8617
S29     S     0.6271   0.5   0.7983
S30     S     0.8729   0.2983   0.0
S31     S     0.8729   0.7017   0.0
S32     S     0.6271   0.5   0.2017
Er33     Er     0.3617   0.1383   0.75
Er34     Er     0.6383   0.1383   0.75
Er35     Er     0.6383   0.8617   0.75
Er36     Er     0.3617   0.8617   0.75
S37     S     0.5   0.7983   0.6271
S38     S     0.2983   0.0   0.8729
S39     S     0.7017   0.0   0.8729
S40     S     0.5   0.2017   0.6271
Ce41     Ce     0.8166   0.8166   0.8166
Ce42     Ce     0.8166   0.1834   0.8166
V43     V     0.8745   0.0   0.7813
V44     V     0.0   0.2187   0.8745
Ce45     Ce     0.1834   0.1834   0.8166
V46     V     0.1255   0.0   0.7813
Ce47     Ce     0.1834   0.8166   0.8166
V48     V     0.0   0.7813   0.8745
V49     V     0.2187   0.8745   0.0
Ce50     Ce     0.1834   0.8166   0.1834
V51     V     0.0   0.7813   0.1255
Ce52     Ce     0.8166   0.8166   0.1834
V53     V     0.7813   0.8745   0.0
Ce54     Ce     0.1834   0.1834   0.1834
V55     V     0.0   0.2187   0.1255
V56     V     0.1255   0.0   0.2187
V57     V     0.2187   0.1255   0.0
V58     V     0.8745   0.0   0.2187
Ce59     Ce     0.8166   0.1834   0.1834
V60     V     0.7813   0.1255   0.0
Er61     Er     0.1383   0.75   0.3617
Er62     Er     0.1383   0.75   0.6383
Er63     Er     0.8617   0.75   0.6383
Er64     Er     0.8617   0.75   0.3617
S65     S     0.7983   0.6271   0.5
S66     S     0.0   0.8729   0.2983
S67     S     0.0   0.8729   0.7017
S68     S     0.2017   0.6271   0.5
V69     V     0.3745   0.2813   0.5
V70     V     0.2813   0.5   0.3745
V71     V     0.5   0.3745   0.2813
Ce72     Ce     0.3166   0.3166   0.3166
Ce73     Ce     0.6834   0.3166   0.3166
Ce74     Ce     0.3166   0.6834   0.3166
Ce75     Ce     0.3166   0.3166   0.6834
V76     V     0.5   0.6255   0.2813
V77     V     0.6255   0.7187   0.5
V78     V     0.7187   0.5   0.3745
Ce79     Ce     0.6834   0.6834   0.3166
V80     V     0.6255   0.2813   0.5
V81     V     0.7187   0.5   0.6255
V82     V     0.5   0.3745   0.7187
Ce83     Ce     0.6834   0.3166   0.6834
V84     V     0.2813   0.5   0.6255
V85     V     0.5   0.6255   0.7187
V86     V     0.3745   0.7187   0.5
Ce87     Ce     0.3166   0.6834   0.6834
Ce88     Ce     0.6834   0.6834   0.6834
Ti89     Ti     0.0   0.25   0.5
Ti90     Ti     0.0   0.75   0.5
Ti91     Ti     0.75   0.5   0.0
Ti92     Ti     0.5   0.0   0.75
Ti93     Ti     0.25   0.5   0.0
Ti94     Ti     0.5   0.0   0.25
loop_
_geom_bond_atom_site_label_1
_geom_bond_atom_site_label_2
_geom_bond_distance
_geom_bond_site_symmetry_2
_ccdc_geom_bond_type
Er1     Ti94    10.0   .     S
Er1     S3    10.0   .     S
Er1     S6    10.0   .     S
Er1     Ce73    10.0   .     S
Er1     Ce59    10.0   .     S
Er2     Ti94    10.0   .     S
Er2     S8    10.0   .     S
Er2     S3    10.0   .     S
Er2     Ce72    10.0   .     S
Er2     Ce54    10.0   .     S
S3     V80    10.0   .     S
S3     V69    10.0   .     S
S3     V71    10.0   .     S
Er4     Ti94    10.0   1_565     S
Er4     S7    10.0   .     S
Er4     S8    10.0   1_565     S
Er4     Ce74    10.0   .     S
Er4     Ce50    10.0   .     S
Er5     Ti94    10.0   1_565     S
Er5     S7    10.0   .     S
Er5     S6    10.0   1_565     S
Er5     Ce79    10.0   .     S
Er5     Ce52    10.0   .     S
S6     Er5    10.0   1_545     S
S6     V53    10.0   1_545     S
S6     V60    10.0   .     S
S6     V58    10.0   .     S
S7     V77    10.0   .     S
S7     V86    10.0   .     S
S7     V76    10.0   .     S
S8     Er4    10.0   1_545     S
S8     V49    10.0   1_545     S
S8     V57    10.0   .     S
S8     V56    10.0   .     S
Er9     Ti89    10.0   .     S
Er9     S11    10.0   .     S
Er9     S14    10.0   .     S
Er9     Ce75    10.0   .     S
Er9     Ce45    10.0   .     S
Er10     Ti89    10.0   .     S
Er10     S16    10.0   .     S
Er10     S11    10.0   .     S
Er10     Ce72    10.0   .     S
Er10     Ce54    10.0   .     S
S11     V84    10.0   .     S
S11     V70    10.0   .     S
S11     V69    10.0   .     S
Er12     Ti89    10.0   1_655     S
Er12     S15    10.0   .     S
Er12     S16    10.0   1_655     S
Er12     Ce73    10.0   .     S
Er12     Ce59    10.0   .     S
Er13     Ti89    10.0   1_655     S
Er13     S15    10.0   .     S
Er13     S14    10.0   1_655     S
Er13     Ce83    10.0   .     S
Er13     Ce42    10.0   .     S
S14     Er13    10.0   1_455     S
S14     V43    10.0   1_455     S
S14     V46    10.0   .     S
S14     V44    10.0   .     S
S15     V81    10.0   .     S
S15     V78    10.0   .     S
S15     V80    10.0   .     S
S16     Er12    10.0   1_455     S
S16     V58    10.0   1_455     S
S16     V56    10.0   .     S
S16     V55    10.0   .     S
Er17     Ti93    10.0   .     S
Er17     S19    10.0   .     S
Er17     S22    10.0   .     S
Er17     Ce74    10.0   .     S
Er17     Ce50    10.0   .     S
Er18     Ti93    10.0   .     S
Er18     S24    10.0   .     S
Er18     S19    10.0   .     S
Er18     Ce72    10.0   .     S
Er18     Ce54    10.0   .     S
S19     V76    10.0   .     S
S19     V71    10.0   .     S
S19     V70    10.0   .     S
Er20     Ti93    10.0   1_556     S
Er20     S23    10.0   .     S
Er20     S24    10.0   1_556     S
Er20     Ce75    10.0   .     S
Er20     Ce45    10.0   .     S
Er21     Ti93    10.0   1_556     S
Er21     S23    10.0   .     S
Er21     S22    10.0   1_556     S
Er21     Ce87    10.0   .     S
Er21     Ce47    10.0   .     S
S22     Er21    10.0   1_554     S
S22     V48    10.0   1_554     S
S22     V51    10.0   .     S
S22     V49    10.0   .     S
S23     V85    10.0   .     S
S23     V82    10.0   .     S
S23     V84    10.0   .     S
S24     Er20    10.0   1_554     S
S24     V44    10.0   1_554     S
S24     V55    10.0   .     S
S24     V57    10.0   .     S
Er25     Ti91    10.0   .     S
Er25     S30    10.0   .     S
Er25     S32    10.0   .     S
Er25     Ce73    10.0   .     S
Er25     Ce59    10.0   .     S
Er26     Ti91    10.0   .     S
Er26     S31    10.0   .     S
Er26     S32    10.0   .     S
Er26     Ce52    10.0   .     S
Er26     Ce79    10.0   .     S
Er27     Ti91    10.0   1_556     S
Er27     S31    10.0   1_556     S
Er27     S29    10.0   .     S
Er27     Ce41    10.0   .     S
Er27     Ce88    10.0   .     S
Er28     Ti91    10.0   1_556     S
Er28     S30    10.0   1_556     S
Er28     S29    10.0   .     S
Er28     Ce42    10.0   .     S
Er28     Ce83    10.0   .     S
S29     V85    10.0   .     S
S29     V82    10.0   .     S
S29     V81    10.0   .     S
S30     Er28    10.0   1_554     S
S30     V55    10.0   1_655     S
S30     V44    10.0   1_654     S
S30     V60    10.0   .     S
S31     Er27    10.0   1_554     S
S31     V51    10.0   1_655     S
S31     V48    10.0   1_654     S
S31     V53    10.0   .     S
S32     V71    10.0   .     S
S32     V76    10.0   .     S
S32     V78    10.0   .     S
Er33     Ti92    10.0   .     S
Er33     S38    10.0   .     S
Er33     S40    10.0   .     S
Er33     Ce75    10.0   .     S
Er33     Ce45    10.0   .     S
Er34     Ti92    10.0   .     S
Er34     S39    10.0   .     S
Er34     S40    10.0   .     S
Er34     Ce42    10.0   .     S
Er34     Ce83    10.0   .     S
Er35     Ti92    10.0   1_565     S
Er35     S39    10.0   1_565     S
Er35     S37    10.0   .     S
Er35     Ce41    10.0   .     S
Er35     Ce88    10.0   .     S
Er36     Ti92    10.0   1_565     S
Er36     S38    10.0   1_565     S
Er36     S37    10.0   .     S
Er36     Ce47    10.0   .     S
Er36     Ce87    10.0   .     S
S37     V77    10.0   .     S
S37     V86    10.0   .     S
S37     V85    10.0   .     S
S38     Er36    10.0   1_545     S
S38     V57    10.0   1_556     S
S38     V49    10.0   1_546     S
S38     V46    10.0   .     S
S39     Er35    10.0   1_545     S
S39     V60    10.0   1_556     S
S39     V53    10.0   1_546     S
S39     V43    10.0   .     S
S40     V69    10.0   .     S
S40     V80    10.0   .     S
S40     V82    10.0   .     S
Ce41     V48    10.0   1_655     S
Ce41     V43    10.0   1_565     S
Ce41     V53    10.0   1_556     S
Ce41     Er63    10.0   .     S
Ce42     V60    10.0   1_556     S
Ce42     V44    10.0   1_655     S
Ce42     V43    10.0   .     S
V43     Ce41    10.0   1_545     S
V43     S14    10.0   1_655     S
V43     S67    10.0   1_645     S
V44     Ce42    10.0   1_455     S
V44     Ce45    10.0   .     S
V44     S24    10.0   1_556     S
V44     S30    10.0   1_456     S
Ce45     V57    10.0   1_556     S
Ce45     V46    10.0   .     S
V46     Ce47    10.0   1_545     S
V46     S67    10.0   1_545     S
Ce47     V46    10.0   1_565     S
Ce47     V49    10.0   1_556     S
Ce47     V48    10.0   .     S
Ce47     Er62    10.0   .     S
V48     Ce41    10.0   1_455     S
V48     S22    10.0   1_556     S
V48     S31    10.0   1_456     S
V48     S67    10.0   .     S
V49     Ce47    10.0   1_554     S
V49     Ce50    10.0   .     S
V49     S8    10.0   1_565     S
V49     S38    10.0   1_564     S
Ce50     V56    10.0   1_565     S
Ce50     V51    10.0   .     S
Ce50     Er61    10.0   .     S
V51     S31    10.0   1_455     S
V51     Ce52    10.0   1_455     S
V51     S66    10.0   .     S
Ce52     V51    10.0   1_655     S
Ce52     V58    10.0   1_565     S
Ce52     V53    10.0   .     S
Ce52     Er64    10.0   .     S
V53     Ce41    10.0   1_554     S
V53     S6    10.0   1_565     S
V53     S39    10.0   1_564     S
Ce54     V55    10.0   .     S
Ce54     V56    10.0   .     S
Ce54     V57    10.0   .     S
V55     S30    10.0   1_455     S
V55     Ce59    10.0   1_455     S
V56     Ce50    10.0   1_545     S
V56     S66    10.0   1_545     S
V57     S38    10.0   1_554     S
V57     Ce45    10.0   1_554     S
V58     Ce52    10.0   1_545     S
V58     Ce59    10.0   .     S
V58     S16    10.0   1_655     S
V58     S66    10.0   1_645     S
Ce59     V55    10.0   1_655     S
Ce59     V60    10.0   .     S
V60     S39    10.0   1_554     S
V60     Ce42    10.0   1_554     S
Er61     Ti90    10.0   .     S
Er61     S66    10.0   .     S
Er61     S68    10.0   .     S
Er61     Ce74    10.0   .     S
Er62     Ti90    10.0   .     S
Er62     S67    10.0   .     S
Er62     S68    10.0   .     S
Er62     Ce87    10.0   .     S
Er63     Ti90    10.0   1_655     S
Er63     S67    10.0   1_655     S
Er63     S65    10.0   .     S
Er63     Ce88    10.0   .     S
Er64     Ti90    10.0   1_655     S
Er64     S66    10.0   1_655     S
Er64     S65    10.0   .     S
Er64     Ce79    10.0   .     S
S65     V81    10.0   .     S
S65     V78    10.0   .     S
S65     V77    10.0   .     S
S66     V58    10.0   1_465     S
S66     Er64    10.0   1_455     S
S66     V56    10.0   1_565     S
S67     V43    10.0   1_465     S
S67     Er63    10.0   1_455     S
S67     V46    10.0   1_565     S
S68     V70    10.0   .     S
S68     V84    10.0   .     S
S68     V86    10.0   .     S
V69     Ce72    10.0   .     S
V69     Ce75    10.0   .     S
V70     Ce72    10.0   .     S
V70     Ce74    10.0   .     S
V71     Ce72    10.0   .     S
V71     Ce73    10.0   .     S
Ce73     V78    10.0   .     S
Ce73     V80    10.0   .     S
Ce74     V76    10.0   .     S
Ce74     V86    10.0   .     S
Ce75     V82    10.0   .     S
Ce75     V84    10.0   .     S
V76     Ce79    10.0   .     S
V77     Ce88    10.0   .     S
V77     Ce79    10.0   .     S
V78     Ce79    10.0   .     S
V80     Ce83    10.0   .     S
V81     Ce88    10.0   .     S
V81     Ce83    10.0   .     S
V82     Ce83    10.0   .     S
V84     Ce87    10.0   .     S
V85     Ce88    10.0   .     S
V85     Ce87    10.0   .     S
V86     Ce87    10.0   .     S
Ti89     Er12    10.0   1_455     S
Ti89     Er13    10.0   1_455     S
Ti90     Er63    10.0   1_455     S
Ti90     Er64    10.0   1_455     S
Ti91     Er27    10.0   1_554     S
Ti91     Er28    10.0   1_554     S
Ti92     Er35    10.0   1_545     S
Ti92     Er36    10.0   1_545     S
Ti93     Er20    10.0   1_554     S
Ti93     Er21    10.0   1_554     S
Ti94     Er4    10.0   1_545     S
Ti94     Er5    10.0   1_545     S
