data_mer
_audit_creation_date              2020-02-04
_audit_creation_method            'Pymatgen'
_symmetry_space_group_name_H-M    'P1'
_symmetry_Int_Tables_number       1
loop_
_symmetry_equiv_pos_as_xyz
  x,y,z
_cell_length_a                    44.4661
_cell_length_b                    44.4661
_cell_length_c                    33.6686
_cell_angle_alpha                 90.0
_cell_angle_beta                 90.0
_cell_angle_gamma                 90.0
loop_
_atom_site_label
_atom_site_type_symbol
_atom_site_fract_x
_atom_site_fract_y
_atom_site_fract_z
V1     V     0.3876   0.7715   0.1485
V2     V     0.2715   0.8876   0.3515
V3     V     0.2285   0.6125   0.1485
V4     V     0.1124   0.7285   0.3515
V5     V     0.3876   0.7715   0.8515
V6     V     0.2715   0.8876   0.6485
V7     V     0.2285   0.6125   0.8515
V8     V     0.1124   0.7285   0.6485
V9     V     0.7715   0.6125   0.1485
V10     V     0.8876   0.7285   0.3515
V11     V     0.6125   0.7715   0.1485
V12     V     0.7285   0.8876   0.3515
V13     V     0.6125   0.7715   0.8515
V14     V     0.7285   0.8876   0.6485
V15     V     0.7715   0.6125   0.8515
V16     V     0.8876   0.7285   0.6485
V17     V     0.2715   0.1124   0.3515
V18     V     0.3876   0.2285   0.1485
V19     V     0.1124   0.2715   0.3515
V20     V     0.2285   0.3876   0.1485
V21     V     0.3876   0.2285   0.8515
V22     V     0.2715   0.1124   0.6485
V23     V     0.2285   0.3876   0.8515
V24     V     0.1124   0.2715   0.6485
V25     V     0.7715   0.3876   0.1485
V26     V     0.8876   0.2715   0.3515
V27     V     0.6125   0.2285   0.1485
V28     V     0.7285   0.1124   0.3515
V29     V     0.7715   0.3876   0.8515
V30     V     0.8876   0.2715   0.6485
V31     V     0.6125   0.2285   0.8515
V32     V     0.7285   0.1124   0.6485
loop_
_geom_bond_atom_site_label_1
_geom_bond_atom_site_label_2
_geom_bond_distance
_geom_bond_site_symmetry_2
_ccdc_geom_bond_type
V1     V2    9.999   .     S
V1     V3    10.0   .     S
V1     V5    10.0   1_554     S
V1     V11    10.0   .     S
V2     V4    10.0   .     S
V2     V6    10.0   .     S
V2     V17    10.0   1_565     S
V3     V4    9.999   .     S
V3     V7    10.0   1_554     S
V3     V20    10.0   .     S
V4     V8    10.0   .     S
V4     V10    10.0   1_455     S
V5     V6    9.999   .     S
V5     V7    10.0   .     S
V5     V1    10.0   1_556     S
V5     V13    10.0   .     S
V6     V8    10.0   .     S
V6     V22    10.0   1_565     S
V7     V8    9.999   .     S
V7     V3    10.0   1_556     S
V7     V23    10.0   .     S
V8     V16    10.0   1_455     S
V9     V10    9.999   .     S
V9     V11    10.0   .     S
V9     V15    10.0   1_554     S
V9     V25    10.0   .     S
V10     V12    10.0   .     S
V10     V16    10.0   .     S
V10     V4    10.0   1_655     S
V11     V12    9.999   .     S
V11     V13    10.0   1_554     S
V12     V14    10.0   .     S
V12     V28    10.0   1_565     S
V13     V14    9.999   .     S
V13     V15    10.0   .     S
V13     V11    10.0   1_556     S
V14     V16    10.0   .     S
V14     V32    10.0   1_565     S
V15     V16    9.999   .     S
V15     V9    10.0   1_556     S
V15     V29    10.0   .     S
V16     V8    10.0   1_655     S
V17     V2    10.0   1_545     S
V17     V18    9.999   .     S
V17     V19    10.0   .     S
V17     V22    10.0   .     S
V18     V20    10.0   .     S
V18     V21    10.0   1_554     S
V18     V27    10.0   .     S
V19     V20    9.999   .     S
V19     V24    10.0   .     S
V19     V26    10.0   1_455     S
V20     V23    10.0   1_554     S
V21     V22    9.999   .     S
V21     V23    10.0   .     S
V21     V18    10.0   1_556     S
V21     V31    10.0   .     S
V22     V6    10.0   1_545     S
V22     V24    10.0   .     S
V23     V24    9.999   .     S
V23     V20    10.0   1_556     S
V24     V30    10.0   1_455     S
V25     V26    9.999   .     S
V25     V27    10.0   .     S
V25     V29    10.0   1_554     S
V26     V28    10.0   .     S
V26     V30    10.0   .     S
V26     V19    10.0   1_655     S
V27     V28    9.999   .     S
V27     V31    10.0   1_554     S
V28     V12    10.0   1_545     S
V28     V32    10.0   .     S
V29     V30    9.999   .     S
V29     V31    10.0   .     S
V29     V25    10.0   1_556     S
V30     V32    10.0   .     S
V30     V24    10.0   1_655     S
V31     V32    9.999   .     S
V31     V27    10.0   1_556     S
V32     V14    10.0   1_545     S
