data_met
_audit_creation_date              2020-02-04
_audit_creation_method            'Pymatgen'
_symmetry_space_group_name_H-M    'P1'
_symmetry_Int_Tables_number       1
loop_
_symmetry_equiv_pos_as_xyz
  x,y,z
_cell_length_a                    53.7307
_cell_length_b                    53.7307
_cell_length_c                    53.7307
_cell_angle_alpha                 90.0
_cell_angle_beta                 90.0
_cell_angle_gamma                 90.0
loop_
_atom_site_label
_atom_site_type_symbol
_atom_site_fract_x
_atom_site_fract_y
_atom_site_fract_z
V1     V     0.5   0.5   0.0
V2     V     0.5   0.0   0.5
V3     V     0.0   0.5   0.5
V4     V     0.0   0.0   0.0
V5     V     0.5   0.75   0.25
V6     V     0.5   0.25   0.75
V7     V     0.25   0.5   0.75
Er8     Er     0.375   0.375   0.875
Ti9     Ti     0.19   0.375   0.875
Ti10     Ti     0.375   0.56   0.875
Ti11     Ti     0.56   0.375   0.875
Ti12     Ti     0.375   0.375   0.69
Ti13     Ti     0.375   0.19   0.875
Ti14     Ti     0.375   0.375   0.06
V15     V     0.25   0.25   0.0
V16     V     0.75   0.5   0.25
V17     V     0.25   0.75   0.5
Er18     Er     0.625   0.625   0.125
Ti19     Ti     0.625   0.625   0.94
Ti20     Ti     0.625   0.44   0.125
Ti21     Ti     0.81   0.625   0.125
Ti22     Ti     0.44   0.625   0.125
Ti23     Ti     0.625   0.81   0.125
Ti24     Ti     0.625   0.625   0.31
V25     V     0.75   0.75   0.0
Er26     Er     0.125   0.625   0.625
Ti27     Ti     0.94   0.625   0.625
Ti28     Ti     0.125   0.81   0.625
Ti29     Ti     0.125   0.625   0.44
Ti30     Ti     0.125   0.625   0.81
Ti31     Ti     0.125   0.44   0.625
Ti32     Ti     0.31   0.625   0.625
V33     V     0.0   0.75   0.75
Er34     Er     0.875   0.875   0.875
Ti35     Ti     0.875   0.875   0.06
Ti36     Ti     0.875   0.875   0.69
Ti37     Ti     0.875   0.69   0.875
Ti38     Ti     0.69   0.875   0.875
Ti39     Ti     0.06   0.875   0.875
Ti40     Ti     0.875   0.06   0.875
Er41     Er     0.625   0.125   0.625
Ti42     Ti     0.625   0.94   0.625
Ti43     Ti     0.625   0.125   0.44
Ti44     Ti     0.625   0.125   0.81
Ti45     Ti     0.44   0.125   0.625
Ti46     Ti     0.81   0.125   0.625
Ti47     Ti     0.625   0.31   0.625
V48     V     0.75   0.0   0.75
V49     V     0.75   0.25   0.5
Er50     Er     0.375   0.875   0.375
Ti51     Ti     0.19   0.875   0.375
Ti52     Ti     0.56   0.875   0.375
Ti53     Ti     0.375   0.875   0.56
Ti54     Ti     0.375   0.69   0.375
Ti55     Ti     0.375   0.875   0.19
Ti56     Ti     0.375   0.06   0.375
V57     V     0.25   0.0   0.25
Er58     Er     0.125   0.125   0.125
Ti59     Ti     0.125   0.125   0.94
Ti60     Ti     0.125   0.94   0.125
Ti61     Ti     0.94   0.125   0.125
Ti62     Ti     0.125   0.125   0.31
Ti63     Ti     0.125   0.31   0.125
Ti64     Ti     0.31   0.125   0.125
Er65     Er     0.875   0.375   0.375
Ti66     Ti     0.875   0.375   0.19
Ti67     Ti     0.875   0.19   0.375
Ti68     Ti     0.06   0.375   0.375
Ti69     Ti     0.875   0.375   0.56
Ti70     Ti     0.875   0.56   0.375
Ti71     Ti     0.69   0.375   0.375
V72     V     0.0   0.25   0.25
loop_
_geom_bond_atom_site_label_1
_geom_bond_atom_site_label_2
_geom_bond_distance
_geom_bond_site_symmetry_2
_ccdc_geom_bond_type
V1     Ti11    10.03   1_554     S
V1     Ti10    10.03   1_554     S
V1     Ti14    10.03   .     S
V1     Ti20    10.03   .     S
V1     Ti22    10.03   .     S
V1     Ti19    10.03   1_554     S
V2     Ti52    10.03   1_545     S
V2     Ti53    10.03   1_545     S
V2     Ti56    10.03   .     S
V2     Ti45    10.03   .     S
V2     Ti43    10.03   .     S
V2     Ti42    10.03   1_545     S
V3     Ti69    10.03   1_455     S
V3     Ti70    10.03   1_455     S
V3     Ti29    10.03   .     S
V3     Ti68    10.03   .     S
V3     Ti31    10.03   .     S
V3     Ti27    10.03   1_455     S
V4     Ti39    10.03   1_544     S
V4     Ti40    10.03   1_454     S
V4     Ti35    10.03   1_445     S
V4     Ti60    10.03   1_545     S
V4     Ti61    10.03   1_455     S
V4     Ti59    10.03   1_554     S
V5     Ti24    10.03   .     S
V5     Ti22    10.03   .     S
V5     Ti54    10.03   .     S
V5     Ti23    10.03   .     S
V5     Ti52    10.03   .     S
V5     Ti55    10.03   .     S
V6     Ti12    10.03   .     S
V6     Ti47    10.03   .     S
V6     Ti45    10.03   .     S
V6     Ti44    10.03   .     S
V6     Ti11    10.03   .     S
V6     Ti13    10.03   .     S
V7     Ti32    10.03   .     S
V7     Ti12    10.03   .     S
V7     Ti31    10.03   .     S
V7     Ti30    10.03   .     S
V7     Ti10    10.03   .     S
V7     Ti9    10.03   .     S
Er8     Ti13    9.94   .     S
Er8     Ti14    9.94   1_556     S
Er8     Ti12    9.94   .     S
Er8     Ti9    9.94   .     S
Er8     Ti11    9.94   .     S
Er8     Ti10    9.94   .     S
Ti9     V15    10.03   1_556     S
Ti10     V1    10.03   1_556     S
Ti11     V1    10.03   1_556     S
Ti13     V15    10.03   1_556     S
Ti14     Er8    9.94   1_554     S
Ti14     V15    10.03   .     S
V15     Ti13    10.03   1_554     S
V15     Ti9    10.03   1_554     S
V15     Ti64    10.03   .     S
V15     Ti63    10.03   .     S
V15     Ti59    10.03   1_554     S
V16     Ti24    10.03   .     S
V16     Ti20    10.03   .     S
V16     Ti71    10.03   .     S
V16     Ti21    10.03   .     S
V16     Ti70    10.03   .     S
V16     Ti66    10.03   .     S
V17     Ti32    10.03   .     S
V17     Ti29    10.03   .     S
V17     Ti54    10.03   .     S
V17     Ti28    10.03   .     S
V17     Ti51    10.03   .     S
V17     Ti53    10.03   .     S
Er18     Ti19    9.94   1_554     S
Er18     Ti23    9.94   .     S
Er18     Ti24    9.94   .     S
Er18     Ti21    9.94   .     S
Er18     Ti22    9.94   .     S
Er18     Ti20    9.94   .     S
Ti19     Er18    9.94   1_556     S
Ti19     V1    10.03   1_556     S
Ti19     V25    10.03   1_556     S
Ti21     V25    10.03   .     S
Ti23     V25    10.03   .     S
V25     Ti19    10.03   1_554     S
V25     Ti38    10.03   1_554     S
V25     Ti37    10.03   1_554     S
V25     Ti35    10.03   .     S
Er26     Ti30    9.94   .     S
Er26     Ti28    9.94   .     S
Er26     Ti32    9.94   .     S
Er26     Ti27    9.94   1_455     S
Er26     Ti31    9.94   .     S
Er26     Ti29    9.94   .     S
Ti27     Er26    9.94   1_655     S
Ti27     V3    10.03   1_655     S
Ti27     V33    10.03   1_655     S
Ti28     V33    10.03   .     S
Ti30     V33    10.03   .     S
V33     Ti27    10.03   1_455     S
V33     Ti37    10.03   1_455     S
V33     Ti36    10.03   1_455     S
V33     Ti39    10.03   .     S
Er34     Ti40    9.94   1_565     S
Er34     Ti36    9.94   .     S
Er34     Ti35    9.94   1_556     S
Er34     Ti39    9.94   1_655     S
Er34     Ti37    9.94   .     S
Er34     Ti38    9.94   .     S
Ti35     Er34    9.94   1_554     S
Ti35     V4    10.03   1_665     S
Ti36     V33    10.03   1_655     S
Ti36     V48    10.03   1_565     S
Ti37     V25    10.03   1_556     S
Ti37     V33    10.03   1_655     S
Ti38     V25    10.03   1_556     S
Ti38     V48    10.03   1_565     S
Ti39     Er34    9.94   1_455     S
Ti39     V4    10.03   1_566     S
Ti40     Er34    9.94   1_545     S
Ti40     V4    10.03   1_656     S
Ti40     V48    10.03   .     S
Er41     Ti44    9.94   .     S
Er41     Ti46    9.94   .     S
Er41     Ti47    9.94   .     S
Er41     Ti42    9.94   1_545     S
Er41     Ti43    9.94   .     S
Er41     Ti45    9.94   .     S
Ti42     Er41    9.94   1_565     S
Ti42     V2    10.03   1_565     S
Ti42     V48    10.03   1_565     S
Ti43     V49    10.03   .     S
Ti44     V48    10.03   .     S
Ti46     V48    10.03   .     S
Ti46     V49    10.03   .     S
Ti47     V49    10.03   .     S
V48     Ti42    10.03   1_545     S
V48     Ti38    10.03   1_545     S
V48     Ti36    10.03   1_545     S
V49     Ti71    10.03   .     S
V49     Ti69    10.03   .     S
V49     Ti67    10.03   .     S
Er50     Ti55    9.94   .     S
Er50     Ti56    9.94   1_565     S
Er50     Ti54    9.94   .     S
Er50     Ti51    9.94   .     S
Er50     Ti53    9.94   .     S
Er50     Ti52    9.94   .     S
Ti51     V57    10.03   1_565     S
Ti52     V2    10.03   1_565     S
Ti53     V2    10.03   1_565     S
Ti55     V57    10.03   1_565     S
Ti56     Er50    9.94   1_545     S
Ti56     V57    10.03   .     S
V57     Ti51    10.03   1_545     S
V57     Ti55    10.03   1_545     S
V57     Ti64    10.03   .     S
V57     Ti62    10.03   .     S
V57     Ti60    10.03   1_545     S
Er58     Ti64    9.94   .     S
Er58     Ti59    9.94   1_554     S
Er58     Ti62    9.94   .     S
Er58     Ti61    9.94   1_455     S
Er58     Ti60    9.94   1_545     S
Er58     Ti63    9.94   .     S
Ti59     Er58    9.94   1_556     S
Ti59     V4    10.03   1_556     S
Ti59     V15    10.03   1_556     S
Ti60     Er58    9.94   1_565     S
Ti60     V4    10.03   1_565     S
Ti60     V57    10.03   1_565     S
Ti61     Er58    9.94   1_655     S
Ti61     V4    10.03   1_655     S
Ti61     V72    10.03   1_655     S
Ti62     V72    10.03   .     S
Ti63     V72    10.03   .     S
Er65     Ti68    9.94   1_655     S
Er65     Ti71    9.94   .     S
Er65     Ti66    9.94   .     S
Er65     Ti67    9.94   .     S
Er65     Ti69    9.94   .     S
Er65     Ti70    9.94   .     S
Ti66     V72    10.03   1_655     S
Ti67     V72    10.03   1_655     S
Ti68     Er65    9.94   1_455     S
Ti68     V72    10.03   .     S
Ti69     V3    10.03   1_655     S
Ti70     V3    10.03   1_655     S
V72     Ti67    10.03   1_455     S
V72     Ti66    10.03   1_455     S
V72     Ti61    10.03   1_455     S
