data_mgd
_audit_creation_date              2020-02-04
_audit_creation_method            'Pymatgen'
_symmetry_space_group_name_H-M    'P1'
_symmetry_Int_Tables_number       1
loop_
_symmetry_equiv_pos_as_xyz
  x,y,z
_cell_length_a                    43.6363
_cell_length_b                    43.6363
_cell_length_c                    43.6363
_cell_angle_alpha                 90.0
_cell_angle_beta                 90.0
_cell_angle_gamma                 90.0
loop_
_atom_site_label
_atom_site_type_symbol
_atom_site_fract_x
_atom_site_fract_y
_atom_site_fract_z
Er1     Er     0.125   0.125   0.125
Er2     Er     0.625   0.625   0.125
Er3     Er     0.375   0.875   0.375
Er4     Er     0.375   0.375   0.875
Er5     Er     0.125   0.625   0.625
Er6     Er     0.875   0.375   0.375
Er7     Er     0.875   0.875   0.875
Er8     Er     0.625   0.125   0.625
V9     V     0.1042   0.375   0.375
V10     V     0.1042   0.875   0.875
V11     V     0.375   0.1042   0.375
V12     V     0.375   0.375   0.1042
V13     V     0.875   0.1042   0.875
V14     V     0.875   0.875   0.1042
V15     V     0.1458   0.875   0.375
V16     V     0.1458   0.375   0.875
V17     V     0.875   0.375   0.1458
V18     V     0.375   0.1458   0.875
V19     V     0.375   0.6458   0.375
V20     V     0.8958   0.125   0.125
V21     V     0.375   0.375   0.6458
V22     V     0.6042   0.375   0.875
V23     V     0.875   0.1458   0.375
V24     V     0.375   0.875   0.1458
V25     V     0.125   0.8958   0.125
V26     V     0.3958   0.625   0.125
V27     V     0.125   0.625   0.8542
Ti28     Ti     0.25   0.75   0.0
V29     V     0.375   0.6042   0.875
V30     V     0.125   0.125   0.8958
V31     V     0.875   0.375   0.6042
V32     V     0.8542   0.125   0.625
V33     V     0.125   0.3958   0.625
Ti34     Ti     0.0   0.25   0.75
V35     V     0.6458   0.875   0.875
V36     V     0.375   0.875   0.6042
V37     V     0.6458   0.375   0.375
V38     V     0.625   0.125   0.8542
V39     V     0.625   0.3958   0.125
Ti40     Ti     0.75   0.25   0.0
V41     V     0.3542   0.125   0.125
V42     V     0.625   0.8542   0.125
V43     V     0.625   0.125   0.3958
Ti44     Ti     0.75   0.0   0.25
V45     V     0.6042   0.875   0.375
V46     V     0.125   0.3542   0.125
V47     V     0.8542   0.625   0.125
V48     V     0.125   0.625   0.3958
Ti49     Ti     0.0   0.75   0.25
V50     V     0.875   0.6042   0.375
V51     V     0.875   0.6458   0.875
V52     V     0.125   0.8542   0.625
V53     V     0.3958   0.125   0.625
Ti54     Ti     0.25   0.0   0.75
V55     V     0.625   0.625   0.3542
V56     V     0.8958   0.625   0.625
V57     V     0.625   0.3542   0.625
Ti58     Ti     0.75   0.5   0.75
V59     V     0.625   0.625   0.8958
V60     V     0.3542   0.625   0.625
Ti61     Ti     0.5   0.75   0.75
V62     V     0.625   0.8958   0.625
Ti63     Ti     0.75   0.75   0.5
V64     V     0.875   0.875   0.6458
V65     V     0.125   0.125   0.3542
Ti66     Ti     0.0   0.0   0.5
Ti67     Ti     0.25   0.25   0.5
Ti68     Ti     0.5   0.5   0.5
Ti69     Ti     0.0   0.5   0.0
Ti70     Ti     0.25   0.5   0.25
Ti71     Ti     0.5   0.0   0.0
Ti72     Ti     0.5   0.25   0.25
loop_
_geom_bond_atom_site_label_1
_geom_bond_atom_site_label_2
_geom_bond_distance
_geom_bond_site_symmetry_2
_ccdc_geom_bond_type
Er1     V41    10.0   .     S
Er1     V65    10.0   .     S
Er1     V30    10.0   1_554     S
Er1     V20    10.0   1_455     S
Er1     V25    10.0   1_545     S
Er1     V46    10.0   .     S
Er2     V59    10.0   1_554     S
Er2     V55    10.0   .     S
Er2     V42    10.0   .     S
Er2     V47    10.0   .     S
Er2     V26    10.0   .     S
Er2     V39    10.0   .     S
Er3     V15    10.0   .     S
Er3     V24    10.0   .     S
Er3     V36    10.0   .     S
Er3     V45    10.0   .     S
Er3     V19    10.0   .     S
Er3     V11    10.0   1_565     S
Er4     V18    10.0   .     S
Er4     V16    10.0   .     S
Er4     V22    10.0   .     S
Er4     V12    10.0   1_556     S
Er4     V21    10.0   .     S
Er4     V29    10.0   .     S
Er5     V60    10.0   .     S
Er5     V27    10.0   .     S
Er5     V52    10.0   .     S
Er5     V56    10.0   1_455     S
Er5     V33    10.0   .     S
Er5     V48    10.0   .     S
Er6     V17    10.0   .     S
Er6     V23    10.0   .     S
Er6     V31    10.0   .     S
Er6     V9    10.0   1_655     S
Er6     V50    10.0   .     S
Er6     V37    10.0   .     S
Er7     V64    10.0   .     S
Er7     V14    10.0   1_556     S
Er7     V13    10.0   1_565     S
Er7     V10    10.0   1_655     S
Er7     V51    10.0   .     S
Er7     V35    10.0   .     S
Er8     V57    10.0   .     S
Er8     V38    10.0   .     S
Er8     V32    10.0   .     S
Er8     V62    10.0   1_545     S
Er8     V43    10.0   .     S
Er8     V53    10.0   .     S
V9     Er6    10.0   1_455     S
V9     Ti67    10.0   .     S
V9     Ti70    10.0   .     S
V10     Er7    10.0   1_455     S
V10     Ti28    10.0   1_556     S
V10     Ti54    10.0   1_565     S
V11     Er3    10.0   1_545     S
V11     Ti67    10.0   .     S
V11     Ti72    10.0   .     S
V12     Er4    10.0   1_554     S
V12     Ti72    10.0   .     S
V12     Ti70    10.0   .     S
V13     Er7    10.0   1_545     S
V13     Ti34    10.0   1_655     S
V13     Ti40    10.0   1_556     S
V14     Er7    10.0   1_554     S
V14     Ti44    10.0   1_565     S
V14     Ti49    10.0   1_655     S
V15     Ti49    10.0   .     S
V15     Ti66    10.0   1_565     S
V16     Ti34    10.0   .     S
V16     Ti69    10.0   1_556     S
V17     Ti40    10.0   .     S
V17     Ti69    10.0   1_655     S
V18     Ti54    10.0   .     S
V18     Ti71    10.0   1_556     S
V19     Ti70    10.0   .     S
V19     Ti68    10.0   .     S
V20     Er1    10.0   1_655     S
V20     Ti40    10.0   .     S
V20     Ti44    10.0   .     S
V21     Ti67    10.0   .     S
V21     Ti68    10.0   .     S
V22     Ti40    10.0   1_556     S
V22     Ti58    10.0   .     S
V23     Ti44    10.0   .     S
V23     Ti66    10.0   1_655     S
V24     Ti28    10.0   .     S
V24     Ti71    10.0   1_565     S
V25     Er1    10.0   1_565     S
V25     Ti28    10.0   .     S
V25     Ti49    10.0   .     S
V26     Ti70    10.0   .     S
V26     Ti28    10.0   .     S
V27     Ti28    10.0   1_556     S
V27     Ti69    10.0   1_556     S
Ti28     V10    10.0   1_554     S
Ti28     V27    10.0   1_554     S
Ti28     V29    10.0   1_554     S
V29     Ti28    10.0   1_556     S
V29     Ti61    10.0   .     S
V30     Er1    10.0   1_556     S
V30     Ti54    10.0   .     S
V30     Ti34    10.0   .     S
V31     Ti58    10.0   .     S
V31     Ti34    10.0   1_655     S
V32     Ti34    10.0   1_655     S
V32     Ti66    10.0   1_655     S
V33     Ti67    10.0   .     S
V33     Ti34    10.0   .     S
Ti34     V13    10.0   1_455     S
Ti34     V31    10.0   1_455     S
Ti34     V32    10.0   1_455     S
V35     Ti71    10.0   1_566     S
V35     Ti61    10.0   .     S
V36     Ti54    10.0   1_565     S
V36     Ti61    10.0   .     S
V37     Ti72    10.0   .     S
V37     Ti68    10.0   .     S
V38     Ti40    10.0   1_556     S
V38     Ti71    10.0   1_556     S
V39     Ti72    10.0   .     S
V39     Ti40    10.0   .     S
Ti40     V13    10.0   1_554     S
Ti40     V22    10.0   1_554     S
Ti40     V38    10.0   1_554     S
V41     Ti72    10.0   .     S
V41     Ti71    10.0   .     S
V42     Ti44    10.0   1_565     S
V42     Ti71    10.0   1_565     S
V43     Ti72    10.0   .     S
V43     Ti44    10.0   .     S
Ti44     V14    10.0   1_545     S
Ti44     V42    10.0   1_545     S
Ti44     V45    10.0   1_545     S
V45     Ti63    10.0   .     S
V45     Ti44    10.0   1_565     S
V46     Ti70    10.0   .     S
V46     Ti69    10.0   .     S
V47     Ti49    10.0   1_655     S
V47     Ti69    10.0   1_655     S
V48     Ti70    10.0   .     S
V48     Ti49    10.0   .     S
Ti49     V14    10.0   1_455     S
Ti49     V47    10.0   1_455     S
Ti49     V50    10.0   1_455     S
V50     Ti63    10.0   .     S
V50     Ti49    10.0   1_655     S
V51     Ti58    10.0   .     S
V51     Ti69    10.0   1_656     S
V52     Ti54    10.0   1_565     S
V52     Ti66    10.0   1_565     S
V53     Ti67    10.0   .     S
V53     Ti54    10.0   .     S
Ti54     V10    10.0   1_545     S
Ti54     V36    10.0   1_545     S
Ti54     V52    10.0   1_545     S
V55     Ti63    10.0   .     S
V55     Ti68    10.0   .     S
V56     Er5    10.0   1_655     S
V56     Ti63    10.0   .     S
V56     Ti58    10.0   .     S
V57     Ti58    10.0   .     S
V57     Ti68    10.0   .     S
Ti58     V59    10.0   .     S
V59     Er2    10.0   1_556     S
V59     Ti61    10.0   .     S
V60     Ti61    10.0   .     S
V60     Ti68    10.0   .     S
Ti61     V62    10.0   .     S
V62     Er8    10.0   1_565     S
V62     Ti63    10.0   .     S
Ti63     V64    10.0   .     S
V64     Ti66    10.0   1_665     S
V65     Ti66    10.0   .     S
V65     Ti67    10.0   .     S
Ti66     V15    10.0   1_545     S
Ti66     V23    10.0   1_455     S
Ti66     V32    10.0   1_455     S
Ti66     V52    10.0   1_545     S
Ti66     V64    10.0   1_445     S
Ti69     V16    10.0   1_554     S
Ti69     V17    10.0   1_455     S
Ti69     V27    10.0   1_554     S
Ti69     V47    10.0   1_455     S
Ti69     V51    10.0   1_454     S
Ti71     V18    10.0   1_554     S
Ti71     V24    10.0   1_545     S
Ti71     V35    10.0   1_544     S
Ti71     V38    10.0   1_554     S
Ti71     V42    10.0   1_545     S
