data_mgzxde
_audit_creation_date              2020-02-04
_audit_creation_method            'Pymatgen'
_symmetry_space_group_name_H-M    'P1'
_symmetry_Int_Tables_number       1
loop_
_symmetry_equiv_pos_as_xyz
  x,y,z
_cell_length_a                    53.5989
_cell_length_b                    53.5989
_cell_length_c                    87.7082
_cell_angle_alpha                 90.0
_cell_angle_beta                 90.0
_cell_angle_gamma                 120.0
loop_
_atom_site_label
_atom_site_type_symbol
_atom_site_fract_x
_atom_site_fract_y
_atom_site_fract_z
B1     B     0.3327   0.1664   0.4401
B2     B     0.1664   0.3327   0.5599
B3     B     0.1664   0.3327   0.9401
B4     B     0.6673   0.8336   0.5599
B5     B     0.8336   0.1664   0.4401
B6     B     0.3327   0.1664   0.0599
B7     B     0.1664   0.8336   0.5599
B8     B     0.6673   0.8336   0.9401
B9     B     0.1664   0.8336   0.9401
B10     B     0.8336   0.6673   0.0599
B11     B     0.8336   0.6673   0.4401
S12     S     0.5199   0.6663   0.25
S13     S     0.3337   0.4801   0.25
S14     S     0.1464   0.6663   0.25
S15     S     0.1464   0.4801   0.25
S16     S     0.4801   0.3337   0.75
S17     S     0.6663   0.5199   0.75
S18     S     0.5199   0.8536   0.25
S19     S     0.3337   0.8536   0.25
S20     S     0.8536   0.5199   0.75
S21     S     0.8536   0.3337   0.75
S22     S     0.4801   0.1464   0.75
S23     S     0.6663   0.1464   0.75
H24     H     0.6712   0.8356   0.1926
H25     H     0.6712   0.8356   0.3074
H26     H     0.1644   0.3288   0.1926
H27     H     0.1644   0.3288   0.3074
H28     H     0.3288   0.1644   0.6926
H29     H     0.3288   0.1644   0.8074
H30     H     0.1644   0.8356   0.1926
H31     H     0.8356   0.6712   0.6926
H32     H     0.1644   0.8356   0.3074
H33     H     0.8356   0.6712   0.8074
H34     H     0.8356   0.1644   0.6926
He35     He     0.4974   0.9948   0.8081
He36     He     0.4974   0.9948   0.6919
He37     He     0.9948   0.4974   0.1919
He38     He     0.9948   0.4974   0.3081
He39     He     0.0052   0.5026   0.6919
He40     He     0.0052   0.5026   0.8081
He41     He     0.5026   0.4974   0.1919
He42     He     0.4974   0.5026   0.8081
He43     He     0.5026   0.0052   0.3081
He44     He     0.5026   0.4974   0.3081
Er45     Er     0.3951   0.7903   0.8421
Er46     Er     0.2097   0.6049   0.8421
Er47     Er     0.3951   0.6049   0.8421
V48     V     0.3333   0.6667   0.75
Er49     Er     0.3951   0.7903   0.6579
Er50     Er     0.2097   0.6049   0.6579
Er51     Er     0.3951   0.6049   0.6579
Er52     Er     0.7903   0.3951   0.1579
Er53     Er     0.6049   0.3951   0.1579
Er54     Er     0.6049   0.2097   0.1579
V55     V     0.6667   0.3333   0.25
Er56     Er     0.7903   0.3951   0.3421
Er57     Er     0.6049   0.3951   0.3421
Er58     Er     0.6049   0.2097   0.3421
Li59     Li     0.9338   0.5604   0.0967
Li60     Li     0.6266   0.5604   0.4033
Li61     Li     0.9338   0.5604   0.4033
Li62     Li     0.6266   0.5604   0.0967
Li63     Li     0.3734   0.9338   0.9033
Li64     Li     0.3734   0.9338   0.5967
Li65     Li     0.5604   0.6266   0.9033
Li66     Li     0.5604   0.6266   0.5967
Li67     Li     0.0662   0.4396   0.5967
Li68     Li     0.4396   0.3734   0.0967
Li69     Li     0.3734   0.4396   0.9033
Li70     Li     0.0662   0.4396   0.9033
Li71     Li     0.4396   0.3734   0.4033
Li72     Li     0.3734   0.4396   0.5967
Li73     Li     0.9338   0.3734   0.4033
Li74     Li     0.9338   0.3734   0.0967
Li75     Li     0.6266   0.0662   0.0967
Li76     Li     0.5604   0.9338   0.9033
Li77     Li     0.6266   0.0662   0.4033
Li78     Li     0.4396   0.0662   0.0967
Li79     Li     0.0662   0.6266   0.9033
Li80     Li     0.0662   0.6266   0.5967
Li81     Li     0.5604   0.9338   0.5967
C82     C     0.0   0.6754   0.0
C83     C     0.0   0.6754   0.5
C84     C     0.0   0.3246   0.5
C85     C     0.3246   0.3246   0.0
C86     C     0.3246   0.3246   0.5
C87     C     0.6754   0.6754   0.5
C88     C     0.3246   0.0   0.5
C89     C     0.6754   0.0   0.0
C90     C     0.3246   0.0   0.0
C91     C     0.6754   0.6754   0.0
Ce92     Ce     0.1233   0.0617   0.8401
Ce93     Ce     0.9383   0.8767   0.8401
Ce94     Ce     0.9383   0.0617   0.8401
Ti95     Ti     0.0   0.0   0.75
Ce96     Ce     0.9383   0.8767   0.6599
Ce97     Ce     0.1233   0.0617   0.6599
Ce98     Ce     0.9383   0.0617   0.6599
Be99     Be     0.9616   0.7355   0.9004
Be100     Be     0.9616   0.7355   0.5996
Be101     Be     0.7739   0.7355   0.9004
Be102     Be     0.2645   0.2261   0.9004
Be103     Be     0.7739   0.0384   0.9004
Be104     Be     0.9616   0.2261   0.9004
Be105     Be     0.2645   0.0384   0.9004
Be106     Be     0.7739   0.7355   0.5996
Be107     Be     0.7739   0.0384   0.5996
Be108     Be     0.2645   0.2261   0.5996
Be109     Be     0.9616   0.2261   0.5996
Be110     Be     0.2645   0.0384   0.5996
C111     C     0.6754   0.0   0.5
Ce112     Ce     0.8767   0.9383   0.1599
Ce113     Ce     0.8767   0.9383   0.3401
Ti114     Ti     0.0   0.0   0.25
Ce115     Ce     0.0617   0.1233   0.3401
Ce116     Ce     0.0617   0.9383   0.3401
Ce117     Ce     0.0617   0.1233   0.1599
Ce118     Ce     0.0617   0.9383   0.1599
Be119     Be     0.0384   0.7739   0.0996
Be120     Be     0.7355   0.7739   0.0996
Be121     Be     0.7355   0.9616   0.0996
Be122     Be     0.0384   0.7739   0.4004
Be123     Be     0.7355   0.9616   0.4004
Be124     Be     0.7355   0.7739   0.4004
Be125     Be     0.0384   0.2645   0.0996
Be126     Be     0.2261   0.9616   0.0996
Be127     Be     0.2261   0.2645   0.0996
Be128     Be     0.2261   0.9616   0.4004
Be129     Be     0.2261   0.2645   0.4004
Be130     Be     0.0384   0.2645   0.4004
C131     C     0.0   0.3246   0.0
Li132     Li     0.4396   0.0662   0.4033
He133     He     0.4974   0.5026   0.6919
He134     He     0.5026   0.0052   0.1919
H135     H     0.8356   0.1644   0.8074
B136     B     0.8336   0.1664   0.0599
loop_
_geom_bond_atom_site_label_1
_geom_bond_atom_site_label_2
_geom_bond_distance
_geom_bond_site_symmetry_2
_ccdc_geom_bond_type
B1     Be128    10.126   1_545     S
B1     Li132    10.138   .     S
B1     Be129    10.126   .     S
B1     Li71    10.138   .     S
B1     C88    10.167   .     S
B1     C86    10.167   .     S
B2     Be109    10.126   1_455     S
B2     Li67    10.138   .     S
B2     Be108    10.126   .     S
B2     Li72    10.138   .     S
B2     C84    10.167   .     S
B2     C86    10.167   .     S
B3     Be104    10.126   1_455     S
B3     Li70    10.138   .     S
B3     Be102    10.126   .     S
B3     Li69    10.138   .     S
B3     C131    10.167   1_556     S
B3     C85    10.167   1_556     S
B4     Be106    10.126   .     S
B4     Li66    10.138   .     S
B4     Be107    10.126   1_565     S
B4     Li81    10.138   .     S
B4     C87    10.167   .     S
B4     C111    10.167   1_565     S
B5     Be130    10.126   1_655     S
B5     Li73    10.138   .     S
B5     Be123    10.126   1_545     S
B5     Li77    10.138   .     S
B5     C84    10.167   1_655     S
B5     C111    10.167   .     S
B6     Be126    10.126   1_545     S
B6     Li78    10.138   .     S
B6     Be127    10.126   .     S
B6     Li68    10.138   .     S
B6     C90    10.167   .     S
B6     C85    10.167   .     S
B7     Be100    10.126   1_455     S
B7     Li80    10.138   .     S
B7     Be110    10.126   1_565     S
B7     Li64    10.138   .     S
B7     C83    10.167   .     S
B7     C88    10.167   1_565     S
B8     Be101    10.126   .     S
B8     Li65    10.138   .     S
B8     Be103    10.126   1_565     S
B8     Li76    10.138   .     S
B8     C91    10.167   1_556     S
B8     C89    10.167   1_566     S
B9     Be99    10.126   1_455     S
B9     Li79    10.138   .     S
B9     Be105    10.126   1_565     S
B9     Li63    10.138   .     S
B9     C82    10.167   1_556     S
B9     C90    10.167   1_566     S
B10     Be119    10.126   1_655     S
B10     Li59    10.138   .     S
B10     Be120    10.126   .     S
B10     Li62    10.138   .     S
B10     C82    10.167   1_655     S
B10     C91    10.167   .     S
B11     Be122    10.126   1_655     S
B11     Li61    10.138   .     S
B11     Be124    10.126   .     S
B11     Li60    10.138   .     S
B11     C83    10.167   1_655     S
B11     C87    10.167   .     S
S12     He41    10.023   .     S
S12     He44    10.023   .     S
S12     S18    10.037   .     S
S12     S13    9.98   .     S
S12     H24    9.991   .     S
S12     H25    9.991   .     S
S13     He41    10.023   .     S
S13     He44    10.023   .     S
S13     S15    10.037   .     S
S13     H27    9.991   .     S
S13     H26    9.991   .     S
S14     He38    10.023   1_455     S
S14     He37    10.023   1_455     S
S14     S19    10.037   .     S
S14     S15    9.98   .     S
S14     H32    9.991   .     S
S14     H30    9.991   .     S
S15     He38    10.023   1_455     S
S15     He37    10.023   1_455     S
S15     H26    9.991   .     S
S15     H27    9.991   .     S
S16     He42    10.023   .     S
S16     He133    10.023   .     S
S16     S22    10.037   .     S
S16     S17    9.98   .     S
S16     H28    9.991   .     S
S16     H29    9.991   .     S
S17     He42    10.023   .     S
S17     He133    10.023   .     S
S17     S20    10.037   .     S
S17     H31    9.991   .     S
S17     H33    9.991   .     S
S18     He134    10.023   1_565     S
S18     He43    10.023   1_565     S
S18     S19    9.98   .     S
S18     H25    9.991   .     S
S18     H24    9.991   .     S
S19     He134    10.023   1_565     S
S19     He43    10.023   1_565     S
S19     H30    9.991   .     S
S19     H32    9.991   .     S
S20     He40    10.023   1_655     S
S20     He39    10.023   1_655     S
S20     S21    9.98   .     S
S20     H31    9.991   .     S
S20     H33    9.991   .     S
S21     He40    10.023   1_655     S
S21     He39    10.023   1_655     S
S21     S23    10.037   .     S
S21     H34    9.991   .     S
S21     H135    9.991   .     S
S22     He35    10.023   1_545     S
S22     He36    10.023   1_545     S
S22     S23    9.98   .     S
S22     H28    9.991   .     S
S22     H29    9.991   .     S
S23     He35    10.023   1_545     S
S23     He36    10.023   1_545     S
S23     H34    9.991   .     S
S23     H135    9.991   .     S
H24     Be121    10.041   .     S
H24     Be120    10.041   .     S
H24     Ce112    9.962   .     S
H24     H25    10.064   .     S
H25     Be123    10.041   .     S
H25     Be124    10.041   .     S
H25     Ce113    9.962   .     S
H26     Be125    10.041   .     S
H26     Be127    10.041   .     S
H26     Ce117    9.962   .     S
H26     H27    10.064   .     S
H27     Be129    10.041   .     S
H27     Be130    10.041   .     S
H27     Ce115    9.962   .     S
H28     Be108    10.041   .     S
H28     Be110    10.041   .     S
H28     Ce97    9.962   .     S
H28     H29    10.064   .     S
H29     Be105    10.041   .     S
H29     Be102    10.041   .     S
H29     Ce92    9.962   .     S
H30     Be126    10.041   .     S
H30     Be119    10.041   .     S
H30     Ce118    9.962   .     S
H30     H32    10.064   .     S
H31     Be100    10.041   .     S
H31     Be106    10.041   .     S
H31     Ce96    9.962   .     S
H31     H33    10.064   .     S
H32     Be128    10.041   .     S
H32     Be122    10.041   .     S
H32     Ce116    9.962   .     S
H33     Be101    10.041   .     S
H33     Be99    10.041   .     S
H33     Ce93    9.962   .     S
H34     Be107    10.041   .     S
H34     Be109    10.041   .     S
H34     Ce98    9.962   .     S
H34     H135    10.064   .     S
He35     S22    10.023   1_565     S
He35     S23    10.023   1_565     S
He35     Er45    9.948   .     S
He35     Li76    10.142   .     S
He35     Li63    10.142   .     S
He35     He36    10.195   .     S
He36     S23    10.023   1_565     S
He36     S22    10.023   1_565     S
He36     Er49    9.948   .     S
He36     Li64    10.142   .     S
He36     Li81    10.142   .     S
He37     S15    10.023   1_655     S
He37     S14    10.023   1_655     S
He37     Er52    9.948   .     S
He37     Li59    10.142   .     S
He37     Li74    10.142   .     S
He37     He38    10.195   .     S
He38     S14    10.023   1_655     S
He38     S15    10.023   1_655     S
He38     Er56    9.948   .     S
He38     Li73    10.142   .     S
He38     Li61    10.142   .     S
He39     S20    10.023   1_455     S
He39     S21    10.023   1_455     S
He39     Er50    9.948   .     S
He39     Li67    10.142   .     S
He39     Li80    10.142   .     S
He39     He40    10.195   .     S
He40     S21    10.023   1_455     S
He40     S20    10.023   1_455     S
He40     Er46    9.948   .     S
He40     Li79    10.142   .     S
He40     Li70    10.142   .     S
He41     Er53    9.948   .     S
He41     Li68    10.142   .     S
He41     Li62    10.142   .     S
He41     He44    10.195   .     S
He42     Er47    9.948   .     S
He42     Li69    10.142   .     S
He42     Li65    10.142   .     S
He42     He133    10.195   .     S
He43     S18    10.023   1_545     S
He43     S19    10.023   1_545     S
He43     Er58    9.948   .     S
He43     Li77    10.142   .     S
He43     Li132    10.142   .     S
He43     He134    10.195   .     S
He44     Er57    9.948   .     S
He44     Li71    10.142   .     S
He44     Li60    10.142   .     S
Er45     Li63    9.915   .     S
Er45     V48    9.907   .     S
Er45     Li76    9.915   .     S
Er45     Er46    9.938   .     S
Er45     Er47    9.938   .     S
Er46     V48    9.907   .     S
Er46     Li79    9.915   .     S
Er46     Li70    9.915   .     S
Er46     Er47    9.938   .     S
Er47     V48    9.907   .     S
Er47     Li69    9.915   .     S
Er47     Li65    9.915   .     S
V48     Er50    9.907   .     S
V48     Er51    9.907   .     S
V48     Er49    9.907   .     S
Er49     Li64    9.915   .     S
Er49     Li81    9.915   .     S
Er49     Er51    9.938   .     S
Er49     Er50    9.938   .     S
Er50     Li67    9.915   .     S
Er50     Li80    9.915   .     S
Er50     Er51    9.938   .     S
Er51     He133    9.948   .     S
Er51     Li72    9.915   .     S
Er51     Li66    9.915   .     S
Er52     V55    9.907   .     S
Er52     Li74    9.915   .     S
Er52     Li59    9.915   .     S
Er52     Er54    9.938   .     S
Er52     Er53    9.938   .     S
Er53     V55    9.907   .     S
Er53     Li68    9.915   .     S
Er53     Li62    9.915   .     S
Er53     Er54    9.938   .     S
Er54     He134    9.948   .     S
Er54     V55    9.907   .     S
Er54     Li75    9.915   .     S
Er54     Li78    9.915   .     S
V55     Er57    9.907   .     S
V55     Er56    9.907   .     S
V55     Er58    9.907   .     S
Er56     Li73    9.915   .     S
Er56     Li61    9.915   .     S
Er56     Er57    9.938   .     S
Er56     Er58    9.938   .     S
Er57     Li71    9.915   .     S
Er57     Li60    9.915   .     S
Er57     Er58    9.938   .     S
Er58     Li132    9.915   .     S
Er58     Li77    9.915   .     S
Li59     C82    10.032   1_655     S
Li59     Li74    10.026   .     S
Li59     Be119    9.914   1_655     S
Li60     Li71    10.026   .     S
Li60     C87    10.032   .     S
Li60     Be124    9.914   .     S
Li61     Li73    10.026   .     S
Li61     C83    10.032   1_655     S
Li61     Be122    9.914   1_655     S
Li62     C91    10.032   .     S
Li62     Li68    10.026   .     S
Li62     Be120    9.914   .     S
Li63     Li76    10.026   .     S
Li63     C90    10.032   1_566     S
Li63     Be105    9.914   1_565     S
Li64     Li81    10.026   .     S
Li64     C88    10.032   1_565     S
Li64     Be110    9.914   1_565     S
Li65     Li69    10.026   .     S
Li65     C91    10.032   1_556     S
Li65     Be101    9.914   .     S
Li66     Li72    10.026   .     S
Li66     C87    10.032   .     S
Li66     He133    10.142   .     S
Li66     Be106    9.914   .     S
Li67     Li80    10.026   .     S
Li67     C84    10.032   .     S
Li67     Be109    9.914   1_455     S
Li68     C85    10.032   .     S
Li68     Be127    9.914   .     S
Li69     C85    10.032   1_556     S
Li69     Be102    9.914   .     S
Li70     C131    10.032   1_556     S
Li70     Li79    10.026   .     S
Li70     Be104    9.914   1_455     S
Li71     C86    10.032   .     S
Li71     Be129    9.914   .     S
Li72     C86    10.032   .     S
Li72     He133    10.142   .     S
Li72     Be108    9.914   .     S
Li73     C84    10.032   1_655     S
Li73     Be130    9.914   1_655     S
Li74     C131    10.032   1_655     S
Li74     B136    10.138   .     S
Li74     Be125    9.914   1_655     S
Li75     C89    10.032   .     S
Li75     Li78    10.026   .     S
Li75     He134    10.142   .     S
Li75     B136    10.138   .     S
Li75     Be121    9.914   1_545     S
Li76     C89    10.032   1_566     S
Li76     Be103    9.914   1_565     S
Li77     Li132    10.026   .     S
Li77     C111    10.032   .     S
Li77     Be123    9.914   1_545     S
Li78     C90    10.032   .     S
Li78     He134    10.142   .     S
Li78     Be126    9.914   1_545     S
Li79     C82    10.032   1_556     S
Li79     Be99    9.914   1_455     S
Li80     C83    10.032   .     S
Li80     Be100    9.914   1_455     S
Li81     C111    10.032   1_565     S
Li81     Be107    9.914   1_565     S
C82     Li59    10.032   1_455     S
C82     Li79    10.032   1_554     S
C82     B9    10.167   1_554     S
C82     B10    10.167   1_455     S
C82     Be99    9.875   1_454     S
C82     Be119    9.875   .     S
C83     Li61    10.032   1_455     S
C83     B11    10.167   1_455     S
C83     Be100    9.875   1_455     S
C83     Be122    9.875   .     S
C84     Li73    10.032   1_455     S
C84     B5    10.167   1_455     S
C84     Be130    9.875   .     S
C84     Be109    9.875   1_455     S
C85     Li69    10.032   1_554     S
C85     B3    10.167   1_554     S
C85     Be102    9.875   1_554     S
C85     Be127    9.875   .     S
C86     Be108    9.875   .     S
C86     Be129    9.875   .     S
C87     Be106    9.875   .     S
C87     Be124    9.875   .     S
C88     Li64    10.032   1_545     S
C88     Li132    10.032   .     S
C88     B7    10.167   1_545     S
C88     Be110    9.875   .     S
C88     Be128    9.875   1_545     S
C89     Li76    10.032   1_544     S
C89     B8    10.167   1_544     S
C89     B136    10.167   .     S
C89     Be121    9.875   1_545     S
C89     Be103    9.875   1_554     S
C90     Li63    10.032   1_544     S
C90     B9    10.167   1_544     S
C90     Be105    9.875   1_554     S
C90     Be126    9.875   1_545     S
C91     Li65    10.032   1_554     S
C91     B8    10.167   1_554     S
C91     Be101    9.875   1_554     S
C91     Be120    9.875   .     S
Ce92     Be102    9.809   .     S
Ce92     Be105    9.809   .     S
Ce92     Ce93    9.915   1_445     S
Ce92     Ce94    9.915   1_455     S
Ce92     Ti95    9.759   .     S
Ce93     Be101    9.809   .     S
Ce93     Be99    9.809   .     S
Ce93     Ce92    9.915   1_665     S
Ce93     Ce94    9.915   1_565     S
Ce93     Ti95    9.759   1_665     S
Ce94     Be103    9.809   .     S
Ce94     Be104    9.809   .     S
Ce94     H135    9.962   .     S
Ce94     Ce92    9.915   1_655     S
Ce94     Ce93    9.915   1_545     S
Ce94     Ti95    9.759   1_655     S
Ti95     Ce93    9.759   1_445     S
Ti95     Ce94    9.759   1_455     S
Ti95     Ce97    9.759   .     S
Ti95     Ce98    9.759   1_455     S
Ti95     Ce96    9.759   1_445     S
Ce96     Be106    9.809   .     S
Ce96     Be100    9.809   .     S
Ce96     Ce97    9.915   1_665     S
Ce96     Ce98    9.915   1_565     S
Ce96     Ti95    9.759   1_665     S
Ce97     Be108    9.809   .     S
Ce97     Be110    9.809   .     S
Ce97     Ce96    9.915   1_445     S
Ce97     Ce98    9.915   1_455     S
Ce98     Be107    9.809   .     S
Ce98     Be109    9.809   .     S
Ce98     Ce97    9.915   1_655     S
Ce98     Ce96    9.915   1_545     S
Ce98     Ti95    9.759   1_655     S
Be99     B9    10.126   1_655     S
Be99     Li79    9.914   1_655     S
Be99     C82    9.875   1_656     S
Be99     Be101    10.06   .     S
Be100     B7    10.126   1_655     S
Be100     Li80    9.914   1_655     S
Be100     C83    9.875   1_655     S
Be100     Be106    10.06   .     S
Be101     C91    9.875   1_556     S
Be102     C85    9.875   1_556     S
Be102     Be105    10.06   .     S
Be103     H135    10.041   .     S
Be103     B8    10.126   1_545     S
Be103     Li76    9.914   1_545     S
Be103     C89    9.875   1_556     S
Be103     Be104    10.06   .     S
Be104     H135    10.041   .     S
Be104     B3    10.126   1_655     S
Be104     Li70    9.914   1_655     S
Be104     C131    9.875   1_656     S
Be105     B9    10.126   1_545     S
Be105     Li63    9.914   1_545     S
Be105     C90    9.875   1_556     S
Be107     B4    10.126   1_545     S
Be107     Li81    9.914   1_545     S
Be107     C111    9.875   .     S
Be107     Be109    10.06   .     S
Be108     Be110    10.06   .     S
Be109     B2    10.126   1_655     S
Be109     Li67    9.914   1_655     S
Be109     C84    9.875   1_655     S
Be110     B7    10.126   1_545     S
Be110     Li64    9.914   1_545     S
C111     Li81    10.032   1_545     S
C111     B4    10.167   1_545     S
C111     Be123    9.875   1_545     S
Ce112     Be121    9.809   .     S
Ce112     Be120    9.809   .     S
Ce112     Ce118    9.915   1_655     S
Ce112     Ce117    9.915   1_665     S
Ce112     Ti114    9.759   1_665     S
Ce113     Be123    9.809   .     S
Ce113     Be124    9.809   .     S
Ce113     Ce116    9.915   1_655     S
Ce113     Ce115    9.915   1_665     S
Ce113     Ti114    9.759   1_665     S
Ti114     Ce112    9.759   1_445     S
Ti114     Ce118    9.759   1_545     S
Ti114     Ce113    9.759   1_445     S
Ti114     Ce116    9.759   1_545     S
Ti114     Ce115    9.759   .     S
Ti114     Ce117    9.759   .     S
Ce115     Be130    9.809   .     S
Ce115     Be129    9.809   .     S
Ce115     Ce116    9.915   1_545     S
Ce115     Ce113    9.915   1_445     S
Ce116     Be128    9.809   .     S
Ce116     Be122    9.809   .     S
Ce116     Ce113    9.915   1_455     S
Ce116     Ce115    9.915   1_565     S
Ce116     Ti114    9.759   1_565     S
Ce117     Be125    9.809   .     S
Ce117     Be127    9.809   .     S
Ce117     Ce118    9.915   1_545     S
Ce117     Ce112    9.915   1_445     S
Ce118     Be126    9.809   .     S
Ce118     Be119    9.809   .     S
Ce118     Ce112    9.915   1_455     S
Ce118     Ce117    9.915   1_565     S
Ce118     Ti114    9.759   1_565     S
Be119     B10    10.126   1_455     S
Be119     Li59    9.914   1_455     S
Be119     Be126    10.06   .     S
Be120     Be121    10.06   .     S
Be121     B136    10.126   1_565     S
Be121     Li75    9.914   1_565     S
Be121     C89    9.875   1_565     S
Be122     B11    10.126   1_455     S
Be122     Li61    9.914   1_455     S
Be122     Be128    10.06   .     S
Be123     B5    10.126   1_565     S
Be123     Li77    9.914   1_565     S
Be123     C111    9.875   1_565     S
Be123     Be124    10.06   .     S
Be125     B136    10.126   1_455     S
Be125     Li74    9.914   1_455     S
Be125     C131    9.875   .     S
Be125     Be127    10.06   .     S
Be126     B6    10.126   1_565     S
Be126     Li78    9.914   1_565     S
Be126     C90    9.875   1_565     S
Be128     B1    10.126   1_565     S
Be128     Li132    9.914   1_565     S
Be128     C88    9.875   1_565     S
Be129     Be130    10.06   .     S
Be130     B5    10.126   1_455     S
Be130     Li73    9.914   1_455     S
C131     Li70    10.032   1_554     S
C131     Li74    10.032   1_455     S
C131     B3    10.167   1_554     S
C131     B136    10.167   1_455     S
C131     Be104    9.875   1_454     S
Li132     Be128    9.914   1_545     S
He134     S19    10.023   1_545     S
He134     S18    10.023   1_545     S
B136     Be125    10.126   1_655     S
B136     Be121    10.126   1_545     S
B136     C131    10.167   1_655     S
