data_mgzx
_audit_creation_date              2020-02-04
_audit_creation_method            'Pymatgen'
_symmetry_space_group_name_H-M    'P1'
_symmetry_Int_Tables_number       1
loop_
_symmetry_equiv_pos_as_xyz
  x,y,z
_cell_length_a                    17.7203
_cell_length_b                    17.7203
_cell_length_c                    29.0807
_cell_angle_alpha                 90.0
_cell_angle_beta                 90.0
_cell_angle_gamma                 120.0
loop_
_atom_site_label
_atom_site_type_symbol
_atom_site_fract_x
_atom_site_fract_y
_atom_site_fract_z
Ti1     Ti     0.6667   0.3333   0.5642
Ti2     Ti     0.6667   0.3333   0.9358
Er3     Er     0.8232   0.6464   0.25
Er4     Er     0.3536   0.1768   0.25
Er5     Er     0.8232   0.1768   0.25
Er6     Er     0.1768   0.8232   0.75
Er7     Er     0.1768   0.3536   0.75
Er8     Er     0.6464   0.8232   0.75
V9     V     0.0   0.0   0.0
V10     V     0.0   0.0   0.5
Ti11     Ti     0.3333   0.6667   0.4358
Ti12     Ti     0.3333   0.6667   0.0642
loop_
_geom_bond_atom_site_label_1
_geom_bond_atom_site_label_2
_geom_bond_distance
_geom_bond_site_symmetry_2
_ccdc_geom_bond_type
Ti1     Er7    10.382   .     S
Ti1     Er8    10.382   .     S
Ti1     Er8    10.382   1_545     S
Ti1     Er6    10.382   1_545     S
Ti1     Er6    10.382   1_655     S
Ti1     Er7    10.382   1_655     S
Ti1     V10    10.4   1_655     S
Ti1     V10    10.4   .     S
Ti1     V10    10.4   1_665     S
Ti1     Ti2    10.804   .     S
Ti1     Er3    10.324   .     S
Ti1     Er4    10.324   .     S
Ti1     Er5    10.324   .     S
Ti1     Ti11    10.892   .     S
Ti1     Ti11    10.892   1_545     S
Ti1     Ti11    10.892   1_655     S
Ti2     Er8    10.382   .     S
Ti2     Er7    10.382   .     S
Ti2     Er7    10.382   1_655     S
Ti2     Er6    10.382   1_655     S
Ti2     Er6    10.382   1_545     S
Ti2     Er8    10.382   1_545     S
Ti2     V9    10.4   1_656     S
Ti2     V9    10.4   1_556     S
Ti2     V9    10.4   1_666     S
Ti2     Er4    10.324   1_556     S
Ti2     Er3    10.324   1_556     S
Ti2     Er5    10.324   1_556     S
Ti2     Ti12    10.892   1_556     S
Ti2     Ti12    10.892   1_546     S
Ti2     Ti12    10.892   1_656     S
Er3     Ti11    10.382   .     S
Er3     Ti11    10.382   1_655     S
Er3     Ti12    10.382   .     S
Er3     Ti12    10.382   1_655     S
Er3     Ti2    10.324   1_554     S
Er3     Er5    8.32   .     S
Er3     Er4    8.32   .     S
Er3     V10    9.072   1_665     S
Er3     V9    9.072   1_665     S
Er3     Er5    9.4   1_565     S
Er3     Er4    9.4   1_665     S
Er4     Ti11    10.382   .     S
Er4     Ti11    10.382   1_545     S
Er4     Ti12    10.382   .     S
Er4     Ti12    10.382   1_545     S
Er4     Ti2    10.324   1_554     S
Er4     Er5    8.32   .     S
Er4     V10    9.072   .     S
Er4     V9    9.072   .     S
Er4     Er5    9.4   1_455     S
Er4     Er3    9.4   1_445     S
Er5     Ti11    10.382   1_655     S
Er5     Ti11    10.382   1_545     S
Er5     Ti12    10.382   1_545     S
Er5     Ti12    10.382   1_655     S
Er5     Ti2    10.324   1_554     S
Er5     V10    9.072   1_655     S
Er5     V9    9.072   1_655     S
Er5     Er4    9.4   1_655     S
Er5     Er3    9.4   1_545     S
Er6     Ti1    10.382   1_565     S
Er6     Ti1    10.382   1_455     S
Er6     Ti2    10.382   1_455     S
Er6     Ti2    10.382   1_565     S
Er6     Ti11    10.324   .     S
Er6     Ti12    10.324   1_556     S
Er6     Er7    8.32   .     S
Er6     Er8    8.32   .     S
Er6     V10    9.072   1_565     S
Er6     V9    9.072   1_566     S
Er6     Er7    9.4   1_565     S
Er6     Er8    9.4   1_455     S
Er7     Ti1    10.382   1_455     S
Er7     Ti2    10.382   1_455     S
Er7     Ti11    10.324   .     S
Er7     Ti12    10.324   1_556     S
Er7     Er8    8.32   .     S
Er7     V10    9.072   .     S
Er7     V9    9.072   1_556     S
Er7     Er8    9.4   1_445     S
Er7     Er6    9.4   1_545     S
Er8     Ti1    10.382   1_565     S
Er8     Ti2    10.382   1_565     S
Er8     Ti11    10.324   .     S
Er8     Ti12    10.324   1_556     S
Er8     V10    9.072   1_665     S
Er8     V9    9.072   1_666     S
Er8     Er7    9.4   1_665     S
Er8     Er6    9.4   1_655     S
V9     Ti2    10.4   1_454     S
V9     Ti2    10.4   1_554     S
V9     Ti2    10.4   1_444     S
V9     Ti12    10.4   1_545     S
V9     Ti12    10.4   .     S
V9     Ti12    10.4   1_445     S
V9     Er7    9.072   1_554     S
V9     Er5    9.072   1_455     S
V9     Er3    9.072   1_445     S
V9     Er6    9.072   1_544     S
V9     Er8    9.072   1_444     S
V10     Ti1    10.4   1_455     S
V10     Ti1    10.4   1_445     S
V10     Ti11    10.4   1_545     S
V10     Ti11    10.4   .     S
V10     Ti11    10.4   1_445     S
V10     Er6    9.072   1_545     S
V10     Er8    9.072   1_445     S
V10     Er5    9.072   1_455     S
V10     Er3    9.072   1_445     S
Ti11     Er3    10.382   1_455     S
Ti11     Er5    10.382   1_455     S
Ti11     Er5    10.382   1_565     S
Ti11     Er4    10.382   1_565     S
Ti11     V10    10.4   1_565     S
Ti11     V10    10.4   1_665     S
Ti11     Ti12    10.804   .     S
Ti11     Ti1    10.892   1_565     S
Ti11     Ti1    10.892   1_455     S
Ti12     Er4    10.382   1_565     S
Ti12     Er5    10.382   1_565     S
Ti12     Er5    10.382   1_455     S
Ti12     Er3    10.382   1_455     S
Ti12     V9    10.4   1_565     S
Ti12     V9    10.4   1_665     S
Ti12     Er6    10.324   1_554     S
Ti12     Er7    10.324   1_554     S
Ti12     Er8    10.324   1_554     S
Ti12     Ti2    10.892   1_554     S
Ti12     Ti2    10.892   1_564     S
Ti12     Ti2    10.892   1_454     S
