data_mjha
_audit_creation_date              2020-02-04
_audit_creation_method            'Pymatgen'
_symmetry_space_group_name_H-M    'P1'
_symmetry_Int_Tables_number       1
loop_
_symmetry_equiv_pos_as_xyz
  x,y,z
_cell_length_a                    31.5771
_cell_length_b                    55.7545
_cell_length_c                    76.72
_cell_angle_alpha                 90.0
_cell_angle_beta                 90.0
_cell_angle_gamma                 90.0
loop_
_atom_site_label
_atom_site_type_symbol
_atom_site_fract_x
_atom_site_fract_y
_atom_site_fract_z
V1     V     0.8546   0.3076   0.3012
V2     V     0.1454   0.3076   0.3012
V3     V     0.8546   0.1924   0.1988
V4     V     0.1454   0.1924   0.1988
V5     V     0.8546   0.6924   0.3012
V6     V     0.1454   0.6924   0.3012
V7     V     0.8546   0.8076   0.1988
V8     V     0.1454   0.8076   0.1988
V9     V     0.6454   0.1924   0.3012
V10     V     0.3546   0.1924   0.3012
V11     V     0.3546   0.3076   0.1988
V12     V     0.6454   0.3076   0.1988
Ti13     Ti     0.6451   0.5931   0.3892
Ti14     Ti     0.3549   0.5931   0.3892
Ti15     Ti     0.6451   0.5931   0.6108
Ti16     Ti     0.3549   0.5931   0.6108
Er17     Er     0.357   0.6775   0.5
Er18     Er     0.643   0.6775   0.5
Ti19     Ti     0.6451   0.4069   0.3892
Ti20     Ti     0.3549   0.4069   0.3892
Ti21     Ti     0.6451   0.4069   0.6108
Ti22     Ti     0.3549   0.4069   0.6108
Er23     Er     0.357   0.3225   0.5
Er24     Er     0.643   0.3225   0.5
Ti25     Ti     0.1451   0.0931   0.3892
Ti26     Ti     0.8549   0.0931   0.3892
Ti27     Ti     0.1451   0.0931   0.6108
Ti28     Ti     0.8549   0.0931   0.6108
Er29     Er     0.143   0.1775   0.5
Er30     Er     0.857   0.1775   0.5
Ti31     Ti     0.1451   0.9069   0.6108
Ti32     Ti     0.8549   0.9069   0.6108
Ti33     Ti     0.1451   0.9069   0.3892
Ti34     Ti     0.8549   0.9069   0.3892
Er35     Er     0.143   0.8225   0.5
Er36     Er     0.857   0.8225   0.5
V37     V     0.6454   0.8076   0.3012
V38     V     0.3546   0.8076   0.3012
V39     V     0.6454   0.6924   0.1988
V40     V     0.3546   0.6924   0.1988
V41     V     0.6454   0.1924   0.6988
V42     V     0.3546   0.1924   0.6988
V43     V     0.6454   0.3076   0.8012
V44     V     0.3546   0.3076   0.8012
V45     V     0.8546   0.6924   0.6988
V46     V     0.1454   0.6924   0.6988
V47     V     0.8546   0.8076   0.8012
V48     V     0.1454   0.8076   0.8012
V49     V     0.8546   0.1924   0.8012
V50     V     0.1454   0.1924   0.8012
V51     V     0.8546   0.3076   0.6988
V52     V     0.1454   0.3076   0.6988
Ti53     Ti     0.1451   0.5931   0.8892
Ti54     Ti     0.8549   0.5931   0.8892
Er55     Er     0.143   0.6775   0.0
Er56     Er     0.857   0.6775   0.0
Ti57     Ti     0.1451   0.5931   0.1108
Ti58     Ti     0.8549   0.5931   0.1108
Ti59     Ti     0.1451   0.4069   0.8892
Ti60     Ti     0.8549   0.4069   0.8892
Er61     Er     0.143   0.3225   0.0
Er62     Er     0.857   0.3225   0.0
Ti63     Ti     0.1451   0.4069   0.1108
Ti64     Ti     0.8549   0.4069   0.1108
Ti65     Ti     0.6451   0.0931   0.8892
Ti66     Ti     0.3549   0.0931   0.8892
Er67     Er     0.357   0.1775   0.0
Er68     Er     0.643   0.1775   0.0
Ti69     Ti     0.6451   0.0931   0.1108
Ti70     Ti     0.3549   0.0931   0.1108
Ti71     Ti     0.6451   0.9069   0.8892
Ti72     Ti     0.3549   0.9069   0.8892
Er73     Er     0.357   0.8225   0.0
Er74     Er     0.643   0.8225   0.0
Ti75     Ti     0.6451   0.9069   0.1108
Ti76     Ti     0.3549   0.9069   0.1108
V77     V     0.3546   0.8076   0.6988
V78     V     0.6454   0.8076   0.6988
V79     V     0.6454   0.6924   0.8012
V80     V     0.3546   0.6924   0.8012
loop_
_geom_bond_atom_site_label_1
_geom_bond_atom_site_label_2
_geom_bond_distance
_geom_bond_site_symmetry_2
_ccdc_geom_bond_type
V1     V3    10.148   .     S
V1     V2    9.181   1_655     S
V1     Ti19    10.954   .     S
V2     V4    10.148   .     S
V2     V1    9.181   1_455     S
V2     Ti20    10.954   .     S
V3     V4    9.181   1_655     S
V3     Ti69    10.954   .     S
V4     V3    9.181   1_455     S
V4     Ti70    10.954   .     S
V5     V7    10.148   .     S
V5     V6    9.181   1_655     S
V5     Ti13    10.954   .     S
V6     V8    10.148   .     S
V6     V5    9.181   1_455     S
V6     Ti14    10.954   .     S
V7     V8    9.181   1_655     S
V7     Ti75    10.954   .     S
V8     V7    9.181   1_455     S
V8     Ti76    10.954   .     S
V9     V12    10.148   .     S
V9     V10    9.181   .     S
V9     Ti26    10.954   .     S
V10     V11    10.148   .     S
V10     Ti25    10.954   .     S
V11     V12    9.181   .     S
V11     Ti63    10.954   .     S
V12     Ti64    10.954   .     S
Ti13     Er18    9.718   .     S
Ti13     Ti19    10.38   .     S
Ti13     Ti14    9.163   .     S
Ti14     Er17    9.718   .     S
Ti14     Ti20    10.38   .     S
Ti15     Er18    9.718   .     S
Ti15     Ti21    10.38   .     S
Ti15     Ti16    9.163   .     S
Ti15     V45    10.954   .     S
Ti16     Er17    9.718   .     S
Ti16     Ti22    10.38   .     S
Ti16     V46    10.954   .     S
Er17     Er18    9.029   .     S
Er17     Er35    10.537   .     S
Er18     Er36    10.537   .     S
Ti19     Er24    9.718   .     S
Ti19     Ti20    9.163   .     S
Ti20     Er23    9.718   .     S
Ti21     Er24    9.718   .     S
Ti21     Ti22    9.163   .     S
Ti21     V51    10.954   .     S
Ti22     Er23    9.718   .     S
Ti22     V52    10.954   .     S
Er23     Er24    9.029   .     S
Er23     Er29    10.537   .     S
Er24     Er30    10.537   .     S
Ti25     Er29    9.718   .     S
Ti25     Ti33    10.38   1_545     S
Ti25     Ti26    9.163   1_455     S
Ti26     Er30    9.718   .     S
Ti26     Ti34    10.38   1_545     S
Ti26     Ti25    9.163   1_655     S
Ti27     Er29    9.718   .     S
Ti27     Ti31    10.38   1_545     S
Ti27     Ti28    9.163   1_455     S
Ti27     V42    10.954   .     S
Ti28     Er30    9.718   .     S
Ti28     Ti32    10.38   1_545     S
Ti28     Ti27    9.163   1_655     S
Ti28     V41    10.954   .     S
Er29     Er30    9.029   1_455     S
Er30     Er29    9.029   1_655     S
Ti31     Er35    9.718   .     S
Ti31     Ti27    10.38   1_565     S
Ti31     Ti32    9.163   1_455     S
Ti31     V77    10.954   .     S
Ti32     Er36    9.718   .     S
Ti32     Ti28    10.38   1_565     S
Ti32     Ti31    9.163   1_655     S
Ti32     V78    10.954   .     S
Ti33     Er35    9.718   .     S
Ti33     Ti25    10.38   1_565     S
Ti33     Ti34    9.163   1_455     S
Ti33     V38    10.954   .     S
Ti34     Er36    9.718   .     S
Ti34     Ti26    10.38   1_565     S
Ti34     Ti33    9.163   1_655     S
Ti34     V37    10.954   .     S
Er35     Er36    9.029   1_455     S
Er36     Er35    9.029   1_655     S
V37     V39    10.148   .     S
V37     V38    9.181   .     S
V38     V40    10.148   .     S
V39     V40    9.181   .     S
V39     Ti58    10.954   .     S
V40     Ti57    10.954   .     S
V41     V43    10.148   .     S
V41     V42    9.181   .     S
V42     V44    10.148   .     S
V43     V44    9.181   .     S
V43     Ti60    10.954   .     S
V44     Ti59    10.954   .     S
V45     V47    10.148   .     S
V45     V46    9.181   1_655     S
V46     V48    10.148   .     S
V46     V45    9.181   1_455     S
V47     V48    9.181   1_655     S
V47     Ti71    10.954   .     S
V48     V47    9.181   1_455     S
V48     Ti72    10.954   .     S
V49     V51    10.148   .     S
V49     V50    9.181   1_655     S
V49     Ti65    10.954   .     S
V50     V52    10.148   .     S
V50     V49    9.181   1_455     S
V50     Ti66    10.954   .     S
V51     V52    9.181   1_655     S
V52     V51    9.181   1_455     S
Ti53     Er55    9.718   1_556     S
Ti53     Ti59    10.38   .     S
Ti53     Ti54    9.163   1_455     S
Ti53     V80    10.954   .     S
Ti54     Er56    9.718   1_556     S
Ti54     Ti60    10.38   .     S
Ti54     Ti53    9.163   1_655     S
Ti54     V79    10.954   .     S
Er55     Ti53    9.718   1_554     S
Er55     Ti57    9.718   .     S
Er55     Er56    9.029   1_455     S
Er55     Er73    10.537   .     S
Er56     Ti54    9.718   1_554     S
Er56     Ti58    9.718   .     S
Er56     Er55    9.029   1_655     S
Er56     Er74    10.537   .     S
Ti57     Ti63    10.38   .     S
Ti57     Ti58    9.163   1_455     S
Ti58     Ti64    10.38   .     S
Ti58     Ti57    9.163   1_655     S
Ti59     Er61    9.718   1_556     S
Ti59     Ti60    9.163   1_455     S
Ti60     Er62    9.718   1_556     S
Ti60     Ti59    9.163   1_655     S
Er61     Ti59    9.718   1_554     S
Er61     Ti63    9.718   .     S
Er61     Er62    9.029   1_455     S
Er61     Er67    10.537   .     S
Er62     Ti60    9.718   1_554     S
Er62     Ti64    9.718   .     S
Er62     Er61    9.029   1_655     S
Er62     Er68    10.537   .     S
Ti63     Ti64    9.163   1_455     S
Ti64     Ti63    9.163   1_655     S
Ti65     Er68    9.718   1_556     S
Ti65     Ti71    10.38   1_545     S
Ti65     Ti66    9.163   .     S
Ti66     Er67    9.718   1_556     S
Ti66     Ti72    10.38   1_545     S
Er67     Ti66    9.718   1_554     S
Er67     Ti70    9.718   .     S
Er67     Er68    9.029   .     S
Er68     Ti65    9.718   1_554     S
Er68     Ti69    9.718   .     S
Ti69     Ti75    10.38   1_545     S
Ti69     Ti70    9.163   .     S
Ti70     Ti76    10.38   1_545     S
Ti71     Er74    9.718   1_556     S
Ti71     Ti65    10.38   1_565     S
Ti71     Ti72    9.163   .     S
Ti72     Er73    9.718   1_556     S
Ti72     Ti66    10.38   1_565     S
Er73     Ti72    9.718   1_554     S
Er73     Ti76    9.718   .     S
Er73     Er74    9.029   .     S
Er74     Ti71    9.718   1_554     S
Er74     Ti75    9.718   .     S
Ti75     Ti69    10.38   1_565     S
Ti75     Ti76    9.163   .     S
Ti76     Ti70    10.38   1_565     S
V77     V80    10.148   .     S
V77     V78    9.181   .     S
V78     V79    10.148   .     S
V79     V80    9.181   .     S
