data_mob
_audit_creation_date              2020-02-04
_audit_creation_method            'Pymatgen'
_symmetry_space_group_name_H-M    'P1'
_symmetry_Int_Tables_number       1
loop_
_symmetry_equiv_pos_as_xyz
  x,y,z
_cell_length_a                    20.0002
_cell_length_b                    20.0002
_cell_length_c                    62.9247
_cell_angle_alpha                 90.0
_cell_angle_beta                 90.0
_cell_angle_gamma                 90.0
loop_
_atom_site_label
_atom_site_type_symbol
_atom_site_fract_x
_atom_site_fract_y
_atom_site_fract_z
V1     V     0.0   0.125   0.6812
V2     V     0.0   0.625   0.6812
V3     V     0.5   0.125   0.6812
V4     V     0.5   0.625   0.6812
V5     V     0.25   0.125   0.8188
V6     V     0.25   0.625   0.8188
V7     V     0.75   0.125   0.8188
V8     V     0.75   0.625   0.8188
V9     V     0.25   0.125   0.4312
V10     V     0.25   0.625   0.4312
V11     V     0.75   0.125   0.4312
V12     V     0.75   0.625   0.4312
V13     V     0.25   0.375   0.5688
V14     V     0.25   0.875   0.5688
V15     V     0.75   0.375   0.5688
V16     V     0.75   0.875   0.5688
V17     V     0.0   0.375   0.3188
V18     V     0.0   0.875   0.3188
V19     V     0.5   0.375   0.3188
V20     V     0.5   0.875   0.3188
V21     V     0.25   0.375   0.1812
V22     V     0.25   0.875   0.1812
V23     V     0.75   0.375   0.1812
V24     V     0.75   0.875   0.1812
V25     V     0.0   0.125   0.0688
V26     V     0.0   0.625   0.0688
V27     V     0.5   0.125   0.0688
V28     V     0.5   0.625   0.0688
V29     V     0.0   0.375   0.9312
V30     V     0.0   0.875   0.9312
V31     V     0.5   0.375   0.9312
V32     V     0.5   0.875   0.9312
loop_
_geom_bond_atom_site_label_1
_geom_bond_atom_site_label_2
_geom_bond_distance
_geom_bond_site_symmetry_2
_ccdc_geom_bond_type
V1     V14    10.0   1_545     S
V1     V16    10.0   1_445     S
V1     V15    10.0   1_455     S
V1     V13    10.0   .     S
V1     V7    10.0   1_455     S
V1     V5    10.0   .     S
V1     V3    10.0   .     S
V1     V3    10.0   1_455     S
V1     V2    10.0   .     S
V1     V2    10.0   1_545     S
V2     V13    10.0   .     S
V2     V15    10.0   1_455     S
V2     V16    10.0   1_455     S
V2     V14    10.0   .     S
V2     V8    10.0   1_455     S
V2     V6    10.0   .     S
V2     V4    10.0   .     S
V2     V4    10.0   1_455     S
V2     V1    10.0   1_565     S
V3     V16    10.0   1_545     S
V3     V14    10.0   1_545     S
V3     V13    10.0   .     S
V3     V15    10.0   .     S
V3     V5    10.0   .     S
V3     V7    10.0   .     S
V3     V1    10.0   1_655     S
V3     V4    10.0   .     S
V3     V4    10.0   1_545     S
V4     V15    10.0   .     S
V4     V13    10.0   .     S
V4     V14    10.0   .     S
V4     V16    10.0   .     S
V4     V6    10.0   .     S
V4     V8    10.0   .     S
V4     V2    10.0   1_655     S
V4     V3    10.0   1_565     S
V5     V30    10.0   1_545     S
V5     V32    10.0   1_545     S
V5     V31    10.0   .     S
V5     V29    10.0   .     S
V5     V7    10.0   1_455     S
V5     V7    10.0   .     S
V5     V6    10.0   .     S
V5     V6    10.0   1_545     S
V6     V29    10.0   .     S
V6     V31    10.0   .     S
V6     V32    10.0   .     S
V6     V30    10.0   .     S
V6     V8    10.0   1_455     S
V6     V8    10.0   .     S
V6     V5    10.0   1_565     S
V7     V32    10.0   1_545     S
V7     V30    10.0   1_645     S
V7     V29    10.0   1_655     S
V7     V31    10.0   .     S
V7     V1    10.0   1_655     S
V7     V5    10.0   1_655     S
V7     V8    10.0   .     S
V7     V8    10.0   1_545     S
V8     V31    10.0   .     S
V8     V29    10.0   1_655     S
V8     V30    10.0   1_655     S
V8     V32    10.0   .     S
V8     V2    10.0   1_655     S
V8     V6    10.0   1_655     S
V8     V7    10.0   1_565     S
V9     V13    10.0   .     S
V9     V14    10.0   1_545     S
V9     V10    10.0   .     S
V9     V10    10.0   1_545     S
V9     V11    10.0   1_455     S
V9     V11    10.0   .     S
V9     V18    10.0   1_545     S
V9     V20    10.0   1_545     S
V9     V19    10.0   .     S
V9     V17    10.0   .     S
V10     V14    10.0   .     S
V10     V13    10.0   .     S
V10     V9    10.0   1_565     S
V10     V12    10.0   1_455     S
V10     V12    10.0   .     S
V10     V17    10.0   .     S
V10     V19    10.0   .     S
V10     V20    10.0   .     S
V10     V18    10.0   .     S
V11     V15    10.0   .     S
V11     V16    10.0   1_545     S
V11     V12    10.0   .     S
V11     V12    10.0   1_545     S
V11     V9    10.0   1_655     S
V11     V20    10.0   1_545     S
V11     V18    10.0   1_645     S
V11     V17    10.0   1_655     S
V11     V19    10.0   .     S
V12     V16    10.0   .     S
V12     V15    10.0   .     S
V12     V11    10.0   1_565     S
V12     V10    10.0   1_655     S
V12     V19    10.0   .     S
V12     V17    10.0   1_655     S
V12     V18    10.0   1_655     S
V12     V20    10.0   .     S
V13     V14    10.0   1_545     S
V13     V14    10.0   .     S
V13     V15    10.0   1_455     S
V13     V15    10.0   .     S
V14     V1    10.0   1_565     S
V14     V3    10.0   1_565     S
V14     V9    10.0   1_565     S
V14     V13    10.0   1_565     S
V14     V16    10.0   1_455     S
V14     V16    10.0   .     S
V15     V2    10.0   1_655     S
V15     V1    10.0   1_655     S
V15     V16    10.0   1_545     S
V15     V16    10.0   .     S
V15     V13    10.0   1_655     S
V16     V3    10.0   1_565     S
V16     V1    10.0   1_665     S
V16     V2    10.0   1_655     S
V16     V11    10.0   1_565     S
V16     V15    10.0   1_565     S
V16     V14    10.0   1_655     S
V17     V12    10.0   1_455     S
V17     V11    10.0   1_455     S
V17     V23    10.0   1_455     S
V17     V21    10.0   .     S
V17     V19    10.0   .     S
V17     V19    10.0   1_455     S
V17     V18    10.0   1_545     S
V17     V18    10.0   .     S
V18     V9    10.0   1_565     S
V18     V11    10.0   1_465     S
V18     V12    10.0   1_455     S
V18     V24    10.0   1_455     S
V18     V22    10.0   .     S
V18     V20    10.0   .     S
V18     V20    10.0   1_455     S
V18     V17    10.0   1_565     S
V19     V21    10.0   .     S
V19     V23    10.0   .     S
V19     V17    10.0   1_655     S
V19     V20    10.0   1_545     S
V19     V20    10.0   .     S
V20     V11    10.0   1_565     S
V20     V9    10.0   1_565     S
V20     V22    10.0   .     S
V20     V24    10.0   .     S
V20     V18    10.0   1_655     S
V20     V19    10.0   1_565     S
V21     V23    10.0   1_455     S
V21     V23    10.0   .     S
V21     V22    10.0   1_545     S
V21     V22    10.0   .     S
V21     V26    10.0   .     S
V21     V28    10.0   .     S
V21     V27    10.0   .     S
V21     V25    10.0   .     S
V22     V24    10.0   1_455     S
V22     V24    10.0   .     S
V22     V21    10.0   1_565     S
V22     V25    10.0   1_565     S
V22     V27    10.0   1_565     S
V22     V28    10.0   .     S
V22     V26    10.0   .     S
V23     V17    10.0   1_655     S
V23     V21    10.0   1_655     S
V23     V24    10.0   1_545     S
V23     V24    10.0   .     S
V23     V28    10.0   .     S
V23     V26    10.0   1_655     S
V23     V25    10.0   1_655     S
V23     V27    10.0   .     S
V24     V18    10.0   1_655     S
V24     V22    10.0   1_655     S
V24     V23    10.0   1_565     S
V24     V27    10.0   1_565     S
V24     V25    10.0   1_665     S
V24     V26    10.0   1_655     S
V24     V28    10.0   .     S
V25     V29    10.0   1_554     S
V25     V30    10.0   1_544     S
V25     V26    10.0   .     S
V25     V26    10.0   1_545     S
V25     V27    10.0   .     S
V25     V27    10.0   1_455     S
V25     V22    10.0   1_545     S
V25     V24    10.0   1_445     S
V25     V23    10.0   1_455     S
V26     V30    10.0   1_554     S
V26     V29    10.0   1_554     S
V26     V25    10.0   1_565     S
V26     V28    10.0   .     S
V26     V28    10.0   1_455     S
V26     V23    10.0   1_455     S
V26     V24    10.0   1_455     S
V27     V31    10.0   1_554     S
V27     V32    10.0   1_544     S
V27     V28    10.0   .     S
V27     V28    10.0   1_545     S
V27     V25    10.0   1_655     S
V27     V24    10.0   1_545     S
V27     V22    10.0   1_545     S
V28     V32    10.0   1_554     S
V28     V31    10.0   1_554     S
V28     V27    10.0   1_565     S
V28     V26    10.0   1_655     S
V29     V8    10.0   1_455     S
V29     V7    10.0   1_455     S
V29     V25    10.0   1_556     S
V29     V26    10.0   1_556     S
V29     V30    10.0   1_545     S
V29     V30    10.0   .     S
V29     V31    10.0   .     S
V29     V31    10.0   1_455     S
V30     V5    10.0   1_565     S
V30     V7    10.0   1_465     S
V30     V8    10.0   1_455     S
V30     V26    10.0   1_556     S
V30     V25    10.0   1_566     S
V30     V29    10.0   1_565     S
V30     V32    10.0   .     S
V30     V32    10.0   1_455     S
V31     V27    10.0   1_556     S
V31     V28    10.0   1_556     S
V31     V32    10.0   1_545     S
V31     V32    10.0   .     S
V31     V29    10.0   1_655     S
V32     V7    10.0   1_565     S
V32     V5    10.0   1_565     S
V32     V28    10.0   1_556     S
V32     V27    10.0   1_566     S
V32     V31    10.0   1_565     S
V32     V30    10.0   1_655     S
