data_mof
_audit_creation_date              2020-02-04
_audit_creation_method            'Pymatgen'
_symmetry_space_group_name_H-M    'P1'
_symmetry_Int_Tables_number       1
loop_
_symmetry_equiv_pos_as_xyz
  x,y,z
_cell_length_a                    66.1879
_cell_length_b                    66.1879
_cell_length_c                    66.1879
_cell_angle_alpha                 90.0
_cell_angle_beta                 90.0
_cell_angle_gamma                 90.0
loop_
_atom_site_label
_atom_site_type_symbol
_atom_site_fract_x
_atom_site_fract_y
_atom_site_fract_z
V1     V     0.25   0.25   0.25
V2     V     0.75   0.25   0.25
V3     V     0.25   0.75   0.25
V4     V     0.25   0.25   0.75
V5     V     0.75   0.75   0.25
V6     V     0.75   0.25   0.75
V7     V     0.25   0.75   0.75
V8     V     0.75   0.75   0.75
Er9     Er     0.4245   0.25   0.25
Er10     Er     0.5755   0.25   0.25
Er11     Er     0.25   0.4245   0.25
Er12     Er     0.25   0.5755   0.25
Er13     Er     0.25   0.25   0.4245
Er14     Er     0.25   0.25   0.5755
Er15     Er     0.4245   0.75   0.25
Er16     Er     0.5755   0.75   0.25
Er17     Er     0.4245   0.25   0.75
Er18     Er     0.5755   0.25   0.75
Er19     Er     0.25   0.75   0.4245
Er20     Er     0.25   0.75   0.5755
Er21     Er     0.25   0.4245   0.75
Er22     Er     0.25   0.5755   0.75
Ti23     Ti     0.3372   0.6628   0.6628
Er24     Er     0.25   0.25   0.9245
Er25     Er     0.25   0.25   0.0755
Er26     Er     0.25   0.9245   0.25
Er27     Er     0.25   0.0755   0.25
Er28     Er     0.75   0.25   0.4245
Er29     Er     0.75   0.25   0.5755
Er30     Er     0.4245   0.75   0.75
Er31     Er     0.5755   0.75   0.75
Er32     Er     0.75   0.4245   0.25
Er33     Er     0.75   0.5755   0.25
Er34     Er     0.75   0.75   0.4245
Er35     Er     0.75   0.75   0.5755
Er36     Er     0.75   0.4245   0.75
Er37     Er     0.75   0.5755   0.75
Ti38     Ti     0.6628   0.6628   0.6628
Er39     Er     0.75   0.25   0.9245
Er40     Er     0.75   0.25   0.0755
Er41     Er     0.9245   0.75   0.25
Er42     Er     0.0755   0.75   0.25
Er43     Er     0.25   0.9245   0.75
Er44     Er     0.25   0.0755   0.75
Er45     Er     0.25   0.75   0.9245
Er46     Er     0.25   0.75   0.0755
Er47     Er     0.9245   0.25   0.75
Er48     Er     0.0755   0.25   0.75
Er49     Er     0.75   0.75   0.9245
Er50     Er     0.75   0.75   0.0755
Er51     Er     0.75   0.9245   0.75
Er52     Er     0.75   0.0755   0.75
Er53     Er     0.9245   0.75   0.75
Er54     Er     0.0755   0.75   0.75
Ti55     Ti     0.8372   0.6628   0.8372
Ti56     Ti     0.8372   0.8372   0.6628
Ti57     Ti     0.6628   0.8372   0.8372
Er58     Er     0.75   0.9245   0.25
Er59     Er     0.75   0.0755   0.25
Ti60     Ti     0.6628   0.8372   0.1628
Ti61     Ti     0.1628   0.8372   0.6628
Ti62     Ti     0.8372   0.1628   0.6628
Ti63     Ti     0.6628   0.1628   0.8372
Ti64     Ti     0.1628   0.6628   0.8372
Ti65     Ti     0.8372   0.6628   0.1628
Ti66     Ti     0.8372   0.8372   0.3372
Ti67     Ti     0.3372   0.8372   0.8372
Ti68     Ti     0.8372   0.3372   0.8372
Ti69     Ti     0.6628   0.3372   0.6628
Ti70     Ti     0.6628   0.6628   0.3372
Ti71     Ti     0.1628   0.1628   0.6628
Ti72     Ti     0.1628   0.6628   0.1628
Ti73     Ti     0.1628   0.3372   0.8372
Ti74     Ti     0.3372   0.1628   0.8372
Ti75     Ti     0.6628   0.1628   0.1628
Er76     Er     0.9245   0.25   0.25
Er77     Er     0.0755   0.25   0.25
Ti78     Ti     0.8372   0.1628   0.3372
Ti79     Ti     0.8372   0.3372   0.1628
Ti80     Ti     0.1628   0.8372   0.3372
Ti81     Ti     0.3372   0.8372   0.1628
Ti82     Ti     0.3372   0.6628   0.3372
Ti83     Ti     0.6628   0.3372   0.3372
Ti84     Ti     0.3372   0.3372   0.6628
Ti85     Ti     0.1628   0.1628   0.3372
Ti86     Ti     0.3372   0.1628   0.1628
Ti87     Ti     0.1628   0.3372   0.1628
Ti88     Ti     0.3372   0.3372   0.3372
loop_
_geom_bond_atom_site_label_1
_geom_bond_atom_site_label_2
_geom_bond_distance
_geom_bond_site_symmetry_2
_ccdc_geom_bond_type
V1     Ti88    10.0   .     S
V1     Ti85    10.0   .     S
V1     Ti86    10.0   .     S
V1     Ti87    10.0   .     S
V2     Ti83    10.0   .     S
V2     Ti75    10.0   .     S
V2     Ti78    10.0   .     S
V2     Ti79    10.0   .     S
V3     Ti72    10.0   .     S
V3     Ti82    10.0   .     S
V3     Ti80    10.0   .     S
V3     Ti81    10.0   .     S
V4     Ti71    10.0   .     S
V4     Ti84    10.0   .     S
V4     Ti73    10.0   .     S
V4     Ti74    10.0   .     S
V5     Ti70    10.0   .     S
V5     Ti60    10.0   .     S
V5     Ti65    10.0   .     S
V5     Ti66    10.0   .     S
V6     Ti69    10.0   .     S
V6     Ti62    10.0   .     S
V6     Ti63    10.0   .     S
V6     Ti68    10.0   .     S
V7     Ti23    10.0   .     S
V7     Ti61    10.0   .     S
V7     Ti64    10.0   .     S
V7     Ti67    10.0   .     S
V8     Ti38    10.0   .     S
V8     Ti56    10.0   .     S
V8     Ti55    10.0   .     S
V8     Ti57    10.0   .     S
Er9     Er10    10.0   .     S
Er9     Ti88    10.0   .     S
Er9     Ti86    10.0   .     S
Er10     Ti83    10.0   .     S
Er10     Ti75    10.0   .     S
Er11     Er12    10.0   .     S
Er11     Ti88    10.0   .     S
Er11     Ti87    10.0   .     S
Er12     Ti82    10.0   .     S
Er12     Ti72    10.0   .     S
Er13     Er14    10.0   .     S
Er13     Ti88    10.0   .     S
Er13     Ti85    10.0   .     S
Er14     Ti84    10.0   .     S
Er14     Ti71    10.0   .     S
Er15     Er16    10.0   .     S
Er15     Ti82    10.0   .     S
Er15     Ti81    10.0   .     S
Er16     Ti70    10.0   .     S
Er16     Ti60    10.0   .     S
Er17     Er18    10.0   .     S
Er17     Ti84    10.0   .     S
Er17     Ti74    10.0   .     S
Er18     Ti69    10.0   .     S
Er18     Ti63    10.0   .     S
Er19     Er20    10.0   .     S
Er19     Ti82    10.0   .     S
Er19     Ti80    10.0   .     S
Er20     Ti23    10.0   .     S
Er20     Ti61    10.0   .     S
Er21     Er22    10.0   .     S
Er21     Ti84    10.0   .     S
Er21     Ti73    10.0   .     S
Er22     Ti23    10.0   .     S
Er22     Ti64    10.0   .     S
Ti23     Er30    10.0   .     S
Er24     Er25    10.0   1_556     S
Er24     Ti74    10.0   .     S
Er24     Ti73    10.0   .     S
Er25     Er24    10.0   1_554     S
Er25     Ti87    10.0   .     S
Er25     Ti86    10.0   .     S
Er26     Er27    10.0   1_565     S
Er26     Ti80    10.0   .     S
Er26     Ti81    10.0   .     S
Er27     Er26    10.0   1_545     S
Er27     Ti86    10.0   .     S
Er27     Ti85    10.0   .     S
Er28     Er29    10.0   .     S
Er28     Ti83    10.0   .     S
Er28     Ti78    10.0   .     S
Er29     Ti69    10.0   .     S
Er29     Ti62    10.0   .     S
Er30     Er31    10.0   .     S
Er30     Ti67    10.0   .     S
Er31     Ti38    10.0   .     S
Er31     Ti57    10.0   .     S
Er32     Er33    10.0   .     S
Er32     Ti83    10.0   .     S
Er32     Ti79    10.0   .     S
Er33     Ti70    10.0   .     S
Er33     Ti65    10.0   .     S
Er34     Er35    10.0   .     S
Er34     Ti70    10.0   .     S
Er34     Ti66    10.0   .     S
Er35     Ti38    10.0   .     S
Er35     Ti56    10.0   .     S
Er36     Er37    10.0   .     S
Er36     Ti69    10.0   .     S
Er36     Ti68    10.0   .     S
Er37     Ti38    10.0   .     S
Er37     Ti55    10.0   .     S
Er39     Er40    10.0   1_556     S
Er39     Ti63    10.0   .     S
Er39     Ti68    10.0   .     S
Er40     Er39    10.0   1_554     S
Er40     Ti75    10.0   .     S
Er40     Ti79    10.0   .     S
Er41     Er42    10.0   1_655     S
Er41     Ti65    10.0   .     S
Er41     Ti66    10.0   .     S
Er42     Er41    10.0   1_455     S
Er42     Ti72    10.0   .     S
Er42     Ti80    10.0   .     S
Er43     Er44    10.0   1_565     S
Er43     Ti61    10.0   .     S
Er43     Ti67    10.0   .     S
Er44     Er43    10.0   1_545     S
Er44     Ti71    10.0   .     S
Er44     Ti74    10.0   .     S
Er45     Er46    10.0   1_556     S
Er45     Ti64    10.0   .     S
Er45     Ti67    10.0   .     S
Er46     Er45    10.0   1_554     S
Er46     Ti72    10.0   .     S
Er46     Ti81    10.0   .     S
Er47     Er48    10.0   1_655     S
Er47     Ti62    10.0   .     S
Er47     Ti68    10.0   .     S
Er48     Er47    10.0   1_455     S
Er48     Ti71    10.0   .     S
Er48     Ti73    10.0   .     S
Er49     Er50    10.0   1_556     S
Er49     Ti57    10.0   .     S
Er49     Ti55    10.0   .     S
Er50     Er49    10.0   1_554     S
Er50     Ti60    10.0   .     S
Er50     Ti65    10.0   .     S
Er51     Er52    10.0   1_565     S
Er51     Ti56    10.0   .     S
Er51     Ti57    10.0   .     S
Er52     Er51    10.0   1_545     S
Er52     Ti63    10.0   .     S
Er52     Ti62    10.0   .     S
Er53     Er54    10.0   1_655     S
Er53     Ti55    10.0   .     S
Er53     Ti56    10.0   .     S
Er54     Er53    10.0   1_455     S
Er54     Ti61    10.0   .     S
Er54     Ti64    10.0   .     S
Er58     Er59    10.0   1_565     S
Er58     Ti60    10.0   .     S
Er58     Ti66    10.0   .     S
Er59     Er58    10.0   1_545     S
Er59     Ti75    10.0   .     S
Er59     Ti78    10.0   .     S
Er76     Er77    10.0   1_655     S
Er76     Ti78    10.0   .     S
Er76     Ti79    10.0   .     S
Er77     Er76    10.0   1_455     S
Er77     Ti87    10.0   .     S
Er77     Ti85    10.0   .     S
