data_mou
_audit_creation_date              2020-02-04
_audit_creation_method            'Pymatgen'
_symmetry_space_group_name_H-M    'P1'
_symmetry_Int_Tables_number       1
loop_
_symmetry_equiv_pos_as_xyz
  x,y,z
_cell_length_a                    29.9999
_cell_length_b                    29.9999
_cell_length_c                    20.0
_cell_angle_alpha                 90.0
_cell_angle_beta                 90.0
_cell_angle_gamma                 90.0
loop_
_atom_site_label
_atom_site_type_symbol
_atom_site_fract_x
_atom_site_fract_y
_atom_site_fract_z
Er1     Er     0.3333   0.0   0.0
Er2     Er     0.3333   0.0   0.5
Er3     Er     0.0   0.6667   0.0
Er4     Er     0.0   0.6667   0.5
Er5     Er     0.6667   0.0   0.0
Er6     Er     0.6667   0.0   0.5
V7     V     0.0   0.0   0.0
V8     V     0.0   0.0   0.5
Er9     Er     0.0   0.3333   0.0
Er10     Er     0.0   0.3333   0.5
loop_
_geom_bond_atom_site_label_1
_geom_bond_atom_site_label_2
_geom_bond_distance
_geom_bond_site_symmetry_2
_ccdc_geom_bond_type
Er1     V7    10.0   .     S
Er1     Er2    10.0   .     S
Er1     Er2    10.0   1_554     S
Er1     Er5    10.0   .     S
Er2     V8    10.0   .     S
Er2     Er1    10.0   1_556     S
Er2     Er6    10.0   .     S
Er3     V7    10.0   1_565     S
Er3     Er4    10.0   .     S
Er3     Er4    10.0   1_554     S
Er3     Er9    10.0   .     S
Er4     V8    10.0   1_565     S
Er4     Er3    10.0   1_556     S
Er4     Er10    10.0   .     S
Er5     V7    10.0   1_655     S
Er5     Er6    10.0   .     S
Er5     Er6    10.0   1_554     S
Er6     V8    10.0   1_655     S
Er6     Er5    10.0   1_556     S
V7     Er3    10.0   1_545     S
V7     Er5    10.0   1_455     S
V7     Er9    10.0   .     S
V8     Er4    10.0   1_545     S
V8     Er6    10.0   1_455     S
V8     Er10    10.0   .     S
Er9     Er10    10.0   .     S
Er9     Er10    10.0   1_554     S
Er10     Er9    10.0   1_556     S
