data_msd
_audit_creation_date              2020-02-04
_audit_creation_method            'Pymatgen'
_symmetry_space_group_name_H-M    'P1'
_symmetry_Int_Tables_number       1
loop_
_symmetry_equiv_pos_as_xyz
  x,y,z
_cell_length_a                    67.8454
_cell_length_b                    67.8454
_cell_length_c                    45.0244
_cell_angle_alpha                 90.0
_cell_angle_beta                 90.0
_cell_angle_gamma                 120.0
loop_
_atom_site_label
_atom_site_type_symbol
_atom_site_fract_x
_atom_site_fract_y
_atom_site_fract_z
Er1     Er     0.866   0.866   0.5463
Er2     Er     0.866   0.0   0.4537
Er3     Er     0.0   0.866   0.0463
Er4     Er     0.0   0.866   0.4537
Er5     Er     0.134   0.134   0.4537
Er6     Er     0.134   0.0   0.5463
Er7     Er     0.0   0.134   0.5463
S8     S     0.0   0.0   0.639
S9     S     0.0   0.0   0.861
Er10     Er     0.0   0.134   0.9537
Er11     Er     0.134   0.0   0.9537
Er12     Er     0.134   0.134   0.0463
S13     S     0.0   0.0   0.361
S14     S     0.0   0.0   0.139
Er15     Er     0.866   0.0   0.0463
Er16     Er     0.866   0.866   0.9537
H17     H     0.2607   0.4035   0.4332
H18     H     0.4035   0.2607   0.4332
H19     H     0.2607   0.4035   0.0668
H20     H     0.4035   0.2607   0.0668
Ti21     Ti     0.2679   0.2679   0.361
Ti22     Ti     0.2679   0.2679   0.1389
H23     H     0.4035   0.1429   0.5668
H24     H     0.4035   0.1429   0.9332
H25     H     0.2607   0.8571   0.5668
H26     H     0.2607   0.8571   0.9332
Ti27     Ti     0.2679   0.0   0.639
Ti28     Ti     0.2679   0.0   0.861
H29     H     0.1429   0.4035   0.5668
H30     H     0.8571   0.2607   0.5668
H31     H     0.1429   0.4035   0.9332
H32     H     0.8571   0.2607   0.9332
Ti33     Ti     0.0   0.2679   0.639
Ti34     Ti     0.0   0.2679   0.861
H35     H     0.7393   0.1429   0.4332
H36     H     0.5965   0.8571   0.4332
H37     H     0.5965   0.8571   0.0668
H38     H     0.7393   0.1429   0.0668
Ti39     Ti     0.7321   0.0   0.361
Ti40     Ti     0.7321   0.0   0.1389
H41     H     0.1429   0.7393   0.4332
H42     H     0.1429   0.7393   0.0668
H43     H     0.8571   0.5965   0.4332
H44     H     0.8571   0.5965   0.0668
Ti45     Ti     0.0   0.7321   0.361
Ti46     Ti     0.0   0.7321   0.1389
H47     H     0.5965   0.7393   0.5668
H48     H     0.5965   0.7393   0.9332
H49     H     0.7393   0.5965   0.5668
H50     H     0.7393   0.5965   0.9332
Ti51     Ti     0.7321   0.7321   0.639
Ti52     Ti     0.7321   0.7321   0.861
He53     He     0.503   0.7122   0.75
Ce54     Ce     0.4494   0.8253   0.75
V55     V     0.5175   0.9149   0.9355
V56     V     0.3974   0.9149   0.0645
Ce57     Ce     0.3759   0.8253   0.25
He58     He     0.2092   0.7122   0.25
V59     V     0.5175   0.9149   0.5645
V60     V     0.3974   0.9149   0.4355
Ce61     Ce     0.1747   0.6241   0.75
He62     He     0.2878   0.7908   0.75
V63     V     0.0851   0.6026   0.5645
V64     V     0.0851   0.4825   0.4355
He65     He     0.2878   0.497   0.25
Ce66     Ce     0.1747   0.5506   0.25
V67     V     0.0851   0.6026   0.9355
V68     V     0.0851   0.4825   0.0645
V69     V     0.5175   0.6026   0.4355
V70     V     0.3974   0.4825   0.5645
Ce71     Ce     0.3759   0.5506   0.75
He72     He     0.2092   0.497   0.75
V73     V     0.5175   0.6026   0.0645
V74     V     0.3974   0.4825   0.9355
Ce75     Ce     0.4494   0.6241   0.25
He76     He     0.503   0.7908   0.25
Ce77     Ce     0.6241   0.1747   0.75
He78     He     0.7908   0.2878   0.75
V79     V     0.6026   0.0851   0.5645
V80     V     0.4825   0.0851   0.4355
He81     He     0.497   0.2878   0.25
Ce82     Ce     0.5506   0.1747   0.25
V83     V     0.6026   0.0851   0.9355
V84     V     0.4825   0.0851   0.0645
V85     V     0.9149   0.5175   0.9355
V86     V     0.9149   0.3974   0.0645
V87     V     0.9149   0.5175   0.5645
V88     V     0.9149   0.3974   0.4355
He89     He     0.7122   0.503   0.75
Ce90     Ce     0.8253   0.4494   0.75
Ce91     Ce     0.8253   0.3759   0.25
He92     He     0.7122   0.2092   0.25
V93     V     0.6026   0.5175   0.0645
V94     V     0.4825   0.3974   0.9355
Ce95     Ce     0.5506   0.3759   0.75
He96     He     0.497   0.2092   0.75
V97     V     0.6026   0.5175   0.4355
V98     V     0.4825   0.3974   0.5645
Ce99     Ce     0.6241   0.4494   0.25
He100     He     0.7908   0.503   0.25
loop_
_geom_bond_atom_site_label_1
_geom_bond_atom_site_label_2
_geom_bond_distance
_geom_bond_site_symmetry_2
_ccdc_geom_bond_type
Er1     S8    10.0   1_665     S
Er1     Ti51    10.0   .     S
Er1     Er2    10.0   1_565     S
Er1     Er4    10.0   1_655     S
Er2     Er1    10.0   1_545     S
Er2     S13    10.0   1_655     S
Er2     Ti39    10.0   .     S
Er2     Er7    10.0   1_655     S
Er3     S14    10.0   1_565     S
Er3     Ti46    10.0   .     S
Er3     Er11    10.0   1_564     S
Er3     Er16    10.0   1_454     S
Er4     Er1    10.0   1_455     S
Er4     S13    10.0   1_565     S
Er4     Ti45    10.0   .     S
Er4     Er6    10.0   1_565     S
Er5     S13    10.0   .     S
Er5     Ti21    10.0   .     S
Er5     Er7    10.0   .     S
Er5     Er6    10.0   .     S
Er6     Er4    10.0   1_545     S
Er6     S8    10.0   .     S
Er6     Ti27    10.0   .     S
Er7     S8    10.0   .     S
Er7     Ti33    10.0   .     S
Er7     Er2    10.0   1_455     S
S8     Er1    10.0   1_445     S
S8     S9    10.0   .     S
S9     Er10    10.0   .     S
S9     Er11    10.0   .     S
S9     Er16    10.0   1_445     S
Er10     Ti34    10.0   .     S
Er10     Er12    10.0   1_556     S
Er10     Er15    10.0   1_456     S
Er11     Er3    10.0   1_546     S
Er11     Ti28    10.0   .     S
Er11     Er12    10.0   1_556     S
Er12     S14    10.0   .     S
Er12     Ti22    10.0   .     S
Er12     Er11    10.0   1_554     S
Er12     Er10    10.0   1_554     S
S13     Er2    10.0   1_455     S
S13     Er4    10.0   1_545     S
S13     S14    10.0   .     S
S14     Er3    10.0   1_545     S
S14     Er15    10.0   1_455     S
Er15     Ti40    10.0   .     S
Er15     S14    10.0   1_655     S
Er15     Er16    10.0   1_544     S
Er15     Er10    10.0   1_654     S
Er16     S9    10.0   1_665     S
Er16     Ti52    10.0   .     S
Er16     Er15    10.0   1_566     S
Er16     Er3    10.0   1_656     S
H17     Ti21    10.0   .     S
H17     He65    10.0   .     S
H17     H29    10.0   .     S
H17     V70    10.0   .     S
H18     Ti21    10.0   .     S
H18     He81    10.0   .     S
H18     H23    10.0   .     S
H18     V98    10.0   .     S
H19     Ti22    10.0   .     S
H19     He65    10.0   .     S
H19     H31    10.0   1_554     S
H19     V74    10.0   1_554     S
H20     Ti22    10.0   .     S
H20     He81    10.0   .     S
H20     H24    10.0   1_554     S
H20     V94    10.0   1_554     S
Ti21     Ti22    10.0   .     S
H23     Ti27    10.0   .     S
H23     He96    10.0   .     S
H23     V80    10.0   .     S
H24     Ti28    10.0   .     S
H24     He96    10.0   .     S
H24     H20    10.0   1_556     S
H24     V84    10.0   1_556     S
H25     Ti27    10.0   1_565     S
H25     He62    10.0   .     S
H25     H41    10.0   .     S
H25     V60    10.0   .     S
H26     Ti28    10.0   1_565     S
H26     He62    10.0   .     S
H26     H42    10.0   1_556     S
H26     V56    10.0   1_556     S
Ti27     H25    10.0   1_545     S
Ti27     Ti28    10.0   .     S
Ti28     H26    10.0   1_545     S
H29     Ti33    10.0   .     S
H29     He72    10.0   .     S
H29     V64    10.0   .     S
H30     Ti33    10.0   1_655     S
H30     He78    10.0   .     S
H30     H35    10.0   .     S
H30     V88    10.0   .     S
H31     Ti34    10.0   .     S
H31     He72    10.0   .     S
H31     H19    10.0   1_556     S
H31     V68    10.0   1_556     S
H32     Ti34    10.0   1_655     S
H32     He78    10.0   .     S
H32     H38    10.0   1_556     S
H32     V86    10.0   1_556     S
Ti33     H30    10.0   1_455     S
Ti33     Ti34    10.0   .     S
Ti34     H32    10.0   1_455     S
H35     Ti39    10.0   .     S
H35     He92    10.0   .     S
H35     V79    10.0   .     S
H36     Ti39    10.0   1_565     S
H36     He76    10.0   .     S
H36     H47    10.0   .     S
H36     V59    10.0   .     S
H37     Ti40    10.0   1_565     S
H37     He76    10.0   .     S
H37     H48    10.0   1_554     S
H37     V55    10.0   1_554     S
H38     Ti40    10.0   .     S
H38     He92    10.0   .     S
H38     H32    10.0   1_554     S
H38     V83    10.0   1_554     S
Ti39     H36    10.0   1_545     S
Ti39     Ti40    10.0   .     S
Ti40     H37    10.0   1_545     S
H41     Ti45    10.0   .     S
H41     He58    10.0   .     S
H41     V63    10.0   .     S
H42     H26    10.0   1_554     S
H42     Ti46    10.0   .     S
H42     He58    10.0   .     S
H42     V67    10.0   1_554     S
H43     Ti45    10.0   1_655     S
H43     He100    10.0   .     S
H43     H49    10.0   .     S
H43     V87    10.0   .     S
H44     Ti46    10.0   1_655     S
H44     He100    10.0   .     S
H44     H50    10.0   1_554     S
H44     V85    10.0   1_554     S
Ti45     H43    10.0   1_455     S
Ti45     Ti46    10.0   .     S
Ti46     H44    10.0   1_455     S
H47     Ti51    10.0   .     S
H47     He53    10.0   .     S
H47     V69    10.0   .     S
H48     H37    10.0   1_556     S
H48     Ti52    10.0   .     S
H48     He53    10.0   .     S
H48     V73    10.0   1_556     S
H49     Ti51    10.0   .     S
H49     He89    10.0   .     S
H49     V97    10.0   .     S
H50     Ti52    10.0   .     S
H50     He89    10.0   .     S
H50     H44    10.0   1_556     S
H50     V93    10.0   1_556     S
Ti51     Ti52    10.0   .     S
He53     Ce54    10.0   .     S
He53     Ce71    10.0   .     S
Ce54     V59    10.0   .     S
Ce54     V55    10.0   .     S
Ce54     He62    10.0   .     S
V55     H37    10.0   1_556     S
V55     V56    10.0   1_556     S
V55     V83    10.0   1_565     S
V56     H26    10.0   1_554     S
V56     V55    10.0   1_554     S
V56     Ce57    10.0   .     S
V56     V84    10.0   1_565     S
Ce57     He58    10.0   .     S
Ce57     V60    10.0   .     S
Ce57     He76    10.0   .     S
He58     Ce66    10.0   .     S
V59     V60    10.0   .     S
V59     V79    10.0   1_565     S
V60     V80    10.0   1_565     S
Ce61     He62    10.0   .     S
Ce61     V63    10.0   .     S
Ce61     V67    10.0   .     S
Ce61     He72    10.0   .     S
V63     V64    10.0   .     S
V63     V87    10.0   1_455     S
V64     Ce66    10.0   .     S
V64     V88    10.0   1_455     S
He65     Ce66    10.0   .     S
He65     Ce75    10.0   .     S
Ce66     V68    10.0   .     S
V67     H42    10.0   1_556     S
V67     V68    10.0   1_556     S
V67     V85    10.0   1_455     S
V68     H31    10.0   1_554     S
V68     V67    10.0   1_554     S
V68     V86    10.0   1_455     S
V69     V70    10.0   .     S
V69     Ce75    10.0   .     S
V69     V97    10.0   .     S
V70     Ce71    10.0   .     S
V70     V98    10.0   .     S
Ce71     He72    10.0   .     S
Ce71     V74    10.0   .     S
V73     H48    10.0   1_554     S
V73     V74    10.0   1_554     S
V73     Ce75    10.0   .     S
V73     V93    10.0   .     S
V74     H19    10.0   1_556     S
V74     V73    10.0   1_556     S
V74     V94    10.0   .     S
Ce75     He76    10.0   .     S
Ce77     He78    10.0   .     S
Ce77     V79    10.0   .     S
Ce77     V83    10.0   .     S
Ce77     He96    10.0   .     S
He78     Ce90    10.0   .     S
V79     V80    10.0   .     S
V79     V59    10.0   1_545     S
V80     Ce82    10.0   .     S
V80     V60    10.0   1_545     S
He81     Ce82    10.0   .     S
He81     Ce99    10.0   .     S
Ce82     V84    10.0   .     S
Ce82     He92    10.0   .     S
V83     H38    10.0   1_556     S
V83     V84    10.0   1_556     S
V83     V55    10.0   1_545     S
V84     H24    10.0   1_554     S
V84     V83    10.0   1_554     S
V84     V56    10.0   1_545     S
V85     H44    10.0   1_556     S
V85     V86    10.0   1_556     S
V85     Ce90    10.0   .     S
V85     V67    10.0   1_655     S
V86     H32    10.0   1_554     S
V86     V85    10.0   1_554     S
V86     Ce91    10.0   .     S
V86     V68    10.0   1_655     S
V87     V88    10.0   .     S
V87     Ce90    10.0   .     S
V87     V63    10.0   1_655     S
V88     Ce91    10.0   .     S
V88     V64    10.0   1_655     S
He89     Ce90    10.0   .     S
He89     Ce95    10.0   .     S
Ce91     He92    10.0   .     S
Ce91     He100    10.0   .     S
V93     H50    10.0   1_554     S
V93     V94    10.0   1_554     S
V93     Ce99    10.0   .     S
V94     H20    10.0   1_556     S
V94     V93    10.0   1_556     S
V94     Ce95    10.0   .     S
Ce95     He96    10.0   .     S
Ce95     V98    10.0   .     S
V97     V98    10.0   .     S
V97     Ce99    10.0   .     S
Ce99     He100    10.0   .     S
