data_msg
_audit_creation_date              2020-02-04
_audit_creation_method            'Pymatgen'
_symmetry_space_group_name_H-M    'P1'
_symmetry_Int_Tables_number       1
loop_
_symmetry_equiv_pos_as_xyz
  x,y,z
_cell_length_a                    174.1121
_cell_length_b                    174.1121
_cell_length_c                    19.6659
_cell_angle_alpha                 90.0
_cell_angle_beta                 90.0
_cell_angle_gamma                 120.0
loop_
_atom_site_label
_atom_site_type_symbol
_atom_site_fract_x
_atom_site_fract_y
_atom_site_fract_z
Ti1     Ti     0.9171   0.2505   0.3324
Ce2     Ce     0.907   0.2384   0.8396
Ti3     Ti     0.0   0.4162   0.6657
Ce4     Ce     0.9981   0.4264   0.1729
Ti5     Ti     0.0829   0.3333   0.999
Ce6     Ce     0.0949   0.3352   0.5062
Er7     Er     0.0365   0.333   0.5039
V8     V     0.0002   0.3586   0.6706
Er9     Er     0.9632   0.2968   0.8373
V10     V     0.0251   0.3331   0.004
Er11     Er     0.0003   0.3702   0.1706
V12     V     0.9747   0.3082   0.3373
S13     S     0.1378   0.3337   0.8358
S14     S     0.8625   0.1955   0.1691
S15     S     0.9996   0.4708   0.5025
S16     S     0.6663   0.8041   0.8358
Ti17     Ti     0.6667   0.7495   0.999
Ce18     Ce     0.6648   0.7597   0.5062
Ti19     Ti     0.7495   0.6667   0.3324
Ce20     Ce     0.7616   0.6685   0.8396
Ti21     Ti     0.5838   0.5838   0.6657
Ce22     Ce     0.5736   0.5718   0.1729
Er23     Er     0.667   0.7035   0.5039
V24     V     0.6414   0.6416   0.6706
Er25     Er     0.6298   0.6302   0.1706
V26     V     0.6918   0.6664   0.3373
Er27     Er     0.7032   0.6663   0.8373
V28     V     0.6669   0.692   0.004
S29     S     0.5292   0.5288   0.5025
S30     S     0.8045   0.667   0.1691
S31     S     0.4708   0.4712   0.4975
S32     S     0.3337   0.1959   0.1642
Ti33     Ti     0.3333   0.2504   0.001
Ce34     Ce     0.3352   0.2403   0.4938
Ti35     Ti     0.2505   0.3333   0.6676
Ce36     Ce     0.2384   0.3315   0.1604
Ti37     Ti     0.4162   0.4162   0.3343
Ce38     Ce     0.4264   0.4282   0.8271
Er39     Er     0.3702   0.3698   0.8294
V40     V     0.3082   0.3336   0.6627
Er41     Er     0.2968   0.3337   0.1627
V42     V     0.3331   0.308   0.996
Er43     Er     0.333   0.2965   0.4961
V44     V     0.3586   0.3584   0.3294
S45     S     0.1955   0.333   0.8309
S46     S     0.1959   0.8622   0.8358
Ti47     Ti     0.4162   1.0   0.6657
Ce48     Ce     0.4282   0.0019   0.1729
Ti49     Ti     0.2504   0.9171   0.999
Ce50     Ce     0.2403   0.9051   0.5062
Ti51     Ti     0.3333   0.0829   0.3324
Ce52     Ce     0.3315   0.093   0.8396
Er53     Er     0.2965   0.9635   0.5039
V54     V     0.3584   0.9998   0.6706
Er55     Er     0.3698   0.9997   0.1706
V56     V     0.3336   0.0253   0.3373
Er57     Er     0.3337   0.0368   0.8373
V58     V     0.308   0.9749   0.004
S59     S     0.333   0.1375   0.1691
S60     S     0.4712   0.0004   0.5025
Ti61     Ti     0.5838   0.0   0.3343
Ce62     Ce     0.5718   0.9981   0.8271
Ti63     Ti     0.7495   0.0829   0.001
Ce64     Ce     0.7597   0.0949   0.4938
Ti65     Ti     0.6667   0.9171   0.6676
Ce66     Ce     0.6685   0.907   0.1604
Er67     Er     0.6302   0.0003   0.8294
V68     V     0.6664   0.9747   0.6627
Er69     Er     0.6663   0.9632   0.1627
V70     V     0.692   0.0251   0.996
Er71     Er     0.7035   0.0365   0.4961
V72     V     0.6416   0.0002   0.3294
S73     S     0.5288   0.9996   0.4975
S74     S     0.8041   0.1378   0.1642
S75     S     0.667   0.8625   0.8309
S76     S     0.8622   0.6663   0.1642
S77     S     0.1375   0.8045   0.8309
Ti78     Ti     0.0829   0.7495   0.6676
Ce79     Ce     0.093   0.7616   0.1604
Ti80     Ti     1.0   0.5838   0.3343
Ce81     Ce     0.0019   0.5736   0.8271
Ti82     Ti     0.9171   0.6667   0.001
Ce83     Ce     0.9051   0.6648   0.4938
Er84     Er     0.9635   0.667   0.4961
V85     V     0.9998   0.6414   0.3294
Er86     Er     0.9997   0.6298   0.8294
V87     V     0.0253   0.6918   0.6627
Er88     Er     0.0368   0.7032   0.1627
V89     V     0.9749   0.6669   0.996
S90     S     0.0004   0.5292   0.4975
loop_
_geom_bond_atom_site_label_1
_geom_bond_atom_site_label_2
_geom_bond_distance
_geom_bond_site_symmetry_2
_ccdc_geom_bond_type
Ti1     Ce2    9.886   1_554     S
Ti1     V12    10.042   .     S
Ti1     S14    10.061   .     S
Ce2     Ti1    9.886   1_556     S
Ce2     S14    9.993   1_556     S
Ce2     Er9    9.985   .     S
Ti3     Ce4    9.886   1_455     S
Ti3     V8    10.042   .     S
Ti3     S15    10.061   1_455     S
Ce4     Ti3    9.886   1_655     S
Ce4     S15    9.993   .     S
Ce4     Er11    9.985   1_655     S
Ti5     Ce6    9.886   .     S
Ti5     V10    10.042   1_556     S
Ti5     S13    10.061   .     S
Ce6     S13    9.993   .     S
Ce6     Er7    9.985   .     S
Er7     V12    9.937   1_455     S
Er7     V8    9.937   .     S
Er7     V10    10.034   1_556     S
Er7     V10    10.032   .     S
V8     Er9    9.937   1_455     S
V8     V12    10.037   1_455     S
V8     Er11    10.034   .     S
V8     V10    10.037   1_556     S
V8     Er11    10.032   1_556     S
Er9     V8    9.937   1_655     S
Er9     V10    9.937   1_656     S
Er9     V12    10.032   .     S
Er9     V12    10.034   1_556     S
V10     Er9    9.937   1_454     S
V10     Er11    9.937   .     S
V10     V8    10.037   1_554     S
V10     Er7    10.034   1_554     S
V10     V12    10.037   1_455     S
V10     Ti5    10.042   1_554     S
Er11     V12    9.937   1_455     S
Er11     V8    10.032   1_554     S
Er11     Ce4    9.985   1_455     S
V12     Er7    9.937   1_655     S
V12     Er11    9.937   1_655     S
V12     V8    10.037   1_655     S
V12     V10    10.037   1_655     S
V12     Er9    10.034   1_554     S
S13     S45    10.108   .     S
S14     Ce2    9.993   1_554     S
S14     S74    10.108   .     S
S15     S90    10.108   1_655     S
S15     Ti3    10.061   1_655     S
S16     Ce18    9.993   .     S
S16     S75    10.108   .     S
S16     Ti17    10.061   .     S
Ti17     Ce18    9.886   .     S
Ti17     V28    10.042   1_556     S
Ce18     Er23    9.985   .     S
Ti19     Ce20    9.886   1_554     S
Ti19     V26    10.042   .     S
Ti19     S30    10.061   .     S
Ce20     Ti19    9.886   1_556     S
Ce20     S30    9.993   1_556     S
Ce20     Er27    9.985   .     S
Ti21     Ce22    9.886   .     S
Ti21     V24    10.042   .     S
Ti21     S29    10.061   .     S
Ce22     S29    9.993   .     S
Ce22     Er25    9.985   .     S
Er23     V26    9.937   .     S
Er23     V24    9.937   .     S
Er23     V28    10.032   .     S
Er23     V28    10.034   1_556     S
V24     Er27    9.937   .     S
V24     V26    10.037   .     S
V24     Er25    10.034   .     S
V24     V28    10.037   1_556     S
V24     Er25    10.032   1_556     S
Er25     V28    9.937   .     S
Er25     V26    9.937   .     S
Er25     V24    10.032   1_554     S
V26     Er27    10.032   .     S
V26     V28    10.037   .     S
V26     Er27    10.034   1_554     S
Er27     V28    9.937   1_556     S
Er27     V26    10.034   1_556     S
V28     Er27    9.937   1_554     S
V28     V24    10.037   1_554     S
V28     Er23    10.034   1_554     S
V28     Ti17    10.042   1_554     S
S29     S31    10.108   .     S
S30     Ce20    9.993   1_554     S
S30     S76    10.108   .     S
S31     Ce38    9.993   .     S
S31     Ti37    10.061   .     S
S32     Ce34    9.993   .     S
S32     S59    10.108   .     S
S32     Ti33    10.061   .     S
Ti33     Ce34    9.886   .     S
Ti33     V42    10.042   1_554     S
Ce34     Er43    9.985   .     S
Ti35     Ce36    9.886   1_556     S
Ti35     V40    10.042   .     S
Ti35     S45    10.061   .     S
Ce36     Ti35    9.886   1_554     S
Ce36     Er41    9.985   .     S
Ce36     S45    9.993   1_554     S
Ti37     Ce38    9.886   .     S
Ti37     V44    10.042   .     S
Ce38     Er39    9.985   .     S
Er39     V42    9.937   .     S
Er39     V40    9.937   .     S
Er39     V44    10.032   1_556     S
Er39     V44    10.034   .     S
V40     Er43    9.937   .     S
V40     V42    10.037   .     S
V40     Er41    10.034   1_556     S
V40     V44    10.037   .     S
V40     Er41    10.032   .     S
Er41     V44    9.937   .     S
Er41     V42    9.937   1_554     S
Er41     V40    10.034   1_554     S
V42     Er41    9.937   1_556     S
V42     Er43    10.032   .     S
V42     V44    10.037   1_556     S
V42     Er43    10.034   1_556     S
V42     Ti33    10.042   1_556     S
Er43     V44    9.937   .     S
Er43     V42    10.034   1_554     S
V44     V42    10.037   1_554     S
V44     Er39    10.032   1_554     S
S45     Ce36    9.993   1_556     S
S46     Ce50    9.993   .     S
S46     S77    10.108   .     S
S46     Ti49    10.061   .     S
Ti47     Ce48    9.886   1_565     S
Ti47     V54    10.042   .     S
Ti47     S60    10.061   1_565     S
Ce48     Ti47    9.886   1_545     S
Ce48     S60    9.993   .     S
Ce48     Er55    9.985   1_545     S
Ti49     Ce50    9.886   .     S
Ti49     V58    10.042   1_556     S
Ce50     Er53    9.985   .     S
Ti51     Ce52    9.886   1_554     S
Ti51     V56    10.042   .     S
Ti51     S59    10.061   .     S
Ce52     Ti51    9.886   1_556     S
Ce52     S59    9.993   1_556     S
Ce52     Er57    9.985   .     S
Er53     V56    9.937   1_565     S
Er53     V54    9.937   .     S
Er53     V58    10.032   .     S
Er53     V58    10.034   1_556     S
V54     Er57    9.937   1_565     S
V54     V56    10.037   1_565     S
V54     Er55    10.034   .     S
V54     V58    10.037   1_556     S
V54     Er55    10.032   1_556     S
Er55     V58    9.937   .     S
Er55     V56    9.937   1_565     S
Er55     V54    10.032   1_554     S
Er55     Ce48    9.985   1_565     S
V56     Er53    9.937   1_545     S
V56     Er55    9.937   1_545     S
V56     V54    10.037   1_545     S
V56     Er57    10.032   .     S
V56     V58    10.037   1_545     S
V56     Er57    10.034   1_554     S
Er57     V54    9.937   1_545     S
Er57     V58    9.937   1_546     S
Er57     V56    10.034   1_556     S
V58     Er57    9.937   1_564     S
V58     V56    10.037   1_565     S
V58     V54    10.037   1_554     S
V58     Er53    10.034   1_554     S
V58     Ti49    10.042   1_554     S
S59     Ce52    9.993   1_554     S
S60     S73    10.108   1_545     S
S60     Ti47    10.061   1_545     S
Ti61     Ce62    9.886   1_545     S
Ti61     V72    10.042   .     S
Ti61     S73    10.061   1_545     S
Ce62     Ti61    9.886   1_565     S
Ce62     S73    9.993   .     S
Ce62     Er67    9.985   1_565     S
Ti63     Ce64    9.886   .     S
Ti63     V70    10.042   1_554     S
Ti63     S74    10.061   .     S
Ce64     S74    9.993   .     S
Ce64     Er71    9.985   .     S
Ti65     Ce66    9.886   1_556     S
Ti65     V68    10.042   .     S
Ti65     S75    10.061   .     S
Ce66     Ti65    9.886   1_554     S
Ce66     S75    9.993   1_554     S
Ce66     Er69    9.985   .     S
Er67     V70    9.937   .     S
Er67     V68    9.937   1_545     S
Er67     V72    10.032   1_556     S
Er67     V72    10.034   .     S
Er67     Ce62    9.985   1_545     S
V68     Er67    9.937   1_565     S
V68     Er71    9.937   1_565     S
V68     V70    10.037   1_565     S
V68     Er69    10.034   1_556     S
V68     V72    10.037   1_565     S
V68     Er69    10.032   .     S
Er69     V72    9.937   1_565     S
Er69     V70    9.937   1_564     S
Er69     V68    10.034   1_554     S
V70     Er69    9.937   1_546     S
V70     V68    10.037   1_545     S
V70     Er71    10.032   .     S
V70     V72    10.037   1_556     S
V70     Er71    10.034   1_556     S
V70     Ti63    10.042   1_556     S
Er71     V68    9.937   1_545     S
Er71     V72    9.937   .     S
Er71     V70    10.034   1_554     S
V72     Er69    9.937   1_545     S
V72     V70    10.037   1_554     S
V72     Er67    10.032   1_554     S
V72     V68    10.037   1_545     S
S73     S60    10.108   1_565     S
S73     Ti61    10.061   1_565     S
S75     Ce66    9.993   1_556     S
S76     Ce83    9.993   .     S
S76     Ti82    10.061   .     S
S77     Ce79    9.993   1_556     S
S77     Ti78    10.061   .     S
Ti78     Ce79    9.886   1_556     S
Ti78     V87    10.042   .     S
Ce79     Ti78    9.886   1_554     S
Ce79     S77    9.993   1_554     S
Ce79     Er88    9.985   .     S
Ti80     Ce81    9.886   1_655     S
Ti80     V85    10.042   .     S
Ti80     S90    10.061   1_655     S
Ce81     Ti80    9.886   1_455     S
Ce81     Er86    9.985   1_455     S
Ce81     S90    9.993   .     S
Ti82     Ce83    9.886   .     S
Ti82     V89    10.042   1_554     S
Ce83     Er84    9.985   .     S
Er84     V87    9.937   1_655     S
Er84     V85    9.937   .     S
Er84     V89    10.032   .     S
Er84     V89    10.034   1_554     S
V85     Er88    9.937   1_655     S
V85     V87    10.037   1_655     S
V85     Er86    10.034   .     S
V85     V89    10.037   1_554     S
V85     Er86    10.032   1_554     S
Er86     V89    9.937   .     S
Er86     V87    9.937   1_655     S
Er86     V85    10.032   1_556     S
Er86     Ce81    9.985   1_655     S
V87     Er84    9.937   1_455     S
V87     Er86    9.937   1_455     S
V87     V85    10.037   1_455     S
V87     Er88    10.032   .     S
V87     V89    10.037   1_455     S
V87     Er88    10.034   1_556     S
Er88     V85    9.937   1_455     S
Er88     V89    9.937   1_454     S
Er88     V87    10.034   1_554     S
V89     Er88    9.937   1_656     S
V89     V87    10.037   1_655     S
V89     V85    10.037   1_556     S
V89     Er84    10.034   1_556     S
V89     Ti82    10.042   1_556     S
S90     S15    10.108   1_455     S
S90     Ti80    10.061   1_455     S
