data_msh
_audit_creation_date              2020-02-04
_audit_creation_method            'Pymatgen'
_symmetry_space_group_name_H-M    'P1'
_symmetry_Int_Tables_number       1
loop_
_symmetry_equiv_pos_as_xyz
  x,y,z
_cell_length_a                    116.2633
_cell_length_b                    116.2633
_cell_length_c                    19.5571
_cell_angle_alpha                 90.0
_cell_angle_beta                 90.0
_cell_angle_gamma                 120.0
loop_
_atom_site_label
_atom_site_type_symbol
_atom_site_fract_x
_atom_site_fract_y
_atom_site_fract_z
Ce1     Ce     0.7244   0.9052   0.2476
Ce2     Ce     0.8475   0.6089   0.5809
Ce3     Ce     0.8475   0.2385   0.5809
Ce4     Ce     0.7615   0.1525   0.5809
Er5     Er     0.6657   0.9438   0.1667
V6     V     0.7047   0.0373   0.0
Er7     Er     0.6115   0.001   0.8333
V8     V     0.666   0.962   0.6667
Er9     Er     0.7228   0.0551   0.5
V10     V     0.6294   0.0007   0.3333
Ce11     Ce     0.0577   0.5719   0.9143
Ce12     Ce     0.0577   0.4859   0.9143
Ce13     Ce     0.0948   0.2756   0.2476
Er14     Er     0.0562   0.3343   0.1667
V15     V     0.9627   0.2953   0.0
Er16     Er     0.9449   0.2772   0.5
V17     V     0.9993   0.3706   0.3333
Er18     Er     0.999   0.3885   0.8333
V19     V     0.038   0.334   0.6667
Ce20     Ce     0.5141   0.9423   0.9143
Ce21     Ce     0.4281   0.9423   0.9143
Er22     Er     0.3323   0.0551   0.5
V23     V     0.3713   0.0007   0.3333
Er24     Er     0.2782   0.9438   0.1667
V25     V     0.3326   0.0373   0.0
Er26     Er     0.3895   0.001   0.8333
V27     V     0.296   0.962   0.6667
Ce28     Ce     0.1808   0.9052   0.2476
Ce29     Ce     0.0948   0.8192   0.2476
Er30     Er     0.9449   0.6677   0.5
V31     V     0.9993   0.6287   0.3333
Er32     Er     0.999   0.6105   0.8333
V33     V     0.038   0.704   0.6667
Er34     Er     0.0562   0.7218   0.1667
V35     V     0.9627   0.6674   0.0
Ce36     Ce     0.7615   0.6089   0.5809
Ce37     Ce     0.7244   0.8192   0.2476
Er38     Er     0.6657   0.7218   0.1667
V39     V     0.7047   0.6674   0.0
Er40     Er     0.6115   0.6105   0.8333
V41     V     0.666   0.704   0.6667
Er42     Er     0.7228   0.6677   0.5
V43     V     0.6294   0.6287   0.3333
Ce44     Ce     0.1808   0.2756   0.2476
Ce45     Ce     0.5141   0.5719   0.9143
Ce46     Ce     0.4281   0.4859   0.9143
Ce47     Ce     0.3911   0.1525   0.5809
Ce48     Ce     0.3911   0.2385   0.5809
Er49     Er     0.2782   0.3343   0.1667
V50     V     0.3326   0.2953   0.0
Er51     Er     0.3895   0.3885   0.8333
V52     V     0.296   0.334   0.6667
Er53     Er     0.3323   0.2772   0.5
V54     V     0.3713   0.3706   0.3333
Ti55     Ti     0.7909   0.1231   0.9929
Ti56     Ti     0.8769   0.2091   0.9929
Ti57     Ti     0.4576   0.0011   0.3262
Ti58     Ti     0.9989   0.5424   0.3262
Ti59     Ti     0.1242   0.3345   0.6595
Ti60     Ti     0.6655   0.8758   0.6595
Ti61     Ti     0.9989   0.4564   0.3262
Ti62     Ti     0.5436   0.0011   0.3262
Ti63     Ti     0.2102   0.3345   0.6595
Ti64     Ti     0.6655   0.7898   0.6595
Ti65     Ti     0.2102   0.8758   0.6595
Ti66     Ti     0.1242   0.7898   0.6595
Ti67     Ti     0.5436   0.5424   0.3262
Ti68     Ti     0.4576   0.4564   0.3262
Ti69     Ti     0.3322   0.1231   0.9929
Ti70     Ti     0.8769   0.6678   0.9929
Ti71     Ti     0.3322   0.2091   0.9929
Ti72     Ti     0.7909   0.6678   0.9929
loop_
_geom_bond_atom_site_label_1
_geom_bond_atom_site_label_2
_geom_bond_distance
_geom_bond_site_symmetry_2
_ccdc_geom_bond_type
Ce1     Ce37    10.0   .     S
Ce1     Ti60    10.0   .     S
Ce1     Er5    10.0   .     S
Ce2     Ce36    10.0   .     S
Ce2     Ti70    10.0   .     S
Ce2     Er30    10.0   .     S
Ce3     Ce4    10.0   .     S
Ce3     Ti56    10.0   .     S
Ce3     Er16    10.0   .     S
Ce4     Ti55    10.0   .     S
Ce4     Er9    10.0   .     S
Er5     V10    9.999   1_565     S
Er5     V6    9.999   1_565     S
Er5     V8    10.0   .     S
Er5     V8    10.0   1_554     S
V6     V10    10.0   .     S
V6     Er5    9.999   1_545     S
V6     Ti55    10.0   1_554     S
V6     Er7    9.999   1_554     S
V6     V8    10.0   1_544     S
V6     Er9    10.0   1_554     S
V6     Er9    10.0   .     S
Er7     V6    9.999   1_556     S
Er7     V8    9.999   1_545     S
Er7     V10    10.0   1_556     S
Er7     V10    10.0   .     S
Er7     Ce20    10.0   1_545     S
V8     V6    10.0   1_566     S
V8     Er7    9.999   1_565     S
V8     Ti60    10.0   .     S
V8     Er9    9.999   1_565     S
V8     V10    10.0   1_565     S
V8     Er5    10.0   1_556     S
Er9     V8    9.999   1_545     S
Er9     V10    9.999   .     S
Er9     V6    10.0   1_556     S
V10     Er5    9.999   1_545     S
V10     Er7    10.0   1_554     S
V10     V8    10.0   1_545     S
V10     Ti62    10.0   .     S
Ce11     Ce12    10.0   .     S
Ce11     Ti58    10.0   1_456     S
Ce11     Er32    10.0   1_455     S
Ce12     Ti61    10.0   1_456     S
Ce12     Er18    10.0   1_455     S
Ce13     Ti59    10.0   .     S
Ce13     Er14    10.0   .     S
Ce13     Ce44    10.0   .     S
Er14     V17    9.999   1_455     S
Er14     V15    9.999   1_455     S
Er14     V19    10.0   .     S
Er14     V19    10.0   1_554     S
V15     V17    10.0   .     S
V15     Er14    9.999   1_655     S
V15     Ti56    10.0   1_554     S
V15     Er16    10.0   1_554     S
V15     Er18    9.999   1_554     S
V15     V19    10.0   1_654     S
V15     Er16    10.0   .     S
Er16     V19    9.999   1_655     S
Er16     V17    9.999   .     S
Er16     V15    10.0   1_556     S
V17     Er14    9.999   1_655     S
V17     V19    10.0   1_655     S
V17     Ti61    10.0   .     S
V17     Er18    10.0   1_554     S
V17     Er18    10.0   .     S
Er18     V15    9.999   1_556     S
Er18     V19    9.999   1_655     S
Er18     V17    10.0   1_556     S
Er18     Ce12    10.0   1_655     S
V19     Er16    9.999   1_455     S
V19     V17    10.0   1_455     S
V19     V15    10.0   1_456     S
V19     Er18    9.999   1_455     S
V19     Ti59    10.0   .     S
V19     Er14    10.0   1_556     S
Ce20     Er7    10.0   1_565     S
Ce20     Ce21    10.0   .     S
Ce20     Ti62    10.0   1_566     S
Ce21     Ti57    10.0   1_566     S
Ce21     Er26    10.0   1_565     S
Er22     V27    9.999   1_545     S
Er22     V23    9.999   .     S
Er22     V25    10.0   1_556     S
Er22     V25    10.0   .     S
Er22     Ce47    10.0   .     S
V23     V27    10.0   1_545     S
V23     Ti57    10.0   .     S
V23     Er24    9.999   1_545     S
V23     V25    10.0   .     S
V23     Er26    10.0   1_554     S
V23     Er26    10.0   .     S
Er24     V23    9.999   1_565     S
Er24     V25    9.999   1_565     S
Er24     V27    10.0   .     S
Er24     V27    10.0   1_554     S
Er24     Ce28    10.0   .     S
V25     Er22    10.0   1_554     S
V25     Er24    9.999   1_545     S
V25     Ti69    10.0   1_554     S
V25     Er26    9.999   1_554     S
V25     V27    10.0   1_544     S
Er26     V25    9.999   1_556     S
Er26     V27    9.999   1_545     S
Er26     V23    10.0   1_556     S
Er26     Ce21    10.0   1_545     S
V27     Er22    9.999   1_565     S
V27     V23    10.0   1_565     S
V27     V25    10.0   1_566     S
V27     Er26    9.999   1_565     S
V27     Ti65    10.0   .     S
V27     Er24    10.0   1_556     S
Ce28     Ce29    10.0   .     S
Ce28     Ti65    10.0   .     S
Ce29     Ti66    10.0   .     S
Ce29     Er34    10.0   .     S
Er30     V33    9.999   1_655     S
Er30     V31    9.999   .     S
Er30     V35    10.0   1_556     S
Er30     V35    10.0   .     S
V31     V33    10.0   1_655     S
V31     Ti58    10.0   .     S
V31     Er32    10.0   1_554     S
V31     Er34    9.999   1_655     S
V31     V35    10.0   .     S
V31     Er32    10.0   .     S
Er32     V35    9.999   1_556     S
Er32     V33    9.999   1_655     S
Er32     V31    10.0   1_556     S
Er32     Ce11    10.0   1_655     S
V33     Er30    9.999   1_455     S
V33     V31    10.0   1_455     S
V33     V35    10.0   1_456     S
V33     Er32    9.999   1_455     S
V33     Ti66    10.0   .     S
V33     Er34    10.0   .     S
V33     Er34    10.0   1_556     S
Er34     V31    9.999   1_455     S
Er34     V35    9.999   1_455     S
Er34     V33    10.0   1_554     S
V35     Er30    10.0   1_554     S
V35     Er32    9.999   1_554     S
V35     V33    10.0   1_654     S
V35     Er34    9.999   1_655     S
V35     Ti70    10.0   1_554     S
Ce36     Ti72    10.0   .     S
Ce36     Er42    10.0   .     S
Ce37     Ti64    10.0   .     S
Ce37     Er38    10.0   .     S
Er38     V43    9.999   .     S
Er38     V39    9.999   .     S
Er38     V41    10.0   .     S
Er38     V41    10.0   1_554     S
V39     V43    10.0   .     S
V39     Ti72    10.0   1_554     S
V39     Er40    9.999   1_554     S
V39     V41    10.0   1_554     S
V39     Er42    10.0   1_554     S
V39     Er42    10.0   .     S
Er40     V39    9.999   1_556     S
Er40     V41    9.999   .     S
Er40     V43    10.0   1_556     S
Er40     V43    10.0   .     S
Er40     Ce45    10.0   .     S
V41     V39    10.0   1_556     S
V41     Ti64    10.0   .     S
V41     Er42    9.999   .     S
V41     V43    10.0   .     S
V41     Er38    10.0   1_556     S
Er42     V43    9.999   .     S
Er42     V39    10.0   1_556     S
V43     Er40    10.0   1_554     S
V43     Ti67    10.0   .     S
Ce44     Ti63    10.0   .     S
Ce44     Er49    10.0   .     S
Ce45     Ce46    10.0   .     S
Ce45     Ti67    10.0   1_556     S
Ce46     Ti68    10.0   1_556     S
Ce46     Er51    10.0   .     S
Ce47     Ce48    10.0   .     S
Ce47     Ti69    10.0   .     S
Ce48     Ti71    10.0   .     S
Ce48     Er53    10.0   .     S
Er49     V54    9.999   .     S
Er49     V50    9.999   .     S
Er49     V52    10.0   .     S
Er49     V52    10.0   1_554     S
V50     V54    10.0   .     S
V50     Ti71    10.0   1_554     S
V50     Er51    9.999   1_554     S
V50     V52    10.0   1_554     S
V50     Er53    10.0   1_554     S
V50     Er53    10.0   .     S
Er51     V50    9.999   1_556     S
Er51     V52    9.999   .     S
Er51     V54    10.0   1_556     S
Er51     V54    10.0   .     S
V52     V50    10.0   1_556     S
V52     Ti63    10.0   .     S
V52     Er53    9.999   .     S
V52     V54    10.0   .     S
V52     Er49    10.0   1_556     S
Er53     V54    9.999   .     S
Er53     V50    10.0   1_556     S
V54     Er51    10.0   1_554     S
V54     Ti68    10.0   .     S
Ti55     V6    10.0   1_556     S
Ti55     Ti56    10.001   .     S
Ti56     V15    10.0   1_556     S
Ti57     Ce21    10.0   1_544     S
Ti57     Ti62    10.001   .     S
Ti58     Ce11    10.0   1_654     S
Ti58     Ti61    10.001   .     S
Ti59     Ti63    10.001   .     S
Ti60     Ti64    10.001   .     S
Ti61     Ce12    10.0   1_654     S
Ti62     Ce20    10.0   1_544     S
Ti65     Ti66    10.001   .     S
Ti67     Ce45    10.0   1_554     S
Ti67     Ti68    10.001   .     S
Ti68     Ce46    10.0   1_554     S
Ti69     V25    10.0   1_556     S
Ti69     Ti71    10.001   .     S
Ti70     V35    10.0   1_556     S
Ti70     Ti72    10.001   .     S
Ti71     V50    10.0   1_556     S
Ti72     V39    10.0   1_556     S
