data_mst
_audit_creation_date              2020-02-04
_audit_creation_method            'Pymatgen'
_symmetry_space_group_name_H-M    'P1'
_symmetry_Int_Tables_number       1
loop_
_symmetry_equiv_pos_as_xyz
  x,y,z
_cell_length_a                    52.7244
_cell_length_b                    18.0831
_cell_length_c                    28.5439
_cell_angle_alpha                 90.0
_cell_angle_beta                 90.0
_cell_angle_gamma                 90.0
loop_
_atom_site_label
_atom_site_type_symbol
_atom_site_fract_x
_atom_site_fract_y
_atom_site_fract_z
V1     V     0.5   0.5   0.0
V2     V     0.5   0.0   0.5
Er3     Er     0.3357   0.0   0.6752
Er4     Er     0.1643   0.0   0.8248
Er5     Er     0.3357   0.5   0.8248
Er6     Er     0.1643   0.5   0.6752
Er7     Er     0.3357   0.5   0.1752
Er8     Er     0.1643   0.5   0.3248
Er9     Er     0.3357   0.0   0.3248
Er10     Er     0.1643   0.0   0.1752
Er11     Er     0.6643   0.0   0.6752
Er12     Er     0.8357   0.0   0.8248
Er13     Er     0.8357   0.5   0.6752
Er14     Er     0.6643   0.5   0.8248
Er15     Er     0.6643   0.5   0.1752
Er16     Er     0.8357   0.5   0.3248
Er17     Er     0.8357   0.0   0.1752
Er18     Er     0.6643   0.0   0.3248
V19     V     0.0   0.0   0.0
V20     V     0.0   0.5   0.5
loop_
_geom_bond_atom_site_label_1
_geom_bond_atom_site_label_2
_geom_bond_distance
_geom_bond_site_symmetry_2
_ccdc_geom_bond_type
V1     Er7    10.0   .     S
V1     Er5    10.0   1_554     S
V1     Er15    10.0   .     S
V1     Er14    10.0   1_554     S
V2     Er3    10.0   .     S
V2     Er9    10.0   .     S
V2     Er11    10.0   .     S
V2     Er18    10.0   .     S
Er3     Er4    10.0   .     S
Er3     Er5    10.0   1_545     S
Er3     Er5    10.0   .     S
Er3     Er9    10.0   .     S
Er4     Er6    10.0   1_545     S
Er4     Er6    10.0   .     S
Er4     Er10    10.0   1_556     S
Er4     V19    10.0   1_556     S
Er5     V1    10.0   1_556     S
Er5     Er3    10.0   1_565     S
Er5     Er6    10.0   .     S
Er5     Er7    10.0   1_556     S
Er6     Er4    10.0   1_565     S
Er6     Er8    10.0   .     S
Er6     V20    10.0   .     S
Er7     Er8    10.0   .     S
Er7     Er9    10.0   .     S
Er7     Er9    10.0   1_565     S
Er7     Er5    10.0   1_554     S
Er8     Er10    10.0   .     S
Er8     Er10    10.0   1_565     S
Er8     V20    10.0   .     S
Er9     Er10    10.0   .     S
Er9     Er7    10.0   1_545     S
Er10     Er8    10.0   1_545     S
Er10     Er4    10.0   1_554     S
Er10     V19    10.0   .     S
Er11     Er12    10.0   .     S
Er11     Er14    10.0   .     S
Er11     Er14    10.0   1_545     S
Er11     Er18    10.0   .     S
Er12     Er13    10.0   .     S
Er12     Er13    10.0   1_545     S
Er12     Er17    10.0   1_556     S
Er12     V19    10.0   1_656     S
Er13     V20    10.0   1_655     S
Er13     Er14    10.0   .     S
Er13     Er12    10.0   1_565     S
Er13     Er16    10.0   .     S
Er14     V1    10.0   1_556     S
Er14     Er11    10.0   1_565     S
Er14     Er15    10.0   1_556     S
Er15     Er16    10.0   .     S
Er15     Er18    10.0   1_565     S
Er15     Er18    10.0   .     S
Er15     Er14    10.0   1_554     S
Er16     V20    10.0   1_655     S
Er16     Er17    10.0   1_565     S
Er16     Er17    10.0   .     S
Er17     Er18    10.0   .     S
Er17     Er16    10.0   1_545     S
Er17     Er12    10.0   1_554     S
Er17     V19    10.0   1_655     S
Er18     Er15    10.0   1_545     S
V19     Er4    10.0   1_554     S
V19     Er17    10.0   1_455     S
V19     Er12    10.0   1_454     S
V20     Er13    10.0   1_455     S
V20     Er16    10.0   1_455     S
