data_mtn
_audit_creation_date              2020-02-04
_audit_creation_method            'Pymatgen'
_symmetry_space_group_name_H-M    'P1'
_symmetry_Int_Tables_number       1
loop_
_symmetry_equiv_pos_as_xyz
  x,y,z
_cell_length_a                    62.0544
_cell_length_b                    62.0544
_cell_length_c                    62.0544
_cell_angle_alpha                 90.0
_cell_angle_beta                 90.0
_cell_angle_gamma                 90.0
loop_
_atom_site_label
_atom_site_type_symbol
_atom_site_fract_x
_atom_site_fract_y
_atom_site_fract_z
Ti1     Ti     0.182   0.8709   0.182
Ti2     Ti     0.068   0.8709   0.068
Ti3     Ti     0.3709   0.568   0.068
Ti4     Ti     0.3709   0.682   0.182
Ti5     Ti     0.182   0.682   0.3709
Ti6     Ti     0.068   0.568   0.3709
Ti7     Ti     0.182   0.3791   0.068
Ti8     Ti     0.068   0.3791   0.182
Ti9     Ti     0.068   0.682   0.8791
Ti10     Ti     0.182   0.568   0.8791
Ti11     Ti     0.8791   0.568   0.182
Ti12     Ti     0.8791   0.682   0.068
Er13     Er     0.032   0.718   0.032
Er14     Er     0.218   0.718   0.218
Er15     Er     0.218   0.532   0.032
Er16     Er     0.032   0.532   0.218
V17     V     0.125   0.625   0.125
Ti18     Ti     0.432   0.932   0.6291
Ti19     Ti     0.318   0.818   0.6291
Ti20     Ti     0.432   0.6291   0.932
Ti21     Ti     0.318   0.6291   0.818
Ti22     Ti     0.1291   0.932   0.932
Ti23     Ti     0.1291   0.818   0.818
Ti24     Ti     0.432   0.1209   0.818
Ti25     Ti     0.318   0.1209   0.932
Ti26     Ti     0.432   0.818   0.1209
Ti27     Ti     0.318   0.932   0.1209
Ti28     Ti     0.6209   0.932   0.818
Ti29     Ti     0.6209   0.818   0.932
Er30     Er     0.282   0.782   0.782
Er31     Er     0.468   0.782   0.968
Er32     Er     0.468   0.968   0.782
Er33     Er     0.282   0.968   0.968
V34     V     0.375   0.875   0.875
Ti35     Ti     0.6291   0.932   0.432
Ti36     Ti     0.6291   0.818   0.318
Ti37     Ti     0.932   0.6291   0.432
Ti38     Ti     0.818   0.6291   0.318
Ti39     Ti     0.932   0.932   0.1291
Ti40     Ti     0.818   0.818   0.1291
Ti41     Ti     0.818   0.1209   0.432
Ti42     Ti     0.932   0.1209   0.318
Ti43     Ti     0.1209   0.818   0.432
Ti44     Ti     0.1209   0.932   0.318
Ti45     Ti     0.818   0.932   0.6209
Ti46     Ti     0.932   0.818   0.6209
Er47     Er     0.782   0.782   0.282
Er48     Er     0.782   0.968   0.468
Er49     Er     0.968   0.968   0.282
V50     V     0.875   0.875   0.375
Er51     Er     0.968   0.782   0.468
Ti52     Ti     0.8709   0.068   0.068
Ti53     Ti     0.8709   0.182   0.182
Ti54     Ti     0.682   0.3709   0.182
Ti55     Ti     0.568   0.3709   0.068
Ti56     Ti     0.682   0.182   0.3709
Ti57     Ti     0.568   0.068   0.3709
Ti58     Ti     0.3791   0.068   0.182
Ti59     Ti     0.3791   0.182   0.068
Ti60     Ti     0.568   0.8791   0.182
Ti61     Ti     0.682   0.8791   0.068
Ti62     Ti     0.682   0.068   0.8791
Ti63     Ti     0.568   0.182   0.8791
Er64     Er     0.718   0.032   0.032
Er65     Er     0.532   0.218   0.032
Er66     Er     0.532   0.032   0.218
V67     V     0.625   0.125   0.125
Er68     Er     0.718   0.218   0.218
Ti69     Ti     0.6291   0.432   0.932
Ti70     Ti     0.6291   0.318   0.818
Ti71     Ti     0.932   0.432   0.6291
Ti72     Ti     0.818   0.318   0.6291
Ti73     Ti     0.932   0.1291   0.932
Ti74     Ti     0.818   0.1291   0.818
Ti75     Ti     0.818   0.432   0.1209
Ti76     Ti     0.932   0.318   0.1209
Ti77     Ti     0.1209   0.432   0.818
Ti78     Ti     0.1209   0.318   0.932
Ti79     Ti     0.818   0.6209   0.932
Ti80     Ti     0.932   0.6209   0.818
Er81     Er     0.782   0.282   0.782
Er82     Er     0.968   0.282   0.968
Er83     Er     0.968   0.468   0.782
V84     V     0.875   0.375   0.875
Er85     Er     0.782   0.468   0.968
Ti86     Ti     0.8709   0.682   0.682
Ti87     Ti     0.8709   0.568   0.568
Ti88     Ti     0.682   0.8709   0.682
Ti89     Ti     0.568   0.8709   0.568
Ti90     Ti     0.682   0.682   0.8709
Ti91     Ti     0.568   0.568   0.8709
Ti92     Ti     0.682   0.3791   0.568
Ti93     Ti     0.568   0.3791   0.682
Ti94     Ti     0.682   0.568   0.3791
Ti95     Ti     0.568   0.682   0.3791
Ti96     Ti     0.3791   0.568   0.682
Ti97     Ti     0.3791   0.682   0.568
Er98     Er     0.718   0.718   0.718
Er99     Er     0.718   0.532   0.532
Er100     Er     0.532   0.532   0.718
Er101     Er     0.532   0.718   0.532
V102     V     0.625   0.625   0.625
Ti103     Ti     0.182   0.182   0.8709
Ti104     Ti     0.068   0.068   0.8709
Ti105     Ti     0.182   0.3709   0.682
Ti106     Ti     0.068   0.3709   0.568
Ti107     Ti     0.3709   0.182   0.682
Ti108     Ti     0.3709   0.068   0.568
Ti109     Ti     0.068   0.182   0.3791
Ti110     Ti     0.182   0.068   0.3791
Ti111     Ti     0.8791   0.068   0.682
Ti112     Ti     0.8791   0.182   0.568
Ti113     Ti     0.068   0.8791   0.682
Ti114     Ti     0.182   0.8791   0.568
Er115     Er     0.218   0.032   0.532
Er116     Er     0.218   0.218   0.718
Er117     Er     0.032   0.032   0.718
V118     V     0.125   0.125   0.625
Er119     Er     0.032   0.218   0.532
Ti120     Ti     0.432   0.432   0.1291
Ti121     Ti     0.318   0.318   0.1291
Ti122     Ti     0.1291   0.432   0.432
Ti123     Ti     0.1291   0.318   0.318
Ti124     Ti     0.432   0.1291   0.432
Ti125     Ti     0.318   0.1291   0.318
Ti126     Ti     0.318   0.6209   0.432
Ti127     Ti     0.432   0.6209   0.318
Ti128     Ti     0.6209   0.318   0.432
Ti129     Ti     0.6209   0.432   0.318
Ti130     Ti     0.432   0.318   0.6209
Ti131     Ti     0.318   0.432   0.6209
Er132     Er     0.468   0.468   0.282
Er133     Er     0.282   0.282   0.282
Er134     Er     0.468   0.282   0.468
Er135     Er     0.282   0.468   0.468
V136     V     0.375   0.375   0.375
loop_
_geom_bond_atom_site_label_1
_geom_bond_atom_site_label_2
_geom_bond_distance
_geom_bond_site_symmetry_2
_ccdc_geom_bond_type
Ti1     Ti2    9.999   .     S
Ti1     Er14    10.0   .     S
Ti1     Ti44    10.0   .     S
Ti1     Ti27    10.0   .     S
Ti2     Er13    10.0   .     S
Ti2     Ti39    10.0   1_455     S
Ti2     Ti22    10.0   1_554     S
Ti3     Ti4    9.999   .     S
Ti3     Er15    10.0   .     S
Ti3     Ti120    10.0   .     S
Ti3     Ti20    10.0   1_554     S
Ti4     Er14    10.0   .     S
Ti4     Ti127    10.0   .     S
Ti4     Ti26    10.0   .     S
Ti5     Ti6    9.999   .     S
Ti5     Er14    10.0   .     S
Ti5     Ti126    10.0   .     S
Ti5     Ti43    10.0   .     S
Ti6     Er16    10.0   .     S
Ti6     Ti37    10.0   1_455     S
Ti6     Ti122    10.0   .     S
Ti7     Ti8    9.999   .     S
Ti7     Er15    10.0   .     S
Ti7     Ti121    10.0   .     S
Ti7     Ti78    10.0   1_554     S
Ti8     Er16    10.0   .     S
Ti8     Ti123    10.0   .     S
Ti8     Ti76    10.0   1_455     S
Ti9     Ti10    9.999   .     S
Ti9     Er13    10.0   1_556     S
Ti9     Ti23    10.0   .     S
Ti9     Ti80    10.0   1_455     S
Ti10     Er15    10.0   1_556     S
Ti10     Ti21    10.0   .     S
Ti10     Ti77    10.0   .     S
Ti11     Ti12    9.999   .     S
Ti11     Er16    10.0   1_655     S
Ti11     Ti38    10.0   .     S
Ti11     Ti75    10.0   .     S
Ti12     Er13    10.0   1_655     S
Ti12     Ti79    10.0   1_554     S
Ti12     Ti40    10.0   .     S
Er13     Ti12    10.0   1_455     S
Er13     Ti9    10.0   1_554     S
Er13     V17    10.0   .     S
Er14     V17    10.0   .     S
Er15     Ti10    10.0   1_554     S
Er15     V17    10.0   .     S
Er16     Ti11    10.0   1_455     S
Er16     V17    10.0   .     S
Ti18     Ti19    9.999   .     S
Ti18     Er32    10.0   .     S
Ti18     Ti108    10.0   1_565     S
Ti18     Ti89    10.0   .     S
Ti19     Er30    10.0   .     S
Ti19     Ti114    10.0   .     S
Ti19     Ti97    10.0   .     S
Ti20     Ti21    9.999   .     S
Ti20     Er31    10.0   .     S
Ti20     Ti91    10.0   .     S
Ti20     Ti3    10.0   1_556     S
Ti21     Er30    10.0   .     S
Ti21     Ti96    10.0   .     S
Ti22     Ti23    9.999   .     S
Ti22     Er33    10.0   .     S
Ti22     Ti104    10.0   1_565     S
Ti22     Ti2    10.0   1_556     S
Ti23     Er30    10.0   .     S
Ti23     Ti113    10.0   .     S
Ti24     Ti25    9.999   .     S
Ti24     Er32    10.0   1_545     S
Ti24     Ti63    10.0   .     S
Ti24     Ti107    10.0   .     S
Ti25     Er33    10.0   1_545     S
Ti25     Ti103    10.0   .     S
Ti25     Ti59    10.0   1_556     S
Ti26     Ti27    9.999   .     S
Ti26     Er31    10.0   1_554     S
Ti26     Ti60    10.0   .     S
Ti27     Er33    10.0   1_554     S
Ti27     Ti58    10.0   1_565     S
Ti28     Ti29    9.999   .     S
Ti28     Er32    10.0   .     S
Ti28     Ti62    10.0   1_565     S
Ti28     Ti88    10.0   .     S
Ti29     Er31    10.0   .     S
Ti29     Ti61    10.0   1_556     S
Ti29     Ti90    10.0   .     S
Er30     V34    10.0   .     S
Er31     Ti26    10.0   1_556     S
Er31     V34    10.0   .     S
Er32     Ti24    10.0   1_565     S
Er32     V34    10.0   .     S
Er33     Ti27    10.0   1_556     S
Er33     Ti25    10.0   1_565     S
Er33     V34    10.0   .     S
Ti35     Ti36    9.999   .     S
Ti35     Er48    10.0   .     S
Ti35     Ti89    10.0   .     S
Ti35     Ti57    10.0   1_565     S
Ti36     Er47    10.0   .     S
Ti36     Ti60    10.0   .     S
Ti36     Ti95    10.0   .     S
Ti37     Ti38    9.999   .     S
Ti37     Er51    10.0   .     S
Ti37     Ti87    10.0   .     S
Ti37     Ti6    10.0   1_655     S
Ti38     Er47    10.0   .     S
Ti38     Ti94    10.0   .     S
Ti39     Ti2    10.0   1_655     S
Ti39     Ti40    9.999   .     S
Ti39     Er49    10.0   .     S
Ti39     Ti52    10.0   1_565     S
Ti40     Er47    10.0   .     S
Ti40     Ti61    10.0   .     S
Ti41     Ti42    9.999   .     S
Ti41     Er48    10.0   1_545     S
Ti41     Ti112    10.0   .     S
Ti41     Ti56    10.0   .     S
Ti42     Er49    10.0   1_545     S
Ti42     Ti109    10.0   1_655     S
Ti42     Ti53    10.0   .     S
Ti43     Ti44    9.999   .     S
Ti43     Er51    10.0   1_455     S
Ti43     Ti114    10.0   .     S
Ti44     Er49    10.0   1_455     S
Ti44     Ti110    10.0   1_565     S
Ti45     Ti46    9.999   .     S
Ti45     Er48    10.0   .     S
Ti45     Ti111    10.0   1_565     S
Ti45     Ti88    10.0   .     S
Ti46     Er51    10.0   .     S
Ti46     Ti113    10.0   1_655     S
Ti46     Ti86    10.0   .     S
Er47     V50    10.0   .     S
Er48     Ti41    10.0   1_565     S
Er48     V50    10.0   .     S
Er49     Ti42    10.0   1_565     S
Er49     Ti44    10.0   1_655     S
Er49     V50    10.0   .     S
V50     Er51    10.0   .     S
Er51     Ti43    10.0   1_655     S
Ti52     Ti53    9.999   .     S
Ti52     Er64    10.0   .     S
Ti52     Ti39    10.0   1_545     S
Ti52     Ti73    10.0   1_554     S
Ti53     Er68    10.0   .     S
Ti53     Ti76    10.0   .     S
Ti54     Ti55    9.999   .     S
Ti54     Er68    10.0   .     S
Ti54     Ti129    10.0   .     S
Ti54     Ti75    10.0   .     S
Ti55     Er65    10.0   .     S
Ti55     Ti69    10.0   1_554     S
Ti55     Ti120    10.0   .     S
Ti56     Ti57    9.999   .     S
Ti56     Er68    10.0   .     S
Ti56     Ti128    10.0   .     S
Ti57     Er66    10.0   .     S
Ti57     Ti124    10.0   .     S
Ti57     Ti35    10.0   1_545     S
Ti58     Ti59    9.999   .     S
Ti58     Er66    10.0   .     S
Ti58     Ti125    10.0   .     S
Ti58     Ti27    10.0   1_545     S
Ti59     Er65    10.0   .     S
Ti59     Ti121    10.0   .     S
Ti59     Ti25    10.0   1_554     S
Ti60     Ti61    9.999   .     S
Ti60     Er66    10.0   1_565     S
Ti61     Er64    10.0   1_565     S
Ti61     Ti29    10.0   1_554     S
Ti62     Ti63    9.999   .     S
Ti62     Er64    10.0   1_556     S
Ti62     Ti28    10.0   1_545     S
Ti62     Ti74    10.0   .     S
Ti63     Er65    10.0   1_556     S
Ti63     Ti70    10.0   .     S
Er64     Ti62    10.0   1_554     S
Er64     Ti61    10.0   1_545     S
Er64     V67    10.0   .     S
Er65     Ti63    10.0   1_554     S
Er65     V67    10.0   .     S
Er66     Ti60    10.0   1_545     S
Er66     V67    10.0   .     S
V67     Er68    10.0   .     S
Ti69     Ti70    9.999   .     S
Ti69     Er85    10.0   .     S
Ti69     Ti91    10.0   .     S
Ti69     Ti55    10.0   1_556     S
Ti70     Er81    10.0   .     S
Ti70     Ti93    10.0   .     S
Ti71     Ti72    9.999   .     S
Ti71     Er83    10.0   .     S
Ti71     Ti87    10.0   .     S
Ti71     Ti106    10.0   1_655     S
Ti72     Er81    10.0   .     S
Ti72     Ti112    10.0   .     S
Ti72     Ti92    10.0   .     S
Ti73     Ti74    9.999   .     S
Ti73     Er82    10.0   .     S
Ti73     Ti104    10.0   1_655     S
Ti73     Ti52    10.0   1_556     S
Ti74     Er81    10.0   .     S
Ti74     Ti111    10.0   .     S
Ti75     Ti76    9.999   .     S
Ti75     Er85    10.0   1_554     S
Ti76     Er82    10.0   1_554     S
Ti76     Ti8    10.0   1_655     S
Ti77     Ti78    9.999   .     S
Ti77     Er83    10.0   1_455     S
Ti77     Ti105    10.0   .     S
Ti78     Er82    10.0   1_455     S
Ti78     Ti103    10.0   .     S
Ti78     Ti7    10.0   1_556     S
Ti79     Ti12    10.0   1_556     S
Ti79     Ti80    9.999   .     S
Ti79     Er85    10.0   .     S
Ti79     Ti90    10.0   .     S
Ti80     Er83    10.0   .     S
Ti80     Ti9    10.0   1_655     S
Ti80     Ti86    10.0   .     S
Er81     V84    10.0   .     S
Er82     Ti76    10.0   1_556     S
Er82     Ti78    10.0   1_655     S
Er82     V84    10.0   .     S
Er83     Ti77    10.0   1_655     S
Er83     V84    10.0   .     S
V84     Er85    10.0   .     S
Er85     Ti75    10.0   1_556     S
Ti86     Ti87    9.999   .     S
Ti86     Er98    10.0   .     S
Ti87     Er99    10.0   .     S
Ti88     Ti89    9.999   .     S
Ti88     Er98    10.0   .     S
Ti89     Er101    10.0   .     S
Ti90     Ti91    9.999   .     S
Ti90     Er98    10.0   .     S
Ti91     Er100    10.0   .     S
Ti92     Ti93    9.999   .     S
Ti92     Er99    10.0   .     S
Ti92     Ti128    10.0   .     S
Ti93     Er100    10.0   .     S
Ti93     Ti130    10.0   .     S
Ti94     Ti95    9.999   .     S
Ti94     Er99    10.0   .     S
Ti94     Ti129    10.0   .     S
Ti95     Er101    10.0   .     S
Ti95     Ti127    10.0   .     S
Ti96     Ti97    9.999   .     S
Ti96     Er100    10.0   .     S
Ti96     Ti131    10.0   .     S
Ti97     Er101    10.0   .     S
Ti97     Ti126    10.0   .     S
Er98     V102    10.0   .     S
Er99     V102    10.0   .     S
Er100     V102    10.0   .     S
Er101     V102    10.0   .     S
Ti103     Ti104    9.999   .     S
Ti103     Er116    10.0   .     S
Ti104     Er117    10.0   .     S
Ti104     Ti22    10.0   1_545     S
Ti104     Ti73    10.0   1_455     S
Ti105     Ti106    9.999   .     S
Ti105     Er116    10.0   .     S
Ti105     Ti131    10.0   .     S
Ti106     Er119    10.0   .     S
Ti106     Ti122    10.0   .     S
Ti106     Ti71    10.0   1_455     S
Ti107     Ti108    9.999   .     S
Ti107     Er116    10.0   .     S
Ti107     Ti130    10.0   .     S
Ti108     Er115    10.0   .     S
Ti108     Ti124    10.0   .     S
Ti108     Ti18    10.0   1_545     S
Ti109     Ti110    9.999   .     S
Ti109     Er119    10.0   .     S
Ti109     Ti123    10.0   .     S
Ti109     Ti42    10.0   1_455     S
Ti110     Er115    10.0   .     S
Ti110     Ti125    10.0   .     S
Ti110     Ti44    10.0   1_545     S
Ti111     Ti112    9.999   .     S
Ti111     Er117    10.0   1_655     S
Ti111     Ti45    10.0   1_545     S
Ti112     Er119    10.0   1_655     S
Ti113     Ti114    9.999   .     S
Ti113     Er117    10.0   1_565     S
Ti113     Ti46    10.0   1_455     S
Ti114     Er115    10.0   1_565     S
Er115     Ti114    10.0   1_545     S
Er115     V118    10.0   .     S
Er116     V118    10.0   .     S
Er117     Ti113    10.0   1_545     S
Er117     Ti111    10.0   1_455     S
Er117     V118    10.0   .     S
V118     Er119    10.0   .     S
Er119     Ti112    10.0   1_455     S
Ti120     Ti121    9.999   .     S
Ti120     Er132    10.0   .     S
Ti121     Er133    10.0   .     S
Ti122     Ti123    9.999   .     S
Ti122     Er135    10.0   .     S
Ti123     Er133    10.0   .     S
Ti124     Ti125    9.999   .     S
Ti124     Er134    10.0   .     S
Ti125     Er133    10.0   .     S
Ti126     Ti127    9.999   .     S
Ti126     Er135    10.0   .     S
Ti127     Er132    10.0   .     S
Ti128     Ti129    9.999   .     S
Ti128     Er134    10.0   .     S
Ti129     Er132    10.0   .     S
Ti130     Ti131    9.999   .     S
Ti130     Er134    10.0   .     S
Ti131     Er135    10.0   .     S
Er132     V136    10.0   .     S
Er133     V136    10.0   .     S
Er134     V136    10.0   .     S
Er135     V136    10.0   .     S
