data_muh
_audit_creation_date              2020-02-04
_audit_creation_method            'Pymatgen'
_symmetry_space_group_name_H-M    'P1'
_symmetry_Int_Tables_number       1
loop_
_symmetry_equiv_pos_as_xyz
  x,y,z
_cell_length_a                    42.8442
_cell_length_b                    42.8442
_cell_length_c                    161.5681
_cell_angle_alpha                 90.0
_cell_angle_beta                 90.0
_cell_angle_gamma                 120.0
loop_
_atom_site_label
_atom_site_type_symbol
_atom_site_fract_x
_atom_site_fract_y
_atom_site_fract_z
V1     V     0.0   0.0   0.353
C2     C     0.7473   0.8736   0.4364
C3     C     0.1264   0.2527   0.4364
C4     C     0.1264   0.8736   0.4364
Er5     Er     0.0   0.0   0.4149
V6     V     0.0   0.0   0.647
C7     C     0.8736   0.1264   0.5636
C8     C     0.8736   0.7473   0.5636
C9     C     0.2527   0.1264   0.5636
Er10     Er     0.0   0.0   0.5851
V11     V     0.0   0.0   0.147
C12     C     0.7473   0.8736   0.0636
C13     C     0.1264   0.2527   0.0636
C14     C     0.1264   0.8736   0.0636
Er15     Er     0.0   0.0   0.0851
Ce16     Ce     0.6667   0.3333   0.0862
Ce17     Ce     0.3333   0.6667   0.9138
B18     B     0.4584   0.5416   0.937
B19     B     0.0833   0.5416   0.937
B20     B     0.4584   0.9167   0.937
B21     B     0.5416   0.0833   0.063
B22     B     0.9167   0.4584   0.063
O23     O     0.6673   0.717   0.9712
O24     O     0.717   0.6673   0.0288
O25     O     0.6673   0.9504   0.9712
O26     O     0.717   0.0496   0.0288
O27     O     0.0496   0.3327   0.9712
O28     O     0.9504   0.283   0.0288
O29     O     0.0496   0.717   0.9712
O30     O     0.9504   0.6673   0.0288
O31     O     0.283   0.9504   0.9712
O32     O     0.3327   0.0496   0.0288
O33     O     0.283   0.3327   0.9712
O34     O     0.3327   0.283   0.0288
B35     B     0.5416   0.4584   0.063
H36     H     0.0648   0.5324   0.3852
He37     He     0.1981   0.8019   0.384
He38     He     0.6038   0.8019   0.384
H39     H     0.4676   0.9352   0.3852
H40     H     0.4676   0.5324   0.3852
He41     He     0.1981   0.3962   0.384
He42     He     0.1981   0.8019   0.116
He43     He     0.6038   0.8019   0.116
H44     H     0.4676   0.9352   0.1148
H45     H     0.4676   0.5324   0.1148
He46     He     0.1981   0.3962   0.116
H47     H     0.0648   0.5324   0.1148
Be48     Be     0.1265   0.2529   0.1684
Be49     Be     0.1265   0.8735   0.1684
Be50     Be     0.7471   0.8735   0.1684
Be51     Be     0.1264   0.2529   0.3316
Be52     Be     0.1265   0.8735   0.3316
Be53     Be     0.7471   0.8735   0.3316
Ti54     Ti     0.6667   0.3333   0.352
Ti55     Ti     0.6667   0.3333   0.148
N56     N     0.9493   0.6652   0.2974
N57     N     0.9493   0.2841   0.2974
Li58     Li     0.9227   0.4614   0.3327
N59     N     0.3348   0.2841   0.2974
N60     N     0.7159   0.6652   0.2974
Li61     Li     0.5386   0.4614   0.3327
N62     N     0.9493   0.2841   0.2026
N63     N     0.9493   0.6652   0.2026
Li64     Li     0.9227   0.4614   0.1673
N65     N     0.7159   0.6652   0.2026
N66     N     0.3348   0.2841   0.2026
Li67     Li     0.5386   0.4614   0.1673
N68     N     0.7159   0.0507   0.2974
N69     N     0.3348   0.0507   0.2974
Li70     Li     0.5386   0.0773   0.3327
S71     S     0.0999   0.4333   0.25
S72     S     0.3333   0.4333   0.25
S73     S     0.5667   0.6667   0.25
S74     S     0.5667   0.9001   0.25
N75     N     0.3348   0.0507   0.2026
N76     N     0.7159   0.0507   0.2026
Li77     Li     0.5386   0.0773   0.1673
S78     S     0.0999   0.6667   0.25
S79     S     0.3333   0.9001   0.25
Ce80     Ce     0.6667   0.3333   0.4138
Ce81     Ce     0.3333   0.6667   0.5861
B82     B     0.4584   0.5416   0.563
B83     B     0.0833   0.5416   0.563
B84     B     0.4584   0.9167   0.563
B85     B     0.5416   0.0833   0.437
B86     B     0.9167   0.4584   0.437
O87     O     0.6673   0.717   0.5288
O88     O     0.717   0.6673   0.4712
O89     O     0.6673   0.9504   0.5288
O90     O     0.717   0.0496   0.4712
O91     O     0.0496   0.717   0.5288
O92     O     0.9504   0.6673   0.4712
O93     O     0.9504   0.283   0.4712
O94     O     0.0496   0.3327   0.5288
O95     O     0.3327   0.0496   0.4712
O96     O     0.283   0.9504   0.5288
O97     O     0.283   0.3327   0.5288
O98     O     0.3327   0.283   0.4712
B99     B     0.5416   0.4584   0.437
He100     He     0.8019   0.1981   0.884
He101     He     0.8019   0.6038   0.884
H102     H     0.9352   0.4676   0.8852
H103     H     0.5324   0.0648   0.8852
He104     He     0.3962   0.1981   0.884
H105     H     0.5324   0.4676   0.8852
He106     He     0.3962   0.1981   0.616
H107     H     0.5324   0.4676   0.6148
H108     H     0.5324   0.0648   0.6148
He109     He     0.8019   0.1981   0.616
He110     He     0.8019   0.6038   0.616
H111     H     0.9352   0.4676   0.6148
Be112     Be     0.8735   0.1265   0.6684
Be113     Be     0.2529   0.1264   0.6684
Be114     Be     0.8735   0.7471   0.6684
Be115     Be     0.8735   0.1265   0.8316
Be116     Be     0.2529   0.1265   0.8316
Be117     Be     0.8735   0.7471   0.8316
Ti118     Ti     0.3333   0.6667   0.852
Ti119     Ti     0.3333   0.6667   0.648
N120     N     0.6652   0.9493   0.7026
N121     N     0.2841   0.9493   0.7026
Li122     Li     0.4614   0.9227   0.6673
N123     N     0.6652   0.9493   0.7974
N124     N     0.2841   0.9493   0.7974
Li125     Li     0.4614   0.9227   0.8327
S126     S     0.6667   0.0999   0.75
S127     S     0.9001   0.3333   0.75
N128     N     0.0507   0.3348   0.7974
N129     N     0.0507   0.7159   0.7974
Li130     Li     0.0773   0.5386   0.8327
N131     N     0.6652   0.7159   0.7974
N132     N     0.2841   0.3348   0.7974
Li133     Li     0.4614   0.5386   0.8327
N134     N     0.0507   0.3348   0.7026
N135     N     0.0507   0.7159   0.7026
Li136     Li     0.0773   0.5386   0.6673
N137     N     0.2841   0.3348   0.7026
N138     N     0.6652   0.7159   0.7026
Li139     Li     0.4614   0.5386   0.6673
S140     S     0.9001   0.5667   0.75
S141     S     0.6667   0.5667   0.75
S142     S     0.4333   0.0999   0.75
S143     S     0.4333   0.3333   0.75
V144     V     0.0   0.0   0.853
C145     C     0.8736   0.1264   0.9364
C146     C     0.8736   0.7473   0.9364
C147     C     0.2527   0.1264   0.9364
Er148     Er     0.0   0.0   0.9149
loop_
_geom_bond_atom_site_label_1
_geom_bond_atom_site_label_2
_geom_bond_distance
_geom_bond_site_symmetry_2
_ccdc_geom_bond_type
V1     Er5    9.999   .     S
V1     Be51    10.0   .     S
V1     Be52    10.0   1_545     S
V1     Be53    10.0   1_445     S
C2     O90    10.0   1_565     S
C2     O88    10.0   .     S
C2     Er5    10.0   1_665     S
C2     He38    10.001   .     S
C3     O93    10.0   1_455     S
C3     O98    10.0   .     S
C3     Er5    10.0   .     S
C3     He41    10.001   .     S
C4     O92    10.0   1_455     S
C4     O95    10.0   1_565     S
C4     Er5    10.0   1_565     S
C4     He37    10.001   .     S
Er5     C2    10.0   1_445     S
Er5     C4    10.0   1_545     S
V6     Er10    9.999   .     S
V6     Be112    10.0   1_455     S
V6     Be113    10.0   .     S
V6     Be114    10.0   1_445     S
C7     O94    10.0   1_655     S
C7     O89    10.0   1_545     S
C7     Er10    10.0   1_655     S
C7     He109    10.001   .     S
C8     O87    10.0   .     S
C8     O91    10.0   1_655     S
C8     Er10    10.0   1_665     S
C8     He110    10.001   .     S
C9     O96    10.0   1_545     S
C9     O97    10.0   .     S
C9     Er10    10.0   .     S
C9     He106    10.001   .     S
Er10     C7    10.0   1_455     S
Er10     C8    10.0   1_445     S
V11     Er15    9.999   .     S
V11     Be48    10.0   .     S
V11     Be49    10.0   1_545     S
V11     Be50    10.0   1_445     S
C12     O26    10.0   1_565     S
C12     O24    10.0   .     S
C12     Er15    10.0   1_665     S
C12     He43    10.001   .     S
C13     O34    10.0   .     S
C13     O28    10.0   1_455     S
C13     Er15    10.0   .     S
C13     He46    10.001   .     S
C14     O30    10.0   1_455     S
C14     O32    10.0   1_565     S
C14     Er15    10.0   1_565     S
C14     He42    10.001   .     S
Er15     C12    10.0   1_445     S
Er15     C14    10.0   1_545     S
Ce16     Ti55    9.999   .     S
Ce16     B21    10.001   .     S
Ce16     B22    10.0   .     S
Ce16     B35    10.001   .     S
Ce17     Ti118    9.999   .     S
Ce17     B18    10.001   .     S
Ce17     B19    10.001   .     S
Ce17     B20    10.0   .     S
B18     H105    10.001   .     S
B18     O23    10.0   .     S
B18     O33    10.0   .     S
B19     H102    10.001   1_455     S
B19     O27    10.0   .     S
B19     O29    10.0   .     S
B20     H103    10.001   1_565     S
B20     O31    10.0   .     S
B20     O25    10.0   .     S
B21     H44    10.001   1_545     S
B21     O32    10.0   .     S
B21     O26    10.0   .     S
B22     H47    10.001   1_655     S
B22     O30    10.0   .     S
B22     O28    10.0   .     S
O23     O24    10.0   1_556     S
O23     O25    10.0   .     S
O23     C146    10.0   .     S
O24     O23    10.0   1_554     S
O24     O30    10.0   .     S
O24     B35    10.0   .     S
O25     O26    10.0   1_566     S
O25     C145    10.0   1_565     S
O26     C12    10.0   1_545     S
O26     O25    10.0   1_544     S
O26     O28    10.0   .     S
O27     O28    10.0   1_456     S
O27     O33    10.0   .     S
O27     C145    10.0   1_455     S
O28     C13    10.0   1_655     S
O28     O27    10.0   1_654     S
O29     O30    10.0   1_456     S
O29     O31    10.0   .     S
O29     C146    10.0   1_455     S
O30     C14    10.0   1_655     S
O30     O29    10.0   1_654     S
O31     O32    10.0   1_566     S
O31     C147    10.0   1_565     S
O32     C14    10.0   1_545     S
O32     O31    10.0   1_544     S
O32     O34    10.0   .     S
O33     O34    10.0   1_556     S
O33     C147    10.0   .     S
O34     O33    10.0   1_554     S
O34     B35    10.0   .     S
B35     H45    10.001   .     S
H36     Li58    10.0   1_455     S
H36     He37    10.0   .     S
H36     He41    10.0   .     S
H36     B86    10.001   1_455     S
He37     Be52    9.999   .     S
He37     H39    10.0   .     S
He38     Be53    9.999   .     S
He38     H39    10.0   .     S
He38     H40    10.0   .     S
H39     Li70    10.0   1_565     S
H39     B85    10.001   1_565     S
H40     Li61    10.0   .     S
H40     He41    10.0   .     S
H40     B99    10.001   .     S
He41     Be51    9.999   .     S
He42     Be49    9.999   .     S
He42     H44    10.0   .     S
He42     H47    10.0   .     S
He43     Be50    9.999   .     S
He43     H44    10.0   .     S
He43     H45    10.0   .     S
H44     B21    10.001   1_565     S
H44     Li77    10.0   1_565     S
H45     Li67    10.0   .     S
H45     He46    10.0   .     S
He46     Be48    9.999   .     S
He46     H47    10.0   .     S
H47     B22    10.001   1_455     S
H47     Li64    10.0   1_455     S
Be48     N62    10.001   1_455     S
Be48     N66    10.0   .     S
Be49     V11    10.0   1_565     S
Be49     N63    10.0   1_455     S
Be49     N75    10.0   1_565     S
Be50     V11    10.0   1_665     S
Be50     N76    10.0   1_565     S
Be50     N65    10.0   .     S
Be51     N57    10.0   1_455     S
Be51     N59    10.001   .     S
Be52     V1    10.0   1_565     S
Be52     N69    10.0   1_565     S
Be52     N56    10.0   1_455     S
Be53     V1    10.0   1_665     S
Be53     N60    10.0   .     S
Be53     N68    10.0   1_565     S
Ti54     Li61    10.0   .     S
Ti54     Li70    10.0   .     S
Ti54     Li58    10.0   .     S
Ti54     Ce80    9.999   .     S
Ti55     Li67    10.0   .     S
Ti55     Li77    10.0   .     S
Ti55     Li64    10.0   .     S
N56     Li58    9.999   .     S
N56     S78    10.0   1_655     S
N56     Be52    10.0   1_655     S
N56     N60    10.001   .     S
N57     Li58    9.999   .     S
N57     S71    10.0   1_655     S
N57     Be51    10.0   1_655     S
N57     N68    10.001   .     S
Li58     H36    10.0   1_655     S
N59     Li61    9.999   .     S
N59     S72    10.0   .     S
N59     N69    10.001   .     S
N60     Li61    9.999   .     S
N60     S73    10.0   .     S
N62     Li64    9.999   .     S
N62     S71    10.0   1_655     S
N62     Be48    10.001   1_655     S
N62     N76    10.001   .     S
N63     Li64    9.999   .     S
N63     S78    10.0   1_655     S
N63     Be49    10.0   1_655     S
N63     N65    10.001   .     S
Li64     H47    10.0   1_655     S
N65     Li67    9.999   .     S
N65     S73    10.0   .     S
N66     Li67    9.999   .     S
N66     S72    10.0   .     S
N66     N75    10.001   .     S
N68     Li70    9.999   .     S
N68     S74    10.0   1_545     S
N68     Be53    10.0   1_545     S
N69     Li70    9.999   .     S
N69     S79    10.0   1_545     S
N69     Be52    10.0   1_545     S
Li70     H39    10.0   1_545     S
S71     N57    10.0   1_455     S
S71     N62    10.0   1_455     S
S71     S72    10.0   .     S
S71     S78    10.0   .     S
S72     S73    10.0   .     S
S73     S74    10.0   .     S
S74     N68    10.0   1_565     S
S74     S79    10.0   .     S
S74     N76    10.0   1_565     S
N75     Li77    9.999   .     S
N75     S79    10.0   1_545     S
N75     Be49    10.0   1_545     S
N76     Li77    9.999   .     S
N76     S74    10.0   1_545     S
N76     Be50    10.0   1_545     S
Li77     H44    10.0   1_545     S
S78     N56    10.0   1_455     S
S78     N63    10.0   1_455     S
S78     S79    10.0   .     S
S79     N69    10.0   1_565     S
S79     N75    10.0   1_565     S
Ce80     B85    10.0   .     S
Ce80     B86    10.0   .     S
Ce80     B99    10.0   .     S
Ce81     Ti119    9.999   .     S
Ce81     B82    10.001   .     S
Ce81     B83    10.001   .     S
Ce81     B84    10.0   .     S
B82     H107    10.001   .     S
B82     O97    10.0   .     S
B82     O87    10.0   .     S
B83     H111    10.001   1_455     S
B83     O94    10.0   .     S
B83     O91    10.0   .     S
B84     H108    10.001   1_565     S
B84     O89    10.0   .     S
B84     O96    10.0   .     S
B85     H39    10.001   1_545     S
B85     O90    10.0   .     S
B85     O95    10.0   .     S
B86     H36    10.001   1_655     S
B86     O92    10.0   .     S
B86     O93    10.0   .     S
O87     O88    10.0   .     S
O87     O89    10.0   .     S
O88     O92    10.0   .     S
O88     B99    10.0   .     S
O89     C7    10.0   1_565     S
O89     O90    10.0   1_565     S
O90     C2    10.0   1_545     S
O90     O89    10.0   1_545     S
O90     O93    10.0   .     S
O91     C8    10.0   1_455     S
O91     O92    10.0   1_455     S
O91     O96    10.0   .     S
O92     C4    10.0   1_655     S
O92     O91    10.0   1_655     S
O93     C3    10.0   1_655     S
O93     O94    10.0   1_655     S
O94     C7    10.0   1_455     S
O94     O93    10.0   1_455     S
O94     O97    10.0   .     S
O95     C4    10.0   1_545     S
O95     O96    10.0   1_545     S
O95     O98    10.0   .     S
O96     C9    10.0   1_565     S
O96     O95    10.0   1_565     S
O97     O98    10.0   .     S
O98     B99    10.0   .     S
He100     C145    10.001   .     S
He100     Be115    9.999   .     S
He100     H102    10.0   .     S
He100     H103    10.0   .     S
He101     Be117    9.999   .     S
He101     H102    10.0   .     S
He101     H105    10.0   .     S
He101     C146    10.001   .     S
H102     B19    10.001   1_655     S
H102     Li130    10.0   1_655     S
H103     B20    10.001   1_545     S
H103     Li125    10.0   1_545     S
H103     He104    10.0   .     S
He104     Be116    9.999   .     S
He104     H105    10.0   .     S
He104     C147    10.001   .     S
H105     Li133    10.0   .     S
He106     Be113    9.999   .     S
He106     H107    10.0   .     S
He106     H108    10.0   .     S
H107     Li139    10.0   .     S
H107     He110    10.0   .     S
H108     B84    10.001   1_545     S
H108     Li122    10.0   1_545     S
H108     He109    10.0   .     S
He109     Be112    9.999   .     S
He109     H111    10.0   .     S
He110     Be114    9.999   .     S
He110     H111    10.0   .     S
H111     B83    10.001   1_655     S
H111     Li136    10.0   1_655     S
Be112     V6    10.0   1_655     S
Be112     N120    10.0   1_545     S
Be112     N134    10.0   1_655     S
Be113     N137    10.001   .     S
Be113     N121    10.0   1_545     S
Be114     V6    10.0   1_665     S
Be114     N135    10.0   1_655     S
Be114     N138    10.0   .     S
Be115     V144    10.0   1_655     S
Be115     N123    10.0   1_545     S
Be115     N128    10.0   1_655     S
Be116     V144    10.0   .     S
Be116     N124    10.001   1_545     S
Be116     N132    10.0   .     S
Be117     V144    10.0   1_665     S
Be117     N129    10.0   1_655     S
Be117     N131    10.0   .     S
Ti118     Li133    10.0   .     S
Ti118     Li125    10.0   .     S
Ti118     Li130    10.0   .     S
Ti119     Li139    10.0   .     S
Ti119     Li122    10.0   .     S
Ti119     Li136    10.0   .     S
N120     Li122    9.999   .     S
N120     S126    10.0   1_565     S
N120     Be112    10.0   1_565     S
N120     N138    10.001   .     S
N121     Li122    9.999   .     S
N121     S142    10.0   1_565     S
N121     Be113    10.0   1_565     S
N121     N135    10.001   .     S
Li122     H108    10.0   1_565     S
N123     Li125    9.999   .     S
N123     S126    10.0   1_565     S
N123     Be115    10.0   1_565     S
N123     N131    10.001   .     S
N124     Li125    9.999   .     S
N124     S142    10.0   1_565     S
N124     Be116    10.001   1_565     S
N124     N129    10.001   .     S
Li125     H103    10.0   1_565     S
S126     N120    10.0   1_545     S
S126     N123    10.0   1_545     S
S126     S127    10.0   .     S
S126     S142    10.0   .     S
S127     S140    10.0   .     S
S127     N128    10.0   1_655     S
S127     N134    10.0   1_655     S
N128     Li130    9.999   .     S
N128     S127    10.0   1_455     S
N128     Be115    10.0   1_455     S
N128     N132    10.001   .     S
N129     Li130    9.999   .     S
N129     S140    10.0   1_455     S
N129     Be117    10.0   1_455     S
Li130     H102    10.0   1_455     S
N131     Li133    9.999   .     S
N131     S141    10.0   .     S
N132     Li133    9.999   .     S
N132     S143    10.0   .     S
N134     Li136    9.999   .     S
N134     S127    10.0   1_455     S
N134     Be112    10.0   1_455     S
N134     N137    10.001   .     S
N135     Li136    9.999   .     S
N135     S140    10.0   1_455     S
N135     Be114    10.0   1_455     S
Li136     H111    10.0   1_455     S
N137     Li139    9.999   .     S
N137     S143    10.0   .     S
N138     Li139    9.999   .     S
N138     S141    10.0   .     S
S140     N129    10.0   1_655     S
S140     N135    10.0   1_655     S
S140     S141    10.0   .     S
S141     S143    10.0   .     S
S142     N121    10.0   1_545     S
S142     N124    10.0   1_545     S
S142     S143    10.0   .     S
V144     Be115    10.0   1_455     S
V144     Be117    10.0   1_445     S
V144     Er148    9.999   .     S
C145     O27    10.0   1_655     S
C145     O25    10.0   1_545     S
C145     Er148    10.0   1_655     S
C146     O29    10.0   1_655     S
C146     Er148    10.0   1_665     S
C147     O31    10.0   1_545     S
C147     Er148    10.0   .     S
Er148     C145    10.0   1_455     S
Er148     C146    10.0   1_445     S
