data_mur
_audit_creation_date              2020-02-04
_audit_creation_method            'Pymatgen'
_symmetry_space_group_name_H-M    'P1'
_symmetry_Int_Tables_number       1
loop_
_symmetry_equiv_pos_as_xyz
  x,y,z
_cell_length_a                    42.9004
_cell_length_b                    42.9004
_cell_length_c                    241.7392
_cell_angle_alpha                 90.0
_cell_angle_beta                 90.0
_cell_angle_gamma                 120.0
loop_
_atom_site_label
_atom_site_type_symbol
_atom_site_fract_x
_atom_site_fract_y
_atom_site_fract_z
S1     S     0.0   0.7669   0.5
S2     S     0.7669   0.7669   0.5
S3     S     0.7669   0.0   0.5
S4     S     0.2331   0.0   0.5
S5     S     0.2331   0.2331   0.5
S6     S     0.0   0.2331   0.5
S7     S     0.8997   0.3333   0.8333
S8     S     0.8997   0.5664   0.8333
S9     S     0.6667   0.5664   0.8333
S10     S     0.4336   0.3333   0.8333
S11     S     0.4336   0.1003   0.8333
S12     S     0.6667   0.1003   0.8333
C13     C     0.4099   0.2049   0.6257
C14     C     0.7951   0.5901   0.6257
C15     C     0.7951   0.2049   0.6257
Er16     Er     0.6667   0.3333   0.6133
C17     C     0.2568   0.1284   0.7076
C18     C     0.8716   0.7432   0.7076
C19     C     0.8716   0.1284   0.7076
Er20     Er     0.0   0.0   0.72
V21     V     0.0   0.0   0.7614
V22     V     0.6667   0.3333   0.5719
Be23     Be     0.7899   0.2101   0.5553
Be24     Be     0.4203   0.2102   0.5553
Be25     Be     0.7899   0.5797   0.5553
Li26     Li     0.5867   0.7933   0.5538
N27     N     0.6185   0.6146   0.5316
N28     N     0.6185   0.0038   0.5316
Li29     Li     0.2067   0.7933   0.5538
N30     N     0.9962   0.6146   0.5316
N31     N     0.3854   0.0038   0.5316
Li32     Li     0.2067   0.4133   0.5538
N33     N     0.3854   0.3815   0.5316
N34     N     0.9962   0.3815   0.5316
He35     He     0.274   0.137   0.59
He36     He     0.863   0.726   0.59
He37     He     0.863   0.137   0.59
H38     H     0.1317   0.2635   0.5882
B39     B     0.2061   0.4123   0.6227
H40     H     0.7365   0.8683   0.5882
B41     B     0.5877   0.7938   0.6227
B42     B     0.2061   0.7939   0.6227
H43     H     0.1317   0.8683   0.5882
Ce44     Ce     0.3333   0.6667   0.6092
Ti45     Ti     0.3333   0.6667   0.5678
O46     O     0.2869   0.9462   0.6861
O47     O     0.3798   0.9926   0.6473
O48     O     0.6593   0.9462   0.6861
O49     O     0.6129   0.9926   0.6473
O50     O     0.6129   0.6202   0.6473
O51     O     0.6593   0.7131   0.6861
O52     O     0.0074   0.6202   0.6473
O53     O     0.0538   0.7131   0.6861
O54     O     0.2869   0.3407   0.6861
O55     O     0.3798   0.3871   0.6473
O56     O     0.0538   0.3407   0.6861
O57     O     0.0074   0.3871   0.6473
Be58     Be     0.8768   0.1232   0.7781
Be59     Be     0.2464   0.1232   0.7781
Be60     Be     0.8768   0.7536   0.7781
Li61     Li     0.46   0.54   0.7795
N62     N     0.2813   0.3295   0.8017
N63     N     0.6705   0.7187   0.8017
Li64     Li     0.08   0.54   0.7795
N65     N     0.0482   0.3295   0.8017
N66     N     0.0482   0.7187   0.8017
Li67     Li     0.46   0.92   0.7795
N68     N     0.6705   0.9518   0.8017
N69     N     0.2813   0.9518   0.8017
He70     He     0.8037   0.1963   0.7433
He71     He     0.3927   0.1963   0.7433
He72     He     0.8037   0.6073   0.7433
H73     H     0.5349   0.4651   0.7451
B74     B     0.4605   0.5395   0.7107
H75     H     0.9302   0.4651   0.7451
B76     B     0.079   0.5395   0.7107
B77     B     0.4605   0.921   0.7107
H78     H     0.5349   0.0698   0.7451
Ce79     Ce     0.3333   0.6667   0.7242
Ti80     Ti     0.3333   0.6667   0.7655
C81     C     0.0765   0.5383   0.959
C82     C     0.4617   0.5383   0.959
C83     C     0.4617   0.9235   0.959
Er84     Er     0.3333   0.6667   0.9466
C85     C     0.5383   0.0765   0.041
C86     C     0.9235   0.4617   0.041
C87     C     0.5383   0.4617   0.041
Er88     Er     0.6667   0.3333   0.0534
V89     V     0.3333   0.6667   0.9053
V90     V     0.6667   0.3333   0.0947
Be91     Be     0.4565   0.5435   0.8886
Be92     Be     0.4565   0.913   0.8886
Be93     Be     0.087   0.5435   0.8886
Li94     Li     0.2534   0.1267   0.8872
N95     N     0.2851   0.3372   0.8649
N96     N     0.2851   0.948   0.8649
Li97     Li     0.8733   0.7466   0.8872
N98     N     0.6628   0.7149   0.8649
N99     N     0.052   0.7149   0.8649
Li100     Li     0.8733   0.1267   0.8872
N101     N     0.6628   0.948   0.8649
N102     N     0.052   0.3372   0.8649
He103     He     0.5297   0.4703   0.9233
He104     He     0.5297   0.0593   0.9233
B105     B     0.2544   0.1272   0.956
H106     H     0.4032   0.2016   0.9215
H107     H     0.7984   0.2016   0.9215
B108     B     0.8728   0.1272   0.956
B109     B     0.8728   0.7456   0.956
H110     H     0.7984   0.5968   0.9215
Ce111     Ce     0.0   0.0   0.9425
Ti112     Ti     0.0   0.0   0.9011
He113     He     0.9407   0.4703   0.9233
O114     O     0.0464   0.3259   0.9806
O115     O     0.9536   0.2795   0.0194
O116     O     0.2795   0.9536   0.9806
O117     O     0.3259   0.0464   0.0194
O118     O     0.2795   0.3259   0.9806
O119     O     0.3259   0.2795   0.0194
O120     O     0.0464   0.7205   0.9806
O121     O     0.9536   0.6741   0.0194
O122     O     0.6741   0.7205   0.9806
O123     O     0.7205   0.6741   0.0194
O124     O     0.6741   0.9536   0.9806
O125     O     0.7205   0.0464   0.0194
Be126     Be     0.5435   0.4565   0.1114
Be127     Be     0.5435   0.087   0.1114
Be128     Be     0.913   0.4565   0.1114
Li129     Li     0.1267   0.2534   0.1128
N130     N     0.948   0.2851   0.1351
N131     N     0.3372   0.2851   0.1351
Li132     Li     0.1267   0.8733   0.1128
N133     N     0.948   0.6628   0.1351
N134     N     0.3372   0.052   0.1351
Li135     Li     0.7466   0.8733   0.1128
N136     N     0.7149   0.6628   0.1351
N137     N     0.7149   0.052   0.1351
He138     He     0.4703   0.5297   0.0767
He139     He     0.0593   0.5297   0.0767
B140     B     0.7456   0.8728   0.044
H141     H     0.5968   0.7984   0.0785
B142     B     0.1272   0.2544   0.044
H143     H     0.2016   0.4032   0.0785
H144     H     0.2016   0.7984   0.0785
B145     B     0.1272   0.8728   0.044
Ce146     Ce     0.0   0.0   0.0575
Ti147     Ti     0.0   0.0   0.0989
He148     He     0.4703   0.9407   0.0767
S149     S     0.5664   0.8997   0.1667
S150     S     0.3333   0.8997   0.1667
S151     S     0.5664   0.6667   0.1667
S152     S     0.1003   0.6667   0.1667
S153     S     0.1003   0.4336   0.1667
S154     S     0.3333   0.4336   0.1667
C155     C     0.7432   0.8716   0.2924
C156     C     0.1284   0.2568   0.2924
C157     C     0.1284   0.8716   0.2924
Er158     Er     0.0   0.0   0.28
C159     C     0.5901   0.7951   0.3743
C160     C     0.2049   0.4099   0.3743
C161     C     0.2049   0.7951   0.3743
Er162     Er     0.3333   0.6667   0.3867
V163     V     0.3333   0.6667   0.4281
V164     V     0.0   0.0   0.2386
Be165     Be     0.2102   0.4203   0.4447
Be166     Be     0.2101   0.7899   0.4447
Be167     Be     0.5797   0.7899   0.4447
Li168     Li     0.4133   0.2067   0.4462
N169     N     0.3815   0.3854   0.4684
N170     N     0.3815   0.9962   0.4684
Li171     Li     0.7933   0.2067   0.4462
N172     N     0.0038   0.3854   0.4684
N173     N     0.6146   0.9962   0.4684
Li174     Li     0.7933   0.5867   0.4462
N175     N     0.6146   0.6185   0.4684
N176     N     0.0038   0.6185   0.4684
He177     He     0.137   0.274   0.41
He178     He     0.726   0.863   0.41
He179     He     0.137   0.863   0.41
H180     H     0.8683   0.7365   0.4118
B181     B     0.7938   0.5877   0.3773
H182     H     0.2635   0.1317   0.4118
B183     B     0.4123   0.2061   0.3773
H184     H     0.8683   0.1317   0.4118
B185     B     0.7939   0.2061   0.3773
Ce186     Ce     0.6667   0.3333   0.3908
Ti187     Ti     0.6667   0.3333   0.4322
O188     O     0.3407   0.2869   0.3139
O189     O     0.3871   0.3798   0.3527
O190     O     0.3407   0.0538   0.3139
O191     O     0.3871   0.0074   0.3527
O192     O     0.9462   0.2869   0.3139
O193     O     0.9926   0.3798   0.3527
O194     O     0.7131   0.0538   0.3139
O195     O     0.6202   0.0074   0.3527
O196     O     0.7131   0.6593   0.3139
O197     O     0.6202   0.6129   0.3527
O198     O     0.9462   0.6593   0.3139
O199     O     0.9926   0.6129   0.3527
Be200     Be     0.1232   0.8768   0.2219
Be201     Be     0.1232   0.2464   0.2219
Be202     Be     0.7536   0.8768   0.2219
Li203     Li     0.54   0.08   0.2205
N204     N     0.3295   0.0482   0.1983
N205     N     0.7187   0.0482   0.1983
Li206     Li     0.54   0.46   0.2205
N207     N     0.3295   0.2813   0.1983
N208     N     0.7187   0.6705   0.1983
Li209     Li     0.92   0.46   0.2205
N210     N     0.9518   0.2813   0.1983
N211     N     0.9518   0.6705   0.1983
He212     He     0.1963   0.8037   0.2567
He213     He     0.1963   0.3927   0.2567
He214     He     0.6073   0.8037   0.2567
H215     H     0.4651   0.9302   0.2549
B216     B     0.5395   0.079   0.2893
B217     B     0.921   0.4605   0.2893
H218     H     0.0698   0.5349   0.2549
H219     H     0.4651   0.5349   0.2549
B220     B     0.5395   0.4605   0.2893
Ce221     Ce     0.6667   0.3333   0.2758
Ti222     Ti     0.6667   0.3333   0.2345
loop_
_geom_bond_atom_site_label_1
_geom_bond_atom_site_label_2
_geom_bond_distance
_geom_bond_site_symmetry_2
_ccdc_geom_bond_type
S1     N176    10.001   .     S
S1     N30    10.001   1_455     S
S1     S2    9.999   1_455     S
S1     S4    9.999   1_565     S
S2     N175    10.001   .     S
S2     N27    10.001   .     S
S2     S3    9.999   1_565     S
S2     S1    9.999   1_655     S
S3     N173    10.001   1_545     S
S3     N28    10.001   .     S
S3     S2    9.999   1_545     S
S3     S6    9.999   1_655     S
S4     N170    10.001   1_545     S
S4     N31    10.001   .     S
S4     S1    9.999   1_545     S
S4     S5    9.999   .     S
S5     N169    10.001   .     S
S5     N33    10.001   .     S
S5     S6    9.999   .     S
S6     N172    10.001   .     S
S6     N34    10.001   1_455     S
S6     S3    9.999   1_455     S
S7     N102    10.001   1_655     S
S7     N65    10.001   1_655     S
S7     S12    9.999   .     S
S7     S8    9.999   .     S
S8     N99    10.001   1_655     S
S8     N66    10.001   1_655     S
S8     S9    9.999   .     S
S9     N98    10.001   .     S
S9     N63    10.001   .     S
S9     S10    9.999   .     S
S10     N95    10.001   .     S
S10     N62    10.001   .     S
S10     S11    9.999   .     S
S11     N96    10.001   1_545     S
S11     N69    10.001   1_545     S
S11     S12    9.999   .     S
S12     N101    10.001   1_545     S
S12     N68    10.001   1_545     S
C13     O55    10.001   .     S
C13     O47    10.001   1_545     S
C13     Er16    10.001   .     S
C13     He35    10.0   .     S
C14     O52    10.001   1_655     S
C14     O50    10.001   .     S
C14     Er16    10.001   .     S
C14     He36    10.0   .     S
C15     O49    10.001   1_545     S
C15     O57    10.001   1_655     S
C15     Er16    10.001   .     S
C15     He37    10.0   .     S
Er16     V22    10.001   .     S
C17     O46    10.001   1_545     S
C17     O54    10.001   .     S
C17     Er20    10.001   .     S
C17     He71    10.0   .     S
C18     O53    10.001   1_655     S
C18     O51    10.001   .     S
C18     Er20    10.001   1_665     S
C18     He72    10.0   .     S
C19     O56    10.001   1_655     S
C19     O48    10.001   1_545     S
C19     Er20    10.001   1_655     S
C19     He70    10.0   .     S
Er20     C19    10.001   1_455     S
Er20     C18    10.001   1_445     S
Er20     V21    10.001   .     S
V21     Be58    10.001   1_455     S
V21     Be59    10.001   .     S
V21     Be60    10.001   1_445     S
V22     Be23    10.001   .     S
V22     Be24    10.001   .     S
V22     Be25    10.001   .     S
Be23     He37    10.001   .     S
Be23     N28    10.001   .     S
Be23     N34    10.001   .     S
Be24     He35    10.001   .     S
Be24     N31    10.001   .     S
Be24     N33    10.001   .     S
Be25     He36    10.001   .     S
Be25     N30    10.001   .     S
Be25     N27    10.001   .     S
Li26     N27    9.998   .     S
Li26     N28    9.999   1_565     S
Li26     H40    10.001   .     S
Li26     Ti45    10.0   .     S
N27     N33    10.001   .     S
N28     N31    10.001   .     S
N28     Li26    9.999   1_545     S
Li29     N31    9.998   1_565     S
Li29     N30    9.998   1_455     S
Li29     H43    10.001   .     S
Li29     Ti45    10.0   .     S
N30     S1    10.001   1_655     S
N30     Li29    9.998   1_655     S
N30     N34    10.001   .     S
N31     Li29    9.998   1_545     S
Li32     N34    9.998   1_455     S
Li32     N33    9.998   .     S
Li32     H38    10.001   .     S
Li32     Ti45    10.0   .     S
N34     S6    10.001   1_655     S
N34     Li32    9.998   1_655     S
He35     H43    10.0   1_545     S
He35     H38    10.0   .     S
He36     H43    10.0   1_655     S
He36     H40    10.0   .     S
He37     H40    10.0   1_545     S
He37     H38    10.0   1_655     S
H38     B39    9.998   .     S
H38     He37    10.0   1_455     S
B39     Ce44    9.998   .     S
B39     O55    10.0   .     S
B39     O57    10.0   .     S
H40     B41    9.998   .     S
H40     He37    10.0   1_565     S
B41     Ce44    9.998   .     S
B41     O49    10.0   .     S
B41     O50    10.0   .     S
B42     H43    9.998   .     S
B42     Ce44    9.998   .     S
B42     O47    10.0   .     S
B42     O52    10.0   .     S
H43     He35    10.0   1_565     S
H43     He36    10.0   1_455     S
Ce44     Ti45    9.998   .     S
O46     C17    10.001   1_565     S
O46     O47    9.998   .     S
O46     B77    10.0   .     S
O46     O53    10.0   .     S
O47     C13    10.001   1_565     S
O47     O49    10.0   .     S
O48     C19    10.001   1_565     S
O48     O49    9.998   .     S
O48     B77    10.0   .     S
O48     O51    10.0   .     S
O49     C15    10.001   1_565     S
O50     O51    9.998   .     S
O50     O55    10.0   .     S
O51     B74    10.0   .     S
O52     C14    10.001   1_455     S
O52     O53    9.998   .     S
O52     O57    10.0   .     S
O53     C18    10.001   1_455     S
O53     B76    10.0   .     S
O54     O55    9.998   .     S
O54     B74    10.0   .     S
O54     O56    10.0   .     S
O56     C19    10.001   1_455     S
O56     O57    9.998   .     S
O56     B76    10.0   .     S
O57     C15    10.001   1_455     S
Be58     He70    10.001   .     S
Be58     V21    10.001   1_655     S
Be58     N68    10.001   1_545     S
Be58     N65    10.001   1_655     S
Be59     He71    10.001   .     S
Be59     N69    10.001   1_545     S
Be59     N62    10.001   .     S
Be60     He72    10.001   .     S
Be60     V21    10.001   1_665     S
Be60     N66    10.001   1_655     S
Be60     N63    10.001   .     S
Li61     N62    9.998   .     S
Li61     N63    9.998   .     S
Li61     H73    10.001   .     S
Li61     Ti80    10.0   .     S
N62     N65    10.001   .     S
N63     N68    10.001   .     S
Li64     N66    9.998   .     S
Li64     N65    9.998   .     S
Li64     H75    10.001   1_455     S
Li64     Ti80    10.0   .     S
N65     S7    10.001   1_455     S
N65     Be58    10.001   1_455     S
N66     S8    10.001   1_455     S
N66     N69    10.001   .     S
N66     Be60    10.001   1_455     S
Li67     N69    9.998   .     S
Li67     N68    9.998   .     S
Li67     H78    10.001   1_565     S
Li67     Ti80    10.0   .     S
N68     S12    10.001   1_565     S
N68     Be58    10.001   1_565     S
N69     S11    10.001   1_565     S
N69     Be59    10.001   1_565     S
He70     H75    10.0   .     S
He70     H78    10.0   .     S
He71     H78    10.0   .     S
He71     H73    10.0   .     S
He72     H73    10.0   .     S
He72     H75    10.0   .     S
H73     B74    9.998   .     S
B74     Ce79    9.998   .     S
H75     B76    9.998   1_655     S
H75     Li64    10.001   1_655     S
B76     H75    9.998   1_455     S
B76     Ce79    9.998   .     S
B77     H78    9.998   1_565     S
B77     Ce79    9.998   .     S
H78     B77    9.998   1_545     S
H78     Li67    10.001   1_545     S
Ce79     Ti80    9.998   .     S
C81     O120    10.001   .     S
C81     O114    10.001   .     S
C81     Er84    10.001   .     S
C81     He113    10.0   1_455     S
C82     O118    10.001   .     S
C82     O122    10.001   .     S
C82     Er84    10.001   .     S
C82     He103    10.0   .     S
C83     O116    10.001   .     S
C83     O124    10.001   .     S
C83     Er84    10.001   .     S
C83     He104    10.0   1_565     S
Er84     V89    10.001   .     S
C85     O125    10.001   .     S
C85     O117    10.001   .     S
C85     Er88    10.001   .     S
C85     He148    10.0   1_545     S
C86     O115    10.001   .     S
C86     O121    10.001   .     S
C86     Er88    10.001   .     S
C86     He139    10.0   1_655     S
C87     O123    10.001   .     S
C87     O119    10.001   .     S
C87     Er88    10.001   .     S
C87     He138    10.0   .     S
Er88     V90    10.001   .     S
V89     Be91    10.001   .     S
V89     Be92    10.001   .     S
V89     Be93    10.001   .     S
V90     Be126    10.001   .     S
V90     Be127    10.001   .     S
V90     Be128    10.001   .     S
Be91     He103    10.001   .     S
Be91     N98    10.001   .     S
Be91     N95    10.001   .     S
Be92     He104    10.001   1_565     S
Be92     N96    10.001   .     S
Be92     N101    10.001   .     S
Be93     He113    10.001   1_455     S
Be93     N99    10.001   .     S
Be93     N102    10.001   .     S
Li94     N96    9.998   1_545     S
Li94     N95    9.999   .     S
Li94     H106    10.001   .     S
Li94     Ti112    10.0   .     S
N95     N102    10.001   .     S
N96     S11    10.001   1_565     S
N96     Li94    9.998   1_565     S
N96     N99    10.001   .     S
Li97     N98    9.998   .     S
Li97     N99    9.999   1_655     S
Li97     H110    10.001   .     S
Li97     Ti112    10.0   1_665     S
N98     N101    10.001   .     S
N99     S8    10.001   1_455     S
N99     Li97    9.999   1_455     S
Li100     N101    9.998   1_545     S
Li100     N102    9.998   1_655     S
Li100     H107    10.001   .     S
Li100     Ti112    10.0   1_655     S
N101     S12    10.001   1_565     S
N101     Li100    9.998   1_565     S
N102     S7    10.001   1_455     S
N102     Li100    9.998   1_455     S
He103     H110    10.0   .     S
He103     H106    10.0   .     S
He104     Be92    10.001   1_545     S
He104     C83    10.0   1_545     S
He104     H106    10.0   .     S
He104     H107    10.0   .     S
B105     H106    9.998   .     S
B105     Ce111    9.998   .     S
B105     O116    10.0   1_545     S
B105     O118    10.0   .     S
H107     B108    9.998   .     S
H107     He113    10.0   .     S
B108     Ce111    9.998   1_655     S
B108     O114    10.0   1_655     S
B108     O124    10.0   1_545     S
B109     H110    9.998   .     S
B109     Ce111    9.998   1_665     S
B109     O120    10.0   1_655     S
B109     O122    10.0   .     S
H110     He113    10.0   .     S
Ce111     B109    9.998   1_445     S
Ce111     B108    9.998   1_455     S
Ce111     Ti112    9.998   .     S
Ti112     Li100    10.0   1_455     S
Ti112     Li97    10.0   1_445     S
He113     Be93    10.001   1_655     S
He113     C81    10.0   1_655     S
O114     O115    9.998   1_456     S
O114     B108    10.0   1_455     S
O114     O118    10.0   .     S
O115     O114    9.998   1_654     S
O115     B142    10.0   1_655     S
O115     O125    10.0   .     S
O116     O117    9.998   1_566     S
O116     B105    10.0   1_565     S
O116     O120    10.0   .     S
O117     O116    9.998   1_544     S
O117     B145    10.0   1_545     S
O117     O119    10.0   .     S
O118     O119    9.998   1_556     S
O119     O118    9.998   1_554     S
O119     B142    10.0   .     S
O120     O121    9.998   1_456     S
O120     B109    10.0   1_455     S
O121     O120    9.998   1_654     S
O121     B145    10.0   1_655     S
O121     O123    10.0   .     S
O122     O123    9.998   1_556     S
O122     O124    10.0   .     S
O123     O122    9.998   1_554     S
O123     B140    10.0   .     S
O124     O125    9.998   1_566     S
O124     B108    10.0   1_565     S
O125     O124    9.998   1_544     S
O125     B140    10.0   1_545     S
Be126     He138    10.001   .     S
Be126     N131    10.001   .     S
Be126     N136    10.001   .     S
Be127     He148    10.001   1_545     S
Be127     N137    10.001   .     S
Be127     N134    10.001   .     S
Be128     He139    10.001   1_655     S
Be128     N130    10.001   .     S
Be128     N133    10.001   .     S
Li129     N130    9.998   1_455     S
Li129     N131    9.999   .     S
Li129     H143    10.001   .     S
Li129     Ti147    10.0   .     S
N130     Li129    9.998   1_655     S
N130     N137    10.001   .     S
N130     S153    10.001   1_655     S
N131     N134    10.001   .     S
N131     S154    10.001   .     S
Li132     N133    9.998   1_455     S
Li132     N134    9.998   1_565     S
Li132     H144    10.001   .     S
Li132     Ti147    10.0   1_565     S
N133     Li132    9.998   1_655     S
N133     N136    10.001   .     S
N133     S152    10.001   1_655     S
N134     Li132    9.998   1_545     S
N134     S150    10.001   1_545     S
Li135     N136    9.998   .     S
Li135     N137    9.999   1_565     S
Li135     H141    10.001   .     S
Li135     Ti147    10.0   1_665     S
N136     S151    10.001   .     S
N137     Li135    9.999   1_545     S
N137     S149    10.001   1_545     S
He138     H141    10.0   .     S
He138     H143    10.0   .     S
He139     Be128    10.001   1_455     S
He139     C86    10.0   1_455     S
He139     H143    10.0   .     S
He139     H144    10.0   .     S
B140     O125    10.0   1_565     S
B140     H141    9.998   .     S
B140     Ce146    9.998   1_665     S
H141     He148    10.0   .     S
B142     O115    10.0   1_455     S
B142     H143    9.998   .     S
B142     Ce146    9.998   .     S
H144     B145    9.998   .     S
H144     He148    10.0   .     S
B145     O117    10.0   1_565     S
B145     O121    10.0   1_455     S
B145     Ce146    9.998   1_565     S
Ce146     B140    9.998   1_445     S
Ce146     B145    9.998   1_545     S
Ce146     Ti147    9.998   .     S
Ti147     Li132    10.0   1_545     S
Ti147     Li135    10.0   1_445     S
He148     Be127    10.001   1_565     S
He148     C85    10.0   1_565     S
S149     N137    10.001   1_565     S
S149     N205    10.001   1_565     S
S149     S150    9.999   .     S
S149     S151    9.999   .     S
S150     N204    10.001   1_565     S
S150     N134    10.001   1_565     S
S150     S152    9.999   .     S
S151     N208    10.001   .     S
S151     S154    9.999   .     S
S152     N133    10.001   1_455     S
S152     N211    10.001   1_455     S
S152     S153    9.999   .     S
S153     N210    10.001   1_455     S
S153     N130    10.001   1_455     S
S153     S154    9.999   .     S
S154     N207    10.001   .     S
C155     O194    10.001   1_565     S
C155     O196    10.001   .     S
C155     Er158    10.001   1_665     S
C155     He214    10.0   .     S
C156     O192    10.001   1_455     S
C156     O188    10.001   .     S
C156     Er158    10.001   .     S
C156     He213    10.0   .     S
C157     O198    10.001   1_455     S
C157     O190    10.001   1_565     S
C157     Er158    10.001   1_565     S
C157     He212    10.0   .     S
Er158     C155    10.001   1_445     S
Er158     C157    10.001   1_545     S
Er158     V164    10.001   .     S
C159     O195    10.001   1_565     S
C159     O197    10.001   .     S
C159     Er162    10.001   .     S
C159     He178    10.0   .     S
C160     O189    10.001   .     S
C160     O193    10.001   1_455     S
C160     Er162    10.001   .     S
C160     He177    10.0   .     S
C161     O199    10.001   1_455     S
C161     O191    10.001   1_565     S
C161     Er162    10.001   .     S
C161     He179    10.0   .     S
Er162     V163    10.001   .     S
V163     Be165    10.001   .     S
V163     Be166    10.001   .     S
V163     Be167    10.001   .     S
V164     Be200    10.001   1_545     S
V164     Be201    10.001   .     S
V164     Be202    10.001   1_445     S
Be165     He177    10.001   .     S
Be165     N172    10.001   .     S
Be165     N169    10.001   .     S
Be166     He179    10.001   .     S
Be166     N176    10.001   .     S
Be166     N170    10.001   .     S
Be167     He178    10.001   .     S
Be167     N173    10.001   .     S
Be167     N175    10.001   .     S
Li168     N170    9.998   1_545     S
Li168     N169    9.998   .     S
Li168     H182    10.001   .     S
Li168     Ti187    10.0   .     S
N169     N175    10.001   .     S
N170     S4    10.001   1_565     S
N170     Li168    9.998   1_565     S
N170     N173    10.001   .     S
Li171     N172    9.998   1_655     S
Li171     N173    9.998   1_545     S
Li171     H184    10.001   .     S
Li171     Ti187    10.0   .     S
N172     Li171    9.998   1_455     S
N172     N176    10.001   .     S
N173     S3    10.001   1_565     S
N173     Li171    9.998   1_565     S
Li174     N175    9.998   .     S
Li174     N176    9.999   1_655     S
Li174     H180    10.001   .     S
Li174     Ti187    10.0   .     S
N176     Li174    9.999   1_455     S
He177     H184    10.0   1_455     S
He177     H182    10.0   .     S
He178     H180    10.0   .     S
He178     H184    10.0   1_565     S
He179     H182    10.0   1_565     S
He179     H180    10.0   1_455     S
H180     B181    9.998   .     S
H180     He179    10.0   1_655     S
B181     Ce186    9.998   .     S
B181     O197    10.0   .     S
B181     O199    10.0   .     S
H182     B183    9.998   .     S
H182     He179    10.0   1_545     S
B183     Ce186    9.998   .     S
B183     O189    10.0   .     S
B183     O191    10.0   .     S
H184     B185    9.998   .     S
H184     He177    10.0   1_655     S
H184     He178    10.0   1_545     S
B185     Ce186    9.998   .     S
B185     O193    10.0   .     S
B185     O195    10.0   .     S
Ce186     Ti187    9.998   .     S
O188     O189    9.998   .     S
O188     B220    10.0   .     S
O188     O190    10.0   .     S
O189     O197    10.0   .     S
O190     C157    10.001   1_545     S
O190     O191    9.998   .     S
O190     B216    10.0   .     S
O191     C161    10.001   1_545     S
O191     O195    10.0   .     S
O192     C156    10.001   1_655     S
O192     O193    9.998   .     S
O192     B217    10.0   .     S
O192     O194    10.0   .     S
O193     C160    10.001   1_655     S
O193     O199    10.0   .     S
O194     C155    10.001   1_545     S
O194     O195    9.998   .     S
O194     B216    10.0   .     S
O195     C159    10.001   1_545     S
O196     O197    9.998   .     S
O196     B220    10.0   .     S
O196     O198    10.0   .     S
O198     C157    10.001   1_655     S
O198     O199    9.998   .     S
O198     B217    10.0   .     S
O199     C161    10.001   1_655     S
Be200     He212    10.001   .     S
Be200     V164    10.001   1_565     S
Be200     N211    10.001   1_455     S
Be200     N204    10.001   1_565     S
Be201     He213    10.001   .     S
Be201     N210    10.001   1_455     S
Be201     N207    10.001   .     S
Be202     He214    10.001   .     S
Be202     V164    10.001   1_665     S
Be202     N205    10.001   1_565     S
Be202     N208    10.001   .     S
Li203     N205    9.998   .     S
Li203     N204    9.998   .     S
Li203     H215    10.001   1_545     S
Li203     Ti222    10.0   .     S
N204     S150    10.001   1_545     S
N204     N207    10.001   .     S
N204     Be200    10.001   1_545     S
N205     S149    10.001   1_545     S
N205     N210    10.001   .     S
N205     Be202    10.001   1_545     S
Li206     N207    9.998   .     S
Li206     N208    9.998   .     S
Li206     H219    10.001   .     S
Li206     Ti222    10.0   .     S
N208     N211    10.001   .     S
Li209     N210    9.998   .     S
Li209     N211    9.998   .     S
Li209     H218    10.001   1_655     S
Li209     Ti222    10.0   .     S
N210     S153    10.001   1_655     S
N210     Be201    10.001   1_655     S
N211     S152    10.001   1_655     S
N211     Be200    10.001   1_655     S
He212     H215    10.0   .     S
He212     H218    10.0   .     S
He213     H218    10.0   .     S
He213     H219    10.0   .     S
He214     H215    10.0   .     S
He214     H219    10.0   .     S
H215     B216    9.998   1_565     S
H215     Li203    10.001   1_565     S
B216     H215    9.998   1_545     S
B216     Ce221    9.998   .     S
B217     H218    9.998   1_655     S
B217     Ce221    9.998   .     S
H218     B217    9.998   1_455     S
H218     Li209    10.001   1_455     S
H219     B220    9.998   .     S
B220     Ce221    9.998   .     S
Ce221     Ti222    9.998   .     S
