data_nas
_audit_creation_date              2020-02-04
_audit_creation_method            'Pymatgen'
_symmetry_space_group_name_H-M    'P1'
_symmetry_Int_Tables_number       1
loop_
_symmetry_equiv_pos_as_xyz
  x,y,z
_cell_length_a                    29.587
_cell_length_b                    29.587
_cell_length_c                    29.587
_cell_angle_alpha                 90.0
_cell_angle_beta                 90.0
_cell_angle_gamma                 90.0
loop_
_atom_site_label
_atom_site_type_symbol
_atom_site_fract_x
_atom_site_fract_y
_atom_site_fract_z
Er1     Er     0.0984   0.4016   0.5984
Er2     Er     0.4016   0.5984   0.0984
Er3     Er     0.5984   0.0984   0.4016
Er4     Er     0.0984   0.0984   0.0984
Er5     Er     0.9016   0.9016   0.9016
Er6     Er     0.5984   0.4016   0.9016
Er7     Er     0.4016   0.9016   0.5984
V8     V     0.42   0.42   0.42
V9     V     0.58   0.58   0.58
Ti10     Ti     0.6548   0.4209   0.2614
Ti11     Ti     0.2614   0.6548   0.4209
Ti12     Ti     0.4209   0.2614   0.6548
Ti13     Ti     0.3452   0.5791   0.7386
Ti14     Ti     0.7386   0.3452   0.5791
Ti15     Ti     0.5791   0.7386   0.3452
V16     V     0.42   0.08   0.92
V17     V     0.58   0.92   0.08
Ti18     Ti     0.2614   0.8452   0.9209
Ti19     Ti     0.3452   0.9209   0.2386
Ti20     Ti     0.7386   0.1548   0.0791
Ti21     Ti     0.4209   0.2386   0.1548
Ti22     Ti     0.6548   0.0791   0.7614
Ti23     Ti     0.5791   0.7614   0.8452
V24     V     0.92   0.42   0.08
V25     V     0.08   0.58   0.92
Ti26     Ti     0.9209   0.2614   0.8452
Ti27     Ti     0.2386   0.3452   0.9209
Ti28     Ti     0.1548   0.4209   0.2386
Ti29     Ti     0.0791   0.7386   0.1548
Ti30     Ti     0.7614   0.6548   0.0791
Ti31     Ti     0.8452   0.5791   0.7614
V32     V     0.08   0.92   0.42
V33     V     0.92   0.08   0.58
Ti34     Ti     0.8452   0.9209   0.2614
Ti35     Ti     0.9209   0.2386   0.3452
Ti36     Ti     0.2386   0.1548   0.4209
Ti37     Ti     0.1548   0.0791   0.7386
Ti38     Ti     0.0791   0.7614   0.6548
Ti39     Ti     0.7614   0.8452   0.5791
Er40     Er     0.9016   0.5984   0.4016
loop_
_geom_bond_atom_site_label_1
_geom_bond_atom_site_label_2
_geom_bond_distance
_geom_bond_site_symmetry_2
_ccdc_geom_bond_type
Er1     Er40    10.084   1_455     S
Er1     V25    10.895   .     S
Er1     V8    10.895   .     S
Er1     V33    10.895   1_455     S
Er1     Ti13    9.905   .     S
Er1     Ti36    9.905   .     S
Er1     Ti26    9.905   1_455     S
Er1     Ti31    10.342   1_455     S
Er1     Ti11    10.342   .     S
Er1     Ti35    10.342   1_455     S
Er1     Ti27    10.538   .     S
Er1     Ti12    10.538   .     S
Er1     Ti37    10.538   .     S
Er1     Ti14    10.79   1_455     S
Er1     Ti38    10.79   .     S
Er1     Ti28    10.79   .     S
Er2     Er6    10.084   1_554     S
Er2     V17    10.895   .     S
Er2     V25    10.895   1_554     S
Er2     V8    10.895   .     S
Er2     Ti15    9.905   .     S
Er2     Ti18    9.905   1_554     S
Er2     Ti28    9.905   .     S
Er2     Ti23    10.342   1_554     S
Er2     Ti27    10.342   1_554     S
Er2     Ti10    10.342   .     S
Er2     Ti19    10.538   .     S
Er2     Ti29    10.538   .     S
Er2     Ti11    10.538   .     S
Er2     Ti13    10.79   1_554     S
Er2     Ti21    10.79   .     S
Er2     Ti30    10.79   .     S
Er3     Er7    10.084   1_545     S
Er3     V33    10.895   .     S
Er3     V17    10.895   1_545     S
Er3     V8    10.895   .     S
Er3     Ti14    9.905   .     S
Er3     Ti34    9.905   1_545     S
Er3     Ti21    9.905   .     S
Er3     Ti39    10.342   1_545     S
Er3     Ti19    10.342   1_545     S
Er3     Ti12    10.342   .     S
Er3     Ti35    10.538   .     S
Er3     Ti20    10.538   .     S
Er3     Ti10    10.538   .     S
Er3     Ti15    10.79   1_545     S
Er3     Ti36    10.79   .     S
Er3     Ti22    10.79   .     S
Er4     Er5    10.084   1_444     S
Er4     V32    10.895   1_545     S
Er4     V24    10.895   1_455     S
Er4     V16    10.895   1_554     S
Er4     Ti19    9.905   1_545     S
Er4     Ti35    9.905   1_455     S
Er4     Ti27    9.905   1_554     S
Er4     Ti34    10.342   1_445     S
Er4     Ti26    10.342   1_454     S
Er4     Ti18    10.342   1_544     S
Er4     Ti36    10.538   .     S
Er4     Ti28    10.538   .     S
Er4     Ti21    10.538   .     S
Er4     Ti20    10.79   1_455     S
Er4     Ti37    10.79   1_554     S
Er4     Ti29    10.79   1_545     S
Er5     Er4    10.084   1_666     S
Er5     V33    10.895   1_565     S
Er5     V25    10.895   1_655     S
Er5     V17    10.895   1_556     S
Er5     Ti22    9.905   1_565     S
Er5     Ti38    9.905   1_655     S
Er5     Ti30    9.905   1_556     S
Er5     Ti37    10.342   1_665     S
Er5     Ti29    10.342   1_656     S
Er5     Ti20    10.342   1_566     S
Er5     Ti39    10.538   .     S
Er5     Ti31    10.538   .     S
Er5     Ti23    10.538   .     S
Er5     Ti18    10.79   1_655     S
Er5     Ti34    10.79   1_556     S
Er5     Ti26    10.79   1_565     S
Er6     Er2    10.084   1_556     S
Er6     V16    10.895   .     S
Er6     V9    10.895   .     S
Er6     V24    10.895   1_556     S
Er6     Ti12    9.905   .     S
Er6     Ti31    9.905   .     S
Er6     Ti20    9.905   1_556     S
Er6     Ti21    10.342   1_556     S
Er6     Ti13    10.342   .     S
Er6     Ti30    10.342   1_556     S
Er6     Ti22    10.538   .     S
Er6     Ti14    10.538   .     S
Er6     Ti26    10.538   .     S
Er6     Ti10    10.79   1_556     S
Er6     Ti27    10.79   .     S
Er6     Ti23    10.79   .     S
Er7     Er3    10.084   1_565     S
Er7     V32    10.895   .     S
Er7     V9    10.895   .     S
Er7     V16    10.895   1_565     S
Er7     Ti11    9.905   .     S
Er7     Ti23    9.905   .     S
Er7     Ti37    9.905   1_565     S
Er7     Ti36    10.342   1_565     S
Er7     Ti15    10.342   .     S
Er7     Ti22    10.342   1_565     S
Er7     Ti38    10.538   .     S
Er7     Ti13    10.538   .     S
Er7     Ti18    10.538   .     S
Er7     Ti12    10.79   1_565     S
Er7     Ti19    10.79   .     S
Er7     Ti39    10.79   .     S
V8     Ti15    10.766   .     S
V8     Ti14    10.766   .     S
V8     Ti13    10.766   .     S
V8     Ti21    9.507   .     S
V8     Ti28    9.507   .     S
V8     Ti36    9.507   .     S
V8     V9    8.197   .     S
V8     Ti12    8.384   .     S
V8     Ti11    8.384   .     S
V8     Ti10    8.384   .     S
V9     Ti12    10.766   .     S
V9     Ti11    10.766   .     S
V9     Ti10    10.766   .     S
V9     Er40    10.895   .     S
V9     Ti23    9.507   .     S
V9     Ti31    9.507   .     S
V9     Ti39    9.507   .     S
V9     Ti15    8.384   .     S
V9     Ti14    8.384   .     S
V9     Ti13    8.384   .     S
Ti10     Ti15    9.976   .     S
Ti10     Ti14    9.976   .     S
Ti10     Er40    9.905   .     S
Ti10     V24    9.507   .     S
Ti10     Er6    10.79   1_554     S
Ti10     Ti30    9.324   .     S
Ti10     Ti21    9.324   .     S
Ti10     Ti20    9.86   .     S
Ti10     Ti35    9.86   .     S
Ti11     Ti13    9.976   .     S
Ti11     Ti15    9.976   .     S
Ti11     V32    9.507   .     S
Ti11     Er40    10.79   1_455     S
Ti11     Ti38    9.324   .     S
Ti11     Ti28    9.324   .     S
Ti11     Ti29    9.86   .     S
Ti11     Ti19    9.86   .     S
Ti12     Ti14    9.976   .     S
Ti12     Ti13    9.976   .     S
Ti12     V16    9.507   .     S
Ti12     Er7    10.79   1_545     S
Ti12     Ti22    9.324   .     S
Ti12     Ti36    9.324   .     S
Ti12     Ti37    9.86   .     S
Ti12     Ti27    9.86   .     S
Ti13     V25    9.507   .     S
Ti13     Er2    10.79   1_556     S
Ti13     Ti27    9.324   .     S
Ti13     Ti23    9.324   .     S
Ti13     Ti18    9.86   .     S
Ti13     Ti38    9.86   .     S
Ti14     Er40    10.342   .     S
Ti14     V33    9.507   .     S
Ti14     Er1    10.79   1_655     S
Ti14     Ti35    9.324   .     S
Ti14     Ti31    9.324   .     S
Ti14     Ti26    9.86   .     S
Ti14     Ti22    9.86   .     S
Ti15     Er40    10.538   .     S
Ti15     V17    9.507   .     S
Ti15     Er3    10.79   1_565     S
Ti15     Ti19    9.324   .     S
Ti15     Ti39    9.324   .     S
Ti15     Ti34    9.86   .     S
Ti15     Ti30    9.86   .     S
V16     Ti23    10.766   1_545     S
V16     Ti20    10.766   1_556     S
V16     Ti19    10.766   1_546     S
V16     Er4    10.895   1_556     S
V16     Er7    10.895   1_545     S
V16     Ti27    9.507   .     S
V16     Ti37    9.507   .     S
V16     V17    8.197   1_546     S
V16     Ti18    8.384   1_545     S
V16     Ti22    8.384   .     S
V16     Ti21    8.384   1_556     S
V17     Ti18    10.766   1_554     S
V17     Ti22    10.766   1_564     S
V17     Ti21    10.766   1_565     S
V17     Er3    10.895   1_565     S
V17     Er5    10.895   1_554     S
V17     Ti30    9.507   .     S
V17     Ti34    9.507   .     S
V17     V16    8.197   1_564     S
V17     Ti23    8.384   1_554     S
V17     Ti20    8.384   1_565     S
V17     Ti19    8.384   .     S
Ti18     V17    10.766   1_556     S
Ti18     Ti19    9.976   1_556     S
Ti18     Ti23    9.976   .     S
Ti18     Er2    9.905   1_556     S
Ti18     Er4    10.342   1_566     S
Ti18     V25    9.507   .     S
Ti18     Er5    10.79   1_455     S
Ti18     Ti29    9.324   1_556     S
Ti18     Ti37    9.324   1_565     S
Ti18     Ti38    9.86   .     S
Ti18     V16    8.384   1_565     S
Ti19     V16    10.766   1_564     S
Ti19     Ti18    9.976   1_554     S
Ti19     Ti21    9.976   1_565     S
Ti19     Er4    9.905   1_565     S
Ti19     Er3    10.342   1_565     S
Ti19     V32    9.507   .     S
Ti19     Ti36    9.324   1_565     S
Ti19     Ti29    9.86   .     S
Ti20     V16    10.766   1_554     S
Ti20     Ti22    9.976   1_554     S
Ti20     Ti21    9.976   .     S
Ti20     Er6    9.905   1_554     S
Ti20     Er5    10.342   1_544     S
Ti20     V24    9.507   .     S
Ti20     Er4    10.79   1_655     S
Ti20     Ti26    9.324   1_554     S
Ti20     Ti34    9.324   1_545     S
Ti20     Ti35    9.86   .     S
Ti20     V17    8.384   1_545     S
Ti21     V17    10.766   1_545     S
Ti21     Ti19    9.976   1_545     S
Ti21     Er6    10.342   1_554     S
Ti21     Ti27    9.324   1_554     S
Ti21     Ti36    9.86   .     S
Ti21     Ti28    9.86   .     S
Ti21     V16    8.384   1_554     S
Ti22     V17    10.766   1_546     S
Ti22     Ti20    9.976   1_556     S
Ti22     Ti23    9.976   1_545     S
Ti22     Er5    9.905   1_545     S
Ti22     Er7    10.342   1_545     S
Ti22     V33    9.507   .     S
Ti22     Ti39    9.324   1_545     S
Ti22     Ti26    9.86   .     S
Ti23     V16    10.766   1_565     S
Ti23     Ti22    9.976   1_565     S
Ti23     Er2    10.342   1_556     S
Ti23     Ti30    9.324   1_556     S
Ti23     Ti39    9.86   .     S
Ti23     Ti31    9.86   .     S
Ti23     V17    8.384   1_556     S
V24     Ti29    10.766   1_655     S
V24     Ti31    10.766   1_554     S
V24     Ti27    10.766   1_654     S
V24     Er4    10.895   1_655     S
V24     Er6    10.895   1_554     S
V24     Er40    10.895   .     S
V24     Ti35    9.507   .     S
V24     V25    8.197   1_654     S
V24     Ti26    8.384   1_554     S
V24     Ti30    8.384   .     S
V24     Ti28    8.384   1_655     S
V25     Ti26    10.766   1_455     S
V25     Ti30    10.766   1_456     S
V25     Ti28    10.766   1_556     S
V25     Er2    10.895   1_556     S
V25     Er5    10.895   1_455     S
V25     Ti38    9.507   .     S
V25     V24    8.197   1_456     S
V25     Ti29    8.384   1_556     S
V25     Ti31    8.384   1_455     S
V25     Ti27    8.384   .     S
Ti26     V25    10.766   1_655     S
Ti26     Ti27    9.976   1_655     S
Ti26     Ti31    9.976   .     S
Ti26     Er1    9.905   1_655     S
Ti26     Er4    10.342   1_656     S
Ti26     V33    9.507   .     S
Ti26     Er5    10.79   1_545     S
Ti26     Ti20    9.324   1_556     S
Ti26     Ti37    9.324   1_655     S
Ti26     V24    8.384   1_556     S
Ti27     V24    10.766   1_456     S
Ti27     Ti26    9.976   1_455     S
Ti27     Ti28    9.976   1_556     S
Ti27     Er4    9.905   1_556     S
Ti27     Er2    10.342   1_556     S
Ti27     Ti21    9.324   1_556     S
Ti27     Ti37    9.86   .     S
Ti28     V25    10.766   1_554     S
Ti28     Ti27    9.976   1_554     S
Ti28     Ti29    9.976   .     S
Ti28     Er40    10.342   1_455     S
Ti28     Ti35    9.324   1_455     S
Ti28     Ti36    9.86   .     S
Ti28     V24    8.384   1_455     S
Ti29     V24    10.766   1_455     S
Ti29     Ti30    9.976   1_455     S
Ti29     Er40    9.905   1_455     S
Ti29     Er5    10.342   1_454     S
Ti29     V32    9.507   .     S
Ti29     Er4    10.79   1_565     S
Ti29     Ti18    9.324   1_554     S
Ti29     Ti34    9.324   1_455     S
Ti29     V25    8.384   1_554     S
Ti30     V25    10.766   1_654     S
Ti30     Ti29    9.976   1_655     S
Ti30     Ti31    9.976   1_554     S
Ti30     Er5    9.905   1_554     S
Ti30     Er6    10.342   1_554     S
Ti30     Er40    10.538   .     S
Ti30     Ti23    9.324   1_554     S
Ti30     Ti34    9.86   .     S
Ti31     V24    10.766   1_556     S
Ti31     Ti30    9.976   1_556     S
Ti31     Er1    10.342   1_655     S
Ti31     Er40    10.79   .     S
Ti31     Ti38    9.324   1_655     S
Ti31     Ti39    9.86   .     S
Ti31     V25    8.384   1_655     S
V32     Ti39    10.766   1_455     S
V32     Ti37    10.766   1_565     S
V32     Ti35    10.766   1_465     S
V32     Er4    10.895   1_565     S
V32     Er40    10.895   1_455     S
V32     V33    8.197   1_465     S
V32     Ti34    8.384   1_455     S
V32     Ti38    8.384   .     S
V32     Ti36    8.384   1_565     S
V33     Ti34    10.766   1_545     S
V33     Ti38    10.766   1_645     S
V33     Ti36    10.766   1_655     S
V33     Er1    10.895   1_655     S
V33     Er5    10.895   1_545     S
V33     V32    8.197   1_645     S
V33     Ti39    8.384   1_545     S
V33     Ti37    8.384   1_655     S
V33     Ti35    8.384   .     S
Ti34     V33    10.766   1_565     S
Ti34     Ti35    9.976   1_565     S
Ti34     Ti39    9.976   .     S
Ti34     Er3    9.905   1_565     S
Ti34     Er4    10.342   1_665     S
Ti34     Er40    10.538   .     S
Ti34     Er5    10.79   1_554     S
Ti34     Ti29    9.324   1_655     S
Ti34     Ti20    9.324   1_565     S
Ti34     V32    8.384   1_655     S
Ti35     V32    10.766   1_645     S
Ti35     Ti34    9.976   1_545     S
Ti35     Ti36    9.976   1_655     S
Ti35     Er4    9.905   1_655     S
Ti35     Er1    10.342   1_655     S
Ti35     Er40    10.79   .     S
Ti35     Ti28    9.324   1_655     S
Ti36     V33    10.766   1_455     S
Ti36     Ti35    9.976   1_455     S
Ti36     Ti37    9.976   .     S
Ti36     Er7    10.342   1_545     S
Ti36     Ti19    9.324   1_545     S
Ti36     V32    8.384   1_545     S
Ti37     V32    10.766   1_545     S
Ti37     Ti38    9.976   1_545     S
Ti37     Er7    9.905   1_545     S
Ti37     Er5    10.342   1_445     S
Ti37     Er4    10.79   1_556     S
Ti37     Ti26    9.324   1_455     S
Ti37     Ti18    9.324   1_545     S
Ti37     V33    8.384   1_455     S
Ti38     V33    10.766   1_465     S
Ti38     Ti37    9.976   1_565     S
Ti38     Ti39    9.976   1_455     S
Ti38     Er5    9.905   1_455     S
Ti38     Er40    10.342   1_455     S
Ti38     Ti31    9.324   1_455     S
Ti39     V32    10.766   1_655     S
Ti39     Ti38    9.976   1_655     S
Ti39     Er40    9.905   .     S
Ti39     Er3    10.342   1_565     S
Ti39     Ti22    9.324   1_565     S
Ti39     V33    8.384   1_565     S
Er40     Er1    10.084   1_655     S
Er40     V32    10.895   1_655     S
Er40     Ti29    9.905   1_655     S
Er40     Ti28    10.342   1_655     S
Er40     Ti38    10.342   1_655     S
Er40     Ti11    10.79   1_655     S
