data_nasd
_audit_creation_date              2020-02-04
_audit_creation_method            'Pymatgen'
_symmetry_space_group_name_H-M    'P1'
_symmetry_Int_Tables_number       1
loop_
_symmetry_equiv_pos_as_xyz
  x,y,z
_cell_length_a                    74.0926
_cell_length_b                    74.0926
_cell_length_c                    74.0926
_cell_angle_alpha                 90.0
_cell_angle_beta                 90.0
_cell_angle_gamma                 90.0
loop_
_atom_site_label
_atom_site_type_symbol
_atom_site_fract_x
_atom_site_fract_y
_atom_site_fract_z
Be1     Be     0.8971   0.975   0.4165
Be2     Be     0.975   0.4165   0.8971
Be3     Be     0.4165   0.8971   0.975
Be4     Be     0.6029   0.475   0.4165
Be5     Be     0.8971   0.525   0.9165
Be6     Be     0.525   0.9165   0.8971
Be7     Be     0.9165   0.8971   0.525
Be8     Be     0.6029   0.025   0.9165
Be9     Be     0.025   0.9165   0.6029
Be10     Be     0.9165   0.6029   0.025
Be11     Be     0.475   0.4165   0.6029
Be12     Be     0.4165   0.6029   0.475
Be13     Be     0.3971   0.975   0.0835
Be14     Be     0.975   0.0835   0.3971
Be15     Be     0.0835   0.3971   0.975
Be16     Be     0.1029   0.025   0.5835
Be17     Be     0.025   0.5835   0.1029
Be18     Be     0.5835   0.1029   0.025
Be19     Be     0.3971   0.525   0.5835
Be20     Be     0.1029   0.475   0.0835
Be21     Be     0.475   0.0835   0.1029
Be22     Be     0.525   0.5835   0.3971
Be23     Be     0.5835   0.3971   0.525
Be24     Be     0.0835   0.1029   0.475
B25     B     0.4618   0.2664   0.0104
He26     He     0.4542   0.3902   0.0637
B27     B     0.2336   0.9896   0.9618
He28     He     0.1098   0.9363   0.9542
H29     H     0.1988   0.2046   0.977
H30     H     0.2954   0.023   0.6988
H31     H     0.477   0.3012   0.7954
S32     S     0.1882   0.0978   0.8951
S33     S     0.4022   0.1049   0.6882
S34     S     0.3951   0.3118   0.9022
Er35     Er     0.2697   0.4807   0.5884
Li36     Li     0.2651   0.3459   0.5831
Er37     Er     0.0193   0.4116   0.7697
Li38     Li     0.1541   0.4169   0.7651
Er39     Er     0.0884   0.2303   0.5193
Li40     Li     0.0831   0.2349   0.6541
C41     C     0.2631   0.2863   0.8909
Ce42     Ce     0.1912   0.4005   0.8938
C43     C     0.2137   0.1091   0.7631
Ce44     Ce     0.0995   0.1062   0.6912
C45     C     0.3909   0.2369   0.7137
Ce46     Ce     0.3938   0.3088   0.5995
V47     V     0.267   0.233   0.767
Ti48     Ti     0.189   0.311   0.689
B49     B     0.5104   0.0382   0.7336
He50     He     0.5637   0.0458   0.6098
B51     B     0.2664   0.0104   0.4618
He52     He     0.3902   0.0637   0.4542
B53     B     0.9896   0.9618   0.2336
He54     He     0.9363   0.9542   0.1098
H55     H     0.2046   0.977   0.1988
H56     H     0.023   0.6988   0.2954
H57     H     0.3012   0.7954   0.477
S58     S     0.0978   0.8951   0.1882
S59     S     0.1049   0.6882   0.4022
S60     S     0.3118   0.9022   0.3951
Er61     Er     0.4807   0.5884   0.2697
Li62     Li     0.3459   0.5831   0.2651
Er63     Er     0.4116   0.7697   0.0193
Li64     Li     0.4169   0.7651   0.1541
Er65     Er     0.2303   0.5193   0.0884
Li66     Li     0.2349   0.6541   0.0831
C67     C     0.2863   0.8909   0.2631
Ce68     Ce     0.4005   0.8938   0.1912
C69     C     0.1091   0.7631   0.2137
Ce70     Ce     0.1062   0.6912   0.0995
C71     C     0.2369   0.7137   0.3909
Ce72     Ce     0.3088   0.5995   0.3938
V73     V     0.233   0.767   0.267
Ti74     Ti     0.311   0.689   0.189
B75     B     0.0382   0.7336   0.5104
He76     He     0.0458   0.6098   0.5637
B77     B     0.7664   0.0104   0.0382
He78     He     0.8902   0.0637   0.0458
B79     B     0.5382   0.7336   0.9896
He80     He     0.5458   0.6098   0.9363
H81     H     0.7046   0.977   0.3012
H82     H     0.8012   0.7954   0.023
H83     H     0.523   0.6988   0.2046
S84     S     0.5978   0.8951   0.3118
S85     S     0.8118   0.9022   0.1049
S86     S     0.6049   0.6882   0.0978
Er87     Er     0.9807   0.5884   0.2303
Li88     Li     0.8459   0.5831   0.2349
Er89     Er     0.9116   0.7697   0.4807
Li90     Li     0.9169   0.7651   0.3459
Er91     Er     0.7303   0.5193   0.4116
Li92     Li     0.7349   0.6541   0.4169
C93     C     0.6091   0.7631   0.2863
Ce94     Ce     0.6062   0.6912   0.4005
C95     C     0.7863   0.8909   0.2369
Ce96     Ce     0.9005   0.8938   0.3088
C97     C     0.7369   0.7137   0.1091
Ce98     Ce     0.8088   0.5995   0.1062
V99     V     0.733   0.767   0.233
Ti100     Ti     0.811   0.689   0.311
B101     B     0.4896   0.9618   0.2664
He102     He     0.4363   0.9542   0.3902
B103     B     0.0382   0.7664   0.0104
He104     He     0.0458   0.8902   0.0637
B105     B     0.2664   0.4896   0.9618
He106     He     0.3902   0.4363   0.9542
B107     B     0.9896   0.5382   0.7336
He108     He     0.9363   0.5458   0.6098
H109     H     0.3012   0.7046   0.977
H110     H     0.023   0.8012   0.7954
H111     H     0.2046   0.523   0.6988
S112     S     0.3118   0.5978   0.8951
S113     S     0.1049   0.8118   0.9022
S114     S     0.0978   0.6049   0.6882
Er115     Er     0.2303   0.9807   0.5884
Li116     Li     0.2349   0.8459   0.5831
Er117     Er     0.4807   0.9116   0.7697
Li118     Li     0.3459   0.9169   0.7651
Er119     Er     0.4116   0.7303   0.5193
Li120     Li     0.4169   0.7349   0.6541
C121     C     0.2863   0.6091   0.7631
Ce122     Ce     0.4005   0.6062   0.6912
C123     C     0.2369   0.7863   0.8909
Ce124     Ce     0.3088   0.9005   0.8938
C125     C     0.1091   0.7369   0.7137
Ce126     Ce     0.1062   0.8088   0.5995
V127     V     0.233   0.733   0.767
Ti128     Ti     0.311   0.811   0.689
B129     B     0.4896   0.5382   0.7664
He130     He     0.4363   0.5458   0.8902
B131     B     0.5382   0.7664   0.4896
He132     He     0.5458   0.8902   0.4363
H133     H     0.7046   0.523   0.8012
H134     H     0.523   0.8012   0.7046
H135     H     0.8012   0.7046   0.523
S136     S     0.5978   0.6049   0.8118
S137     S     0.6049   0.8118   0.5978
S138     S     0.8118   0.5978   0.6049
Er139     Er     0.7303   0.9807   0.9116
Li140     Li     0.7349   0.8459   0.9169
Er141     Er     0.9807   0.9116   0.7303
Li142     Li     0.8459   0.9169   0.7349
Er143     Er     0.9116   0.7303   0.9807
Li144     Li     0.9169   0.7349   0.8459
C145     C     0.6091   0.7369   0.7863
Ce146     Ce     0.6062   0.8088   0.9005
C147     C     0.7369   0.7863   0.6091
Ce148     Ce     0.8088   0.9005   0.6062
C149     C     0.7863   0.6091   0.7369
Ce150     Ce     0.9005   0.6062   0.8088
V151     V     0.733   0.733   0.733
Ti152     Ti     0.811   0.811   0.811
B153     B     0.7664   0.4896   0.5382
He154     He     0.8902   0.4363   0.5458
B155     B     0.0104   0.0382   0.7664
He156     He     0.0637   0.0458   0.8902
B157     B     0.7336   0.9896   0.5382
He158     He     0.6098   0.9363   0.5458
H159     H     0.977   0.3012   0.7046
H160     H     0.7954   0.023   0.8012
H161     H     0.6988   0.2046   0.523
S162     S     0.8951   0.3118   0.5978
S163     S     0.9022   0.1049   0.8118
S164     S     0.6882   0.0978   0.6049
Er165     Er     0.5884   0.2303   0.9807
Li166     Li     0.5831   0.2349   0.8459
Er167     Er     0.7697   0.4807   0.9116
Li168     Li     0.7651   0.3459   0.9169
Er169     Er     0.5193   0.4116   0.7303
Li170     Li     0.6541   0.4169   0.7349
C171     C     0.7631   0.2863   0.6091
Ce172     Ce     0.6912   0.4005   0.6062
C173     C     0.8909   0.2369   0.7863
Ce174     Ce     0.8938   0.3088   0.9005
C175     C     0.7137   0.1091   0.7369
Ce176     Ce     0.5995   0.1062   0.8088
V177     V     0.767   0.233   0.733
Ti178     Ti     0.689   0.311   0.811
B179     B     0.9618   0.2664   0.4896
He180     He     0.9542   0.3902   0.4363
B181     B     0.4618   0.2336   0.5104
He182     He     0.4542   0.1098   0.5637
B183     B     0.2336   0.5104   0.4618
He184     He     0.1098   0.5637   0.4542
H185     H     0.2954   0.477   0.1988
H186     H     0.477   0.1988   0.2954
H187     H     0.1988   0.2954   0.477
S188     S     0.1882   0.4022   0.3951
S189     S     0.4022   0.3951   0.1882
S190     S     0.3951   0.1882   0.4022
Er191     Er     0.2697   0.0193   0.0884
Li192     Li     0.2651   0.1541   0.0831
Er193     Er     0.0193   0.0884   0.2697
Li194     Li     0.1541   0.0831   0.2651
Er195     Er     0.0884   0.2697   0.0193
Li196     Li     0.0831   0.2651   0.1541
C197     C     0.3909   0.2631   0.2137
Ce198     Ce     0.3938   0.1912   0.0995
C199     C     0.2631   0.2137   0.3909
Ce200     Ce     0.1912   0.0995   0.3938
C201     C     0.2137   0.3909   0.2631
Ce202     Ce     0.0995   0.3938   0.1912
V203     V     0.267   0.267   0.267
Ti204     Ti     0.189   0.189   0.189
B205     B     0.5104   0.4618   0.2336
He206     He     0.5637   0.4542   0.1098
B207     B     0.0104   0.4618   0.2664
He208     He     0.0637   0.4542   0.3902
B209     B     0.9618   0.2336   0.9896
He210     He     0.9542   0.1098   0.9363
H211     H     0.977   0.1988   0.2046
H212     H     0.6988   0.2954   0.023
H213     H     0.7954   0.477   0.3012
S214     S     0.8951   0.1882   0.0978
S215     S     0.6882   0.4022   0.1049
S216     S     0.9022   0.3951   0.3118
Er217     Er     0.7697   0.0193   0.4116
Li218     Li     0.7651   0.1541   0.4169
Er219     Er     0.5884   0.2697   0.4807
Li220     Li     0.5831   0.2651   0.3459
Er221     Er     0.5193   0.0884   0.2303
Li222     Li     0.6541   0.0831   0.2349
C223     C     0.8909   0.2631   0.2863
Ce224     Ce     0.8938   0.1912   0.4005
C225     C     0.7631   0.2137   0.1091
Ce226     Ce     0.6912   0.0995   0.1062
C227     C     0.7137   0.3909   0.2369
Ce228     Ce     0.5995   0.3938   0.3088
V229     V     0.767   0.267   0.233
Ti230     Ti     0.689   0.189   0.311
B231     B     0.7336   0.5104   0.0382
He232     He     0.6098   0.5637   0.0458
loop_
_geom_bond_atom_site_label_1
_geom_bond_atom_site_label_2
_geom_bond_distance
_geom_bond_site_symmetry_2
_ccdc_geom_bond_type
Be1     Be7    10.0   .     S
Be1     Ce96    10.0   .     S
Be1     Be14    10.0   1_565     S
Be1     Er217    10.0   1_565     S
Be2     Be5    10.0   .     S
Be2     Ce174    10.0   .     S
Be2     Be15    10.0   1_655     S
Be2     Er37    10.0   1_655     S
Be3     Be6    10.0   .     S
Be3     Ce124    10.0   .     S
Be3     Be13    10.0   1_556     S
Be3     Er63    10.0   1_556     S
Be4     Be23    10.0   .     S
Be4     Ce228    10.0   .     S
Be4     Be22    10.0   .     S
Be4     Er91    10.0   .     S
Be5     Be10    10.0   1_556     S
Be5     Ce150    10.0   .     S
Be5     Er167    10.0   .     S
Be6     Be8    10.0   1_565     S
Be6     Ce146    10.0   .     S
Be6     Er117    10.0   .     S
Be7     Be9    10.0   1_655     S
Be7     Ce148    10.0   .     S
Be7     Er89    10.0   .     S
Be8     Be6    10.0   1_545     S
Be8     Be18    10.0   1_556     S
Be8     Ce176    10.0   .     S
Be8     Er139    10.0   1_545     S
Be9     Be7    10.0   1_455     S
Be9     Be16    10.0   1_565     S
Be9     Ce126    10.0   .     S
Be9     Er141    10.0   1_455     S
Be10     Be5    10.0   1_554     S
Be10     Be17    10.0   1_655     S
Be10     Ce98    10.0   .     S
Be10     Er143    10.0   1_554     S
Be11     Be19    10.0   .     S
Be11     Ce46    10.0   .     S
Be11     Be23    10.0   .     S
Be11     Er169    10.0   .     S
Be12     Be22    10.0   .     S
Be12     Ce72    10.0   .     S
Be12     Be19    10.0   .     S
Be12     Er119    10.0   .     S
Be13     Be3    10.0   1_554     S
Be13     Ce68    10.0   .     S
Be13     Be21    10.0   1_565     S
Be13     Er191    10.0   1_565     S
Be14     Be1    10.0   1_545     S
Be14     Ce224    10.0   .     S
Be14     Be24    10.0   1_655     S
Be14     Er193    10.0   1_655     S
Be15     Be2    10.0   1_455     S
Be15     Ce42    10.0   .     S
Be15     Be20    10.0   1_556     S
Be15     Er195    10.0   1_556     S
Be16     Be9    10.0   1_545     S
Be16     Be24    10.0   .     S
Be16     Ce44    10.0   .     S
Be16     Er115    10.0   1_545     S
Be17     Be10    10.0   1_455     S
Be17     Be20    10.0   .     S
Be17     Ce70    10.0   .     S
Be17     Er87    10.0   1_455     S
Be18     Be8    10.0   1_554     S
Be18     Be21    10.0   .     S
Be18     Ce226    10.0   .     S
Be18     Er165    10.0   1_554     S
Be19     Ce122    10.0   .     S
Be19     Er35    10.0   .     S
Be20     Be15    10.0   1_554     S
Be20     Ce202    10.0   .     S
Be20     Er65    10.0   .     S
Be21     Be13    10.0   1_545     S
Be21     Ce198    10.0   .     S
Be21     Er221    10.0   .     S
Be22     Ce94    10.0   .     S
Be22     Er61    10.0   .     S
Be23     Ce172    10.0   .     S
Be23     Er219    10.0   .     S
Be24     Be14    10.0   1_455     S
Be24     Ce200    10.0   .     S
Be24     Er39    10.0   .     S
B25     He26    10.0   .     S
B25     Ce198    10.0   .     S
B25     S34    10.0   1_554     S
B25     Er165    10.0   1_554     S
He26     He206    10.0   .     S
He26     He106    10.0   1_554     S
He26     S189    10.0   .     S
B27     He28    10.0   .     S
B27     Ce124    10.0   .     S
B27     S32    10.0   1_565     S
B27     Er191    10.0   1_566     S
He28     He104    10.0   1_556     S
He28     S113    10.0   .     S
He28     He156    10.0   1_565     S
H29     Er195    10.0   1_556     S
H29     S32    10.0   .     S
H29     C41    10.0   .     S
H29     Li192    10.0   1_556     S
H30     Er115    10.0   1_545     S
H30     S33    10.0   .     S
H30     C43    10.0   .     S
H30     Li118    10.0   1_545     S
H31     Er169    10.0   .     S
H31     S34    10.0   .     S
H31     C45    10.0   .     S
H31     Li166    10.0   .     S
S32     B27    10.0   1_545     S
S32     C43    10.0   .     S
S32     He156    10.0   .     S
S33     C45    10.0   .     S
S33     He182    10.0   .     S
S33     B49    10.0   .     S
S34     C41    10.0   .     S
S34     He106    10.0   .     S
S34     B25    10.0   1_556     S
Er35     B183    10.0   .     S
Er35     Li36    10.0   .     S
Er35     H111    10.0   .     S
Li36     Ti48    10.0   .     S
Li36     Ce46    10.0   .     S
Li36     H187    10.0   .     S
Er37     Be2    10.0   1_455     S
Er37     B107    10.0   1_455     S
Er37     Li38    10.0   .     S
Er37     H159    10.0   1_455     S
Li38     Ti48    10.0   .     S
Li38     Ce42    10.0   .     S
Li38     H111    10.0   .     S
Er39     B179    10.0   1_455     S
Er39     Li40    10.0   .     S
Er39     H187    10.0   .     S
Li40     Ti48    10.0   .     S
Li40     Ce44    10.0   .     S
Li40     H159    10.0   1_455     S
C41     Ce42    10.0   .     S
C41     V47    10.0   .     S
Ce42     B105    10.0   .     S
C43     Ce44    10.0   .     S
C43     V47    10.0   .     S
Ce44     B155    10.0   .     S
C45     Ce46    10.0   .     S
C45     V47    10.0   .     S
Ce46     B181    10.0   .     S
V47     Ti48    10.0   .     S
B49     He50    10.0   .     S
B49     Ce176    10.0   .     S
B49     Er117    10.0   1_545     S
He50     He158    10.0   1_545     S
He50     S164    10.0   .     S
He50     He182    10.0   .     S
B51     He52    10.0   .     S
B51     Ce200    10.0   .     S
B51     S60    10.0   1_545     S
B51     Er115    10.0   1_545     S
He52     He182    10.0   .     S
He52     He102    10.0   1_545     S
He52     S190    10.0   .     S
B53     He54    10.0   .     S
B53     Ce96    10.0   .     S
B53     S58    10.0   1_655     S
B53     Er193    10.0   1_665     S
He54     He78    10.0   1_565     S
He54     S85    10.0   .     S
He54     He104    10.0   1_655     S
H55     Er191    10.0   1_565     S
H55     S58    10.0   .     S
H55     C67    10.0   .     S
H55     Li194    10.0   1_565     S
H56     Er87    10.0   1_455     S
H56     S59    10.0   .     S
H56     C69    10.0   .     S
H56     Li90    10.0   1_455     S
H57     Er119    10.0   .     S
H57     S60    10.0   .     S
H57     C71    10.0   .     S
H57     Li116    10.0   .     S
S58     B53    10.0   1_455     S
S58     C69    10.0   .     S
S58     He104    10.0   .     S
S59     C71    10.0   .     S
S59     He184    10.0   .     S
S59     B75    10.0   .     S
S60     C67    10.0   .     S
S60     He102    10.0   .     S
S60     B51    10.0   1_565     S
Er61     B205    10.0   .     S
Er61     Li62    10.0   .     S
Er61     H83    10.0   .     S
Li62     Ti74    10.0   .     S
Li62     Ce72    10.0   .     S
Li62     H185    10.0   .     S
Er63     Be3    10.0   1_554     S
Er63     B79    10.0   1_554     S
Er63     Li64    10.0   .     S
Er63     H109    10.0   1_554     S
Li64     Ti74    10.0   .     S
Li64     Ce68    10.0   .     S
Li64     H83    10.0   .     S
Er65     B105    10.0   1_554     S
Er65     Li66    10.0   .     S
Er65     H185    10.0   .     S
Li66     Ti74    10.0   .     S
Li66     Ce70    10.0   .     S
Li66     H109    10.0   1_554     S
C67     Ce68    10.0   .     S
C67     V73    10.0   .     S
Ce68     B101    10.0   .     S
C69     Ce70    10.0   .     S
C69     V73    10.0   .     S
Ce70     B103    10.0   .     S
C71     Ce72    10.0   .     S
C71     V73    10.0   .     S
Ce72     B183    10.0   .     S
V73     Ti74    10.0   .     S
B75     He76    10.0   .     S
B75     Ce126    10.0   .     S
B75     Er89    10.0   1_455     S
He76     He108    10.0   1_455     S
He76     S114    10.0   .     S
He76     He184    10.0   .     S
B77     He78    10.0   .     S
B77     Ce226    10.0   .     S
B77     S85    10.0   1_545     S
B77     Er139    10.0   1_544     S
He78     He54    10.0   1_545     S
He78     He210    10.0   1_554     S
He78     S214    10.0   .     S
B79     Er63    10.0   1_556     S
B79     He80    10.0   .     S
B79     Ce146    10.0   .     S
B79     S86    10.0   1_556     S
He80     He130    10.0   .     S
He80     S136    10.0   .     S
He80     He232    10.0   1_556     S
H81     Er217    10.0   1_565     S
H81     S84    10.0   .     S
H81     C95    10.0   .     S
H81     Li222    10.0   1_565     S
H82     Er143    10.0   1_554     S
H82     S85    10.0   .     S
H82     C97    10.0   .     S
H82     Li140    10.0   1_554     S
H83     S86    10.0   .     S
H83     C93    10.0   .     S
S84     C93    10.0   .     S
S84     He132    10.0   .     S
S84     B101    10.0   .     S
S85     C95    10.0   .     S
S85     B77    10.0   1_565     S
S86     B79    10.0   1_554     S
S86     C97    10.0   .     S
S86     He232    10.0   .     S
Er87     H56    10.0   1_655     S
Er87     Be17    10.0   1_655     S
Er87     B207    10.0   1_655     S
Er87     Li88    10.0   .     S
Li88     Ti100    10.0   .     S
Li88     Ce98    10.0   .     S
Li88     H213    10.0   .     S
Er89     B75    10.0   1_655     S
Er89     Li90    10.0   .     S
Er89     H135    10.0   .     S
Li90     Ti100    10.0   .     S
Li90     Ce96    10.0   .     S
Li90     H56    10.0   1_655     S
Er91     B153    10.0   .     S
Er91     Li92    10.0   .     S
Er91     H213    10.0   .     S
Li92     Ti100    10.0   .     S
Li92     Ce94    10.0   .     S
Li92     H135    10.0   .     S
C93     Ce94    10.0   .     S
C93     V99    10.0   .     S
Ce94     B131    10.0   .     S
C95     Ce96    10.0   .     S
C95     V99    10.0   .     S
C97     Ce98    10.0   .     S
C97     V99    10.0   .     S
Ce98     B231    10.0   .     S
V99     Ti100    10.0   .     S
B101     He102    10.0   .     S
B101     Er221    10.0   1_565     S
He102     He52    10.0   1_565     S
He102     He132    10.0   .     S
B103     He104    10.0   .     S
B103     S113    10.0   1_554     S
B103     Er143    10.0   1_454     S
He104     He28    10.0   1_554     S
He104     He54    10.0   1_455     S
B105     Er65    10.0   1_556     S
B105     He106    10.0   .     S
B105     S112    10.0   .     S
He106     He26    10.0   1_556     S
He106     He130    10.0   .     S
B107     Er37    10.0   1_655     S
B107     He108    10.0   .     S
B107     Ce150    10.0   .     S
B107     S114    10.0   1_655     S
He108     He76    10.0   1_655     S
He108     He154    10.0   .     S
He108     S138    10.0   .     S
H109     Li66    10.0   1_556     S
H109     Er63    10.0   1_556     S
H109     S112    10.0   .     S
H109     C123    10.0   .     S
H110     Er141    10.0   1_455     S
H110     S113    10.0   .     S
H110     C125    10.0   .     S
H110     Li144    10.0   1_455     S
H111     S114    10.0   .     S
H111     C121    10.0   .     S
S112     C121    10.0   .     S
S112     He130    10.0   .     S
S113     C123    10.0   .     S
S113     B103    10.0   1_556     S
S114     B107    10.0   1_455     S
S114     C125    10.0   .     S
Er115     H30    10.0   1_565     S
Er115     Be16    10.0   1_565     S
Er115     B51    10.0   1_565     S
Er115     Li116    10.0   .     S
Li116     Ti128    10.0   .     S
Li116     Ce126    10.0   .     S
Er117     B49    10.0   1_565     S
Er117     Li118    10.0   .     S
Er117     H134    10.0   .     S
Li118     Ti128    10.0   .     S
Li118     Ce124    10.0   .     S
Li118     H30    10.0   1_565     S
Er119     B131    10.0   .     S
Er119     Li120    10.0   .     S
Li120     Ti128    10.0   .     S
Li120     Ce122    10.0   .     S
Li120     H134    10.0   .     S
C121     Ce122    10.0   .     S
C121     V127    10.0   .     S
Ce122     B129    10.0   .     S
C123     Ce124    10.0   .     S
C123     V127    10.0   .     S
C125     Ce126    10.0   .     S
C125     V127    10.0   .     S
V127     Ti128    10.0   .     S
B129     He130    10.0   .     S
B129     S136    10.0   .     S
B129     Er169    10.0   .     S
B131     He132    10.0   .     S
B131     S137    10.0   .     S
He132     He158    10.0   .     S
H133     Er167    10.0   .     S
H133     S136    10.0   .     S
H133     C149    10.0   .     S
H133     Li170    10.0   .     S
H134     S137    10.0   .     S
H134     C145    10.0   .     S
H135     S138    10.0   .     S
H135     C147    10.0   .     S
S136     C145    10.0   .     S
S137     C147    10.0   .     S
S137     He158    10.0   .     S
S138     C149    10.0   .     S
S138     B153    10.0   .     S
Er139     Be8    10.0   1_565     S
Er139     B77    10.0   1_566     S
Er139     Li140    10.0   .     S
Er139     H160    10.0   1_565     S
Li140     Ti152    10.0   .     S
Li140     Ce146    10.0   .     S
Li140     H82    10.0   1_556     S
Er141     H110    10.0   1_655     S
Er141     Be9    10.0   1_655     S
Er141     B155    10.0   1_665     S
Er141     Li142    10.0   .     S
Li142     Ti152    10.0   .     S
Li142     Ce148    10.0   .     S
Li142     H160    10.0   1_565     S
Er143     H82    10.0   1_556     S
Er143     Be10    10.0   1_556     S
Er143     B103    10.0   1_656     S
Er143     Li144    10.0   .     S
Li144     Ti152    10.0   .     S
Li144     Ce150    10.0   .     S
Li144     H110    10.0   1_655     S
C145     Ce146    10.0   .     S
C145     V151    10.0   .     S
C147     Ce148    10.0   .     S
C147     V151    10.0   .     S
Ce148     B157    10.0   .     S
C149     Ce150    10.0   .     S
C149     V151    10.0   .     S
V151     Ti152    10.0   .     S
B153     He154    10.0   .     S
B153     Ce172    10.0   .     S
He154     He180    10.0   .     S
He154     S162    10.0   .     S
B155     Er141    10.0   1_445     S
B155     He156    10.0   .     S
B155     S163    10.0   1_455     S
He156     He28    10.0   1_545     S
He156     He210    10.0   1_455     S
B157     He158    10.0   .     S
B157     S164    10.0   1_565     S
B157     Er217    10.0   1_565     S
He158     He50    10.0   1_565     S
H159     Li40    10.0   1_655     S
H159     Er37    10.0   1_655     S
H159     S162    10.0   .     S
H159     C173    10.0   .     S
H160     Li142    10.0   1_545     S
H160     Er139    10.0   1_545     S
H160     S163    10.0   .     S
H160     C175    10.0   .     S
H161     Er219    10.0   .     S
H161     S164    10.0   .     S
H161     C171    10.0   .     S
H161     Li218    10.0   .     S
S162     C171    10.0   .     S
S162     B179    10.0   .     S
S163     C173    10.0   .     S
S163     He210    10.0   .     S
S163     B155    10.0   1_655     S
S164     B157    10.0   1_545     S
S164     C175    10.0   .     S
Er165     Be18    10.0   1_556     S
Er165     B25    10.0   1_556     S
Er165     Li166    10.0   .     S
Er165     H212    10.0   1_556     S
Li166     Ti178    10.0   .     S
Li166     Ce176    10.0   .     S
Er167     B231    10.0   1_556     S
Er167     Li168    10.0   .     S
Li168     Ti178    10.0   .     S
Li168     Ce174    10.0   .     S
Li168     H212    10.0   1_556     S
Er169     Li170    10.0   .     S
Li170     Ti178    10.0   .     S
Li170     Ce172    10.0   .     S
C171     Ce172    10.0   .     S
C171     V177    10.0   .     S
C173     Ce174    10.0   .     S
C173     V177    10.0   .     S
Ce174     B209    10.0   .     S
C175     Ce176    10.0   .     S
C175     V177    10.0   .     S
V177     Ti178    10.0   .     S
B179     Er39    10.0   1_655     S
B179     He180    10.0   .     S
B179     Ce224    10.0   .     S
He180     He208    10.0   1_655     S
He180     S216    10.0   .     S
B181     He182    10.0   .     S
B181     S190    10.0   .     S
B181     Er219    10.0   .     S
B183     He184    10.0   .     S
B183     S188    10.0   .     S
He184     He208    10.0   .     S
H185     S189    10.0   .     S
H185     C201    10.0   .     S
H186     Er221    10.0   .     S
H186     S190    10.0   .     S
H186     C197    10.0   .     S
H186     Li220    10.0   .     S
H187     S188    10.0   .     S
H187     C199    10.0   .     S
S188     C201    10.0   .     S
S188     He208    10.0   .     S
S189     C197    10.0   .     S
S189     B205    10.0   .     S
S190     C199    10.0   .     S
Er191     H55    10.0   1_545     S
Er191     Be13    10.0   1_545     S
Er191     B27    10.0   1_544     S
Er191     Li192    10.0   .     S
Li192     Ti204    10.0   .     S
Li192     Ce198    10.0   .     S
Li192     H29    10.0   1_554     S
Er193     Be14    10.0   1_455     S
Er193     B53    10.0   1_445     S
Er193     Li194    10.0   .     S
Er193     H211    10.0   1_455     S
Li194     Ti204    10.0   .     S
Li194     Ce200    10.0   .     S
Li194     H55    10.0   1_545     S
Er195     H29    10.0   1_554     S
Er195     Be15    10.0   1_554     S
Er195     B209    10.0   1_454     S
Er195     Li196    10.0   .     S
Li196     Ti204    10.0   .     S
Li196     Ce202    10.0   .     S
Li196     H211    10.0   1_455     S
C197     Ce198    10.0   .     S
C197     V203    10.0   .     S
C199     Ce200    10.0   .     S
C199     V203    10.0   .     S
C201     Ce202    10.0   .     S
C201     V203    10.0   .     S
Ce202     B207    10.0   .     S
V203     Ti204    10.0   .     S
B205     He206    10.0   .     S
B205     Ce228    10.0   .     S
He206     He232    10.0   .     S
He206     S215    10.0   .     S
B207     Er87    10.0   1_455     S
B207     He208    10.0   .     S
B207     S216    10.0   1_455     S
He208     He180    10.0   1_455     S
B209     Er195    10.0   1_656     S
B209     He210    10.0   .     S
B209     S214    10.0   1_556     S
He210     He78    10.0   1_556     S
He210     He156    10.0   1_655     S
H211     Li196    10.0   1_655     S
H211     Er193    10.0   1_655     S
H211     S214    10.0   .     S
H211     C223    10.0   .     S
H212     Li168    10.0   1_554     S
H212     Er165    10.0   1_554     S
H212     S215    10.0   .     S
H212     C225    10.0   .     S
H213     S216    10.0   .     S
H213     C227    10.0   .     S
S214     B209    10.0   1_554     S
S214     C225    10.0   .     S
S215     C227    10.0   .     S
S215     B231    10.0   .     S
S216     C223    10.0   .     S
S216     B207    10.0   1_655     S
Er217     H81    10.0   1_545     S
Er217     Be1    10.0   1_545     S
Er217     B157    10.0   1_545     S
Er217     Li218    10.0   .     S
Li218     Ti230    10.0   .     S
Li218     Ce224    10.0   .     S
Er219     Li220    10.0   .     S
Li220     Ti230    10.0   .     S
Li220     Ce228    10.0   .     S
Er221     B101    10.0   1_545     S
Er221     Li222    10.0   .     S
Li222     Ti230    10.0   .     S
Li222     Ce226    10.0   .     S
Li222     H81    10.0   1_545     S
C223     Ce224    10.0   .     S
C223     V229    10.0   .     S
C225     Ce226    10.0   .     S
C225     V229    10.0   .     S
C227     Ce228    10.0   .     S
C227     V229    10.0   .     S
V229     Ti230    10.0   .     S
B231     Er167    10.0   1_554     S
B231     He232    10.0   .     S
He232     He80    10.0   1_554     S
