data_njua
_audit_creation_date              2020-02-04
_audit_creation_method            'Pymatgen'
_symmetry_space_group_name_H-M    'P1'
_symmetry_Int_Tables_number       1
loop_
_symmetry_equiv_pos_as_xyz
  x,y,z
_cell_length_a                    112.4214
_cell_length_b                    112.4214
_cell_length_c                    112.4214
_cell_angle_alpha                 90.0
_cell_angle_beta                 90.0
_cell_angle_gamma                 90.0
loop_
_atom_site_label
_atom_site_type_symbol
_atom_site_fract_x
_atom_site_fract_y
_atom_site_fract_z
Ce1     Ce     0.0   0.4555   0.7186
Ce2     Ce     0.0   0.5445   0.7186
Ce3     Ce     0.9555   0.5   0.7814
Ce4     Ce     0.0445   0.5   0.7814
Ce5     Ce     0.4555   0.0   0.7186
Ce6     Ce     0.5445   0.0   0.7186
Ce7     Ce     0.5   0.0445   0.7814
Ce8     Ce     0.5   0.9555   0.7814
Ce9     Ce     0.0   0.7186   0.4555
Ce10     Ce     0.0   0.7186   0.5445
Ce11     Ce     0.0445   0.7814   0.5
Ce12     Ce     0.9555   0.7814   0.5
Ce13     Ce     0.7186   0.0   0.4555
Ce14     Ce     0.7186   0.0   0.5445
Ce15     Ce     0.7814   0.9555   0.5
Ce16     Ce     0.7814   0.0445   0.5
Ce17     Ce     0.2186   0.0445   0.5
Ce18     Ce     0.2814   0.0   0.5445
Ce19     Ce     0.2814   0.0   0.4555
Ce20     Ce     0.2186   0.9555   0.5
V21     V     0.9556   0.0444   0.5
Er22     Er     0.8929   0.1071   0.5
V23     V     0.9556   0.9556   0.5
Er24     Er     0.8929   0.8929   0.5
V25     V     0.0444   0.0444   0.5
Er26     Er     0.1071   0.1071   0.5
V27     V     0.0444   0.9556   0.5
Er28     Er     0.1071   0.8929   0.5
Ti29     Ti     0.807   0.8701   0.5
Ti30     Ti     0.1299   0.807   0.5
Ti31     Ti     0.807   0.1299   0.5
Ti32     Ti     0.8701   0.807   0.5
Ti33     Ti     0.1299   0.193   0.5
Ti34     Ti     0.193   0.1299   0.5
Ti35     Ti     0.8701   0.193   0.5
Ti36     Ti     0.193   0.8701   0.5
Ce37     Ce     0.0   0.2814   0.4555
Ce38     Ce     0.0445   0.2186   0.5
Ce39     Ce     0.0   0.2814   0.5445
Ce40     Ce     0.9555   0.2186   0.5
Ce41     Ce     0.7186   0.4555   0.0
Ce42     Ce     0.7186   0.5445   0.0
Ce43     Ce     0.7814   0.5   0.9555
Ce44     Ce     0.7814   0.5   0.0445
V45     V     0.5444   0.0   0.5444
Er46     Er     0.6071   0.0   0.6071
V47     V     0.5444   0.0   0.4556
Er48     Er     0.6071   0.0   0.3929
V49     V     0.4556   0.0   0.4556
Er50     Er     0.3929   0.0   0.3929
V51     V     0.4556   0.0   0.5444
Er52     Er     0.3929   0.0   0.6071
Ti53     Ti     0.693   0.0   0.3701
Ti54     Ti     0.3701   0.0   0.693
Ti55     Ti     0.693   0.0   0.6299
Ti56     Ti     0.6299   0.0   0.693
Ti57     Ti     0.3701   0.0   0.307
Ti58     Ti     0.307   0.0   0.3701
Ti59     Ti     0.307   0.0   0.6299
Ti60     Ti     0.6299   0.0   0.307
Ce61     Ce     0.5   0.0445   0.2186
Ce62     Ce     0.4555   0.0   0.2814
Ce63     Ce     0.5445   0.0   0.2814
Ce64     Ce     0.5   0.9555   0.2186
V65     V     0.5   0.9556   0.0444
Er66     Er     0.5   0.8929   0.1071
V67     V     0.5   0.9556   0.9556
Er68     Er     0.5   0.8929   0.8929
V69     V     0.5   0.0444   0.0444
Er70     Er     0.5   0.1071   0.1071
V71     V     0.5   0.0444   0.9556
Er72     Er     0.5   0.1071   0.8929
Ti73     Ti     0.5   0.807   0.8701
Ti74     Ti     0.5   0.807   0.1299
Ti75     Ti     0.5   0.1299   0.807
Ti76     Ti     0.5   0.8701   0.807
Ti77     Ti     0.5   0.193   0.1299
Ti78     Ti     0.5   0.193   0.8701
Ti79     Ti     0.5   0.8701   0.193
Ti80     Ti     0.5   0.1299   0.193
Ce81     Ce     0.4555   0.2814   0.0
Ce82     Ce     0.5   0.2186   0.9555
Ce83     Ce     0.5445   0.2814   0.0
Ce84     Ce     0.5   0.2186   0.0445
Ce85     Ce     0.4555   0.7186   0.0
Ce86     Ce     0.5445   0.7186   0.0
Ce87     Ce     0.5   0.7814   0.9555
Ce88     Ce     0.5   0.7814   0.0445
V89     V     0.0   0.5444   0.4556
Er90     Er     0.0   0.6071   0.3929
V91     V     0.0   0.5444   0.5444
Er92     Er     0.0   0.6071   0.6071
V93     V     0.0   0.4556   0.4556
Er94     Er     0.0   0.3929   0.3929
V95     V     0.0   0.4556   0.5444
Er96     Er     0.0   0.3929   0.6071
Ti97     Ti     0.0   0.693   0.3701
Ti98     Ti     0.0   0.3701   0.693
Ti99     Ti     0.0   0.693   0.6299
Ti100     Ti     0.0   0.6299   0.693
Ti101     Ti     0.0   0.3701   0.307
Ti102     Ti     0.0   0.307   0.3701
Ti103     Ti     0.0   0.307   0.6299
Ti104     Ti     0.0   0.6299   0.307
V105     V     0.5444   0.5444   0.0
Er106     Er     0.6071   0.6071   0.0
V107     V     0.5444   0.4556   0.0
Er108     Er     0.6071   0.3929   0.0
V109     V     0.4556   0.4556   0.0
Er110     Er     0.3929   0.3929   0.0
V111     V     0.4556   0.5444   0.0
Er112     Er     0.3929   0.6071   0.0
Ti113     Ti     0.3701   0.693   0.0
Ti114     Ti     0.693   0.3701   0.0
Ti115     Ti     0.693   0.6299   0.0
Ti116     Ti     0.6299   0.693   0.0
Ti117     Ti     0.307   0.3701   0.0
Ti118     Ti     0.3701   0.307   0.0
Ti119     Ti     0.6299   0.307   0.0
Ti120     Ti     0.307   0.6299   0.0
Ce121     Ce     0.0445   0.5   0.2186
Ce122     Ce     0.0   0.5445   0.2814
Ce123     Ce     0.0   0.4555   0.2814
Ce124     Ce     0.9555   0.5   0.2186
V125     V     0.9556   0.5   0.0444
Er126     Er     0.8929   0.5   0.1071
V127     V     0.9556   0.5   0.9556
Er128     Er     0.8929   0.5   0.8929
V129     V     0.0444   0.5   0.0444
Er130     Er     0.1071   0.5   0.1071
V131     V     0.0444   0.5   0.9556
Er132     Er     0.1071   0.5   0.8929
Ti133     Ti     0.807   0.5   0.8701
Ti134     Ti     0.807   0.5   0.1299
Ti135     Ti     0.8701   0.5   0.807
Ti136     Ti     0.1299   0.5   0.807
Ti137     Ti     0.193   0.5   0.1299
Ti138     Ti     0.193   0.5   0.8701
Ti139     Ti     0.8701   0.5   0.193
Ti140     Ti     0.1299   0.5   0.193
Ce141     Ce     0.2814   0.4555   0.0
Ce142     Ce     0.2186   0.5   0.0445
Ce143     Ce     0.2814   0.5445   0.0
Ce144     Ce     0.2186   0.5   0.9555
loop_
_geom_bond_atom_site_label_1
_geom_bond_atom_site_label_2
_geom_bond_distance
_geom_bond_site_symmetry_2
_ccdc_geom_bond_type
Ce1     Ce4    10.001   .     S
Ce1     Ce2    10.014   .     S
Ce1     Ce3    10.001   1_455     S
Ce1     Ti98    10.02   .     S
Ce2     Ce3    10.001   1_455     S
Ce2     Ce4    10.001   .     S
Ce2     Ti100    10.02   .     S
Ce3     Ce2    10.001   1_655     S
Ce3     Ce1    10.001   1_655     S
Ce3     Ce4    10.014   1_655     S
Ce3     Ti135    10.02   .     S
Ce4     Ce3    10.014   1_455     S
Ce4     Ti136    10.02   .     S
Ce5     Ce8    10.001   1_545     S
Ce5     Ce6    10.014   .     S
Ce5     Ce7    10.001   .     S
Ce5     Ti54    10.02   .     S
Ce6     Ce7    10.001   .     S
Ce6     Ce8    10.001   1_545     S
Ce6     Ti56    10.02   .     S
Ce7     Ce8    10.014   1_545     S
Ce7     Ti75    10.02   .     S
Ce8     Ce5    10.001   1_565     S
Ce8     Ce6    10.001   1_565     S
Ce8     Ce7    10.014   1_565     S
Ce8     Ti76    10.02   .     S
Ce9     Ce12    10.001   1_455     S
Ce9     Ce10    10.014   .     S
Ce9     Ce11    10.001   .     S
Ce9     Ti97    10.02   .     S
Ce10     Ce11    10.001   .     S
Ce10     Ce12    10.001   1_455     S
Ce10     Ti99    10.02   .     S
Ce11     Ce12    10.014   1_455     S
Ce11     Ti30    10.02   .     S
Ce12     Ce9    10.001   1_655     S
Ce12     Ce10    10.001   1_655     S
Ce12     Ce11    10.014   1_655     S
Ce12     Ti32    10.02   .     S
Ce13     Ce16    10.001   .     S
Ce13     Ce14    10.014   .     S
Ce13     Ce15    10.001   1_545     S
Ce13     Ti53    10.02   .     S
Ce14     Ce15    10.001   1_545     S
Ce14     Ce16    10.001   .     S
Ce14     Ti55    10.02   .     S
Ce15     Ce14    10.001   1_565     S
Ce15     Ce13    10.001   1_565     S
Ce15     Ce16    10.014   1_565     S
Ce15     Ti29    10.02   .     S
Ce16     Ce15    10.014   1_545     S
Ce16     Ti31    10.02   .     S
Ce17     Ce18    10.001   .     S
Ce17     Ce20    10.014   1_545     S
Ce17     Ce19    10.001   .     S
Ce17     Ti34    10.02   .     S
Ce18     Ce19    10.014   .     S
Ce18     Ce20    10.001   1_545     S
Ce18     Ti59    10.02   .     S
Ce19     Ce20    10.001   1_545     S
Ce19     Ti58    10.02   .     S
Ce20     Ce17    10.014   1_565     S
Ce20     Ce19    10.001   1_565     S
Ce20     Ce18    10.001   1_565     S
Ce20     Ti36    10.02   .     S
V21     Er22    9.973   .     S
V21     V23    9.981   1_545     S
V21     V25    9.981   1_655     S
Er22     Ti31    9.983   .     S
Er22     Ti35    9.983   .     S
V23     V21    9.981   1_565     S
V23     Er24    9.973   .     S
V23     V27    9.981   1_655     S
Er24     Ti29    9.983   .     S
Er24     Ti32    9.983   .     S
V25     Er26    9.973   .     S
V25     V27    9.981   1_545     S
V25     V21    9.981   1_455     S
Er26     Ti33    9.983   .     S
Er26     Ti34    9.983   .     S
V27     V25    9.981   1_565     S
V27     Er28    9.973   .     S
V27     V23    9.981   1_455     S
Er28     Ti36    9.983   .     S
Er28     Ti30    9.983   .     S
Ti29     Ti32    10.024   .     S
Ti30     Ti36    10.024   .     S
Ti31     Ti35    10.024   .     S
Ti33     Ti34    10.024   .     S
Ti33     Ce38    10.02   .     S
Ti35     Ce40    10.02   .     S
Ce37     Ce38    10.001   .     S
Ce37     Ce39    10.014   .     S
Ce37     Ce40    10.001   1_455     S
Ce37     Ti102    10.02   .     S
Ce38     Ce40    10.014   1_455     S
Ce38     Ce39    10.001   .     S
Ce39     Ce40    10.001   1_455     S
Ce39     Ti103    10.02   .     S
Ce40     Ce38    10.014   1_655     S
Ce40     Ce39    10.001   1_655     S
Ce40     Ce37    10.001   1_655     S
Ce41     Ce43    10.001   1_554     S
Ce41     Ce42    10.014   .     S
Ce41     Ce44    10.001   .     S
Ce41     Ti114    10.02   .     S
Ce42     Ce44    10.001   .     S
Ce42     Ce43    10.001   1_554     S
Ce42     Ti115    10.02   .     S
Ce43     Ce41    10.001   1_556     S
Ce43     Ce42    10.001   1_556     S
Ce43     Ce44    10.014   1_556     S
Ce43     Ti133    10.02   .     S
Ce44     Ce43    10.014   1_554     S
Ce44     Ti134    10.02   .     S
V45     Er46    9.973   .     S
V45     V47    9.981   .     S
V45     V51    9.981   .     S
Er46     Ti55    9.983   .     S
Er46     Ti56    9.983   .     S
V47     Er48    9.973   .     S
V47     V49    9.981   .     S
Er48     Ti53    9.983   .     S
Er48     Ti60    9.983   .     S
V49     Er50    9.973   .     S
V49     V51    9.981   .     S
Er50     Ti57    9.983   .     S
Er50     Ti58    9.983   .     S
V51     Er52    9.973   .     S
Er52     Ti54    9.983   .     S
Er52     Ti59    9.983   .     S
Ti53     Ti60    10.024   .     S
Ti54     Ti59    10.024   .     S
Ti55     Ti56    10.024   .     S
Ti57     Ti58    10.024   .     S
Ti57     Ce62    10.02   .     S
Ti60     Ce63    10.02   .     S
Ce61     Ce62    10.001   .     S
Ce61     Ce64    10.014   1_545     S
Ce61     Ce63    10.001   .     S
Ce61     Ti80    10.02   .     S
Ce62     Ce63    10.014   .     S
Ce62     Ce64    10.001   1_545     S
Ce63     Ce64    10.001   1_545     S
Ce64     Ce61    10.014   1_565     S
Ce64     Ce63    10.001   1_565     S
Ce64     Ce62    10.001   1_565     S
Ce64     Ti79    10.02   .     S
V65     Er66    9.973   .     S
V65     V67    9.981   1_554     S
V65     V69    9.981   1_565     S
Er66     Ti79    9.983   .     S
Er66     Ti74    9.983   .     S
V67     V65    9.981   1_556     S
V67     Er68    9.973   .     S
V67     V71    9.981   1_565     S
Er68     Ti73    9.983   .     S
Er68     Ti76    9.983   .     S
V69     Er70    9.973   .     S
V69     V71    9.981   1_554     S
V69     V65    9.981   1_545     S
Er70     Ti77    9.983   .     S
Er70     Ti80    9.983   .     S
V71     V69    9.981   1_556     S
V71     Er72    9.973   .     S
V71     V67    9.981   1_545     S
Er72     Ti75    9.983   .     S
Er72     Ti78    9.983   .     S
Ti73     Ti76    10.024   .     S
Ti73     Ce87    10.02   .     S
Ti74     Ti79    10.024   .     S
Ti74     Ce88    10.02   .     S
Ti75     Ti78    10.024   .     S
Ti77     Ti80    10.024   .     S
Ti77     Ce84    10.02   .     S
Ti78     Ce82    10.02   .     S
Ce81     Ce82    10.001   1_554     S
Ce81     Ce83    10.014   .     S
Ce81     Ce84    10.001   .     S
Ce81     Ti118    10.02   .     S
Ce82     Ce81    10.001   1_556     S
Ce82     Ce84    10.014   1_556     S
Ce82     Ce83    10.001   1_556     S
Ce83     Ce84    10.001   .     S
Ce83     Ce82    10.001   1_554     S
Ce83     Ti119    10.02   .     S
Ce84     Ce82    10.014   1_554     S
Ce85     Ce88    10.001   .     S
Ce85     Ce86    10.014   .     S
Ce85     Ce87    10.001   1_554     S
Ce85     Ti113    10.02   .     S
Ce86     Ce87    10.001   1_554     S
Ce86     Ce88    10.001   .     S
Ce86     Ti116    10.02   .     S
Ce87     Ce86    10.001   1_556     S
Ce87     Ce85    10.001   1_556     S
Ce87     Ce88    10.014   1_556     S
Ce88     Ce87    10.014   1_554     S
V89     Er90    9.973   .     S
V89     V93    9.981   .     S
V89     V91    9.981   .     S
Er90     Ti97    9.983   .     S
Er90     Ti104    9.983   .     S
V91     Er92    9.973   .     S
V91     V95    9.981   .     S
Er92     Ti99    9.983   .     S
Er92     Ti100    9.983   .     S
V93     Er94    9.973   .     S
V93     V95    9.981   .     S
Er94     Ti101    9.983   .     S
Er94     Ti102    9.983   .     S
V95     Er96    9.973   .     S
Er96     Ti98    9.983   .     S
Er96     Ti103    9.983   .     S
Ti97     Ti104    10.024   .     S
Ti98     Ti103    10.024   .     S
Ti99     Ti100    10.024   .     S
Ti101     Ti102    10.024   .     S
Ti101     Ce123    10.02   .     S
Ti104     Ce122    10.02   .     S
V105     Er106    9.973   .     S
V105     V107    9.981   .     S
V105     V111    9.981   .     S
Er106     Ti115    9.983   .     S
Er106     Ti116    9.983   .     S
V107     Er108    9.973   .     S
V107     V109    9.981   .     S
Er108     Ti114    9.983   .     S
Er108     Ti119    9.983   .     S
V109     Er110    9.973   .     S
V109     V111    9.981   .     S
Er110     Ti117    9.983   .     S
Er110     Ti118    9.983   .     S
V111     Er112    9.973   .     S
Er112     Ti113    9.983   .     S
Er112     Ti120    9.983   .     S
Ti113     Ti120    10.024   .     S
Ti114     Ti119    10.024   .     S
Ti115     Ti116    10.024   .     S
Ti117     Ti118    10.024   .     S
Ti117     Ce141    10.02   .     S
Ti120     Ce143    10.02   .     S
Ce121     Ce122    10.001   .     S
Ce121     Ce124    10.014   1_455     S
Ce121     Ce123    10.001   .     S
Ce121     Ti140    10.02   .     S
Ce122     Ce123    10.014   .     S
Ce122     Ce124    10.001   1_455     S
Ce123     Ce124    10.001   1_455     S
Ce124     Ce121    10.014   1_655     S
Ce124     Ce123    10.001   1_655     S
Ce124     Ce122    10.001   1_655     S
Ce124     Ti139    10.02   .     S
V125     Er126    9.973   .     S
V125     V127    9.981   1_554     S
V125     V129    9.981   1_655     S
Er126     Ti139    9.983   .     S
Er126     Ti134    9.983   .     S
V127     V125    9.981   1_556     S
V127     Er128    9.973   .     S
V127     V131    9.981   1_655     S
Er128     Ti133    9.983   .     S
Er128     Ti135    9.983   .     S
V129     Er130    9.973   .     S
V129     V131    9.981   1_554     S
V129     V125    9.981   1_455     S
Er130     Ti137    9.983   .     S
Er130     Ti140    9.983   .     S
V131     V129    9.981   1_556     S
V131     Er132    9.973   .     S
V131     V127    9.981   1_455     S
Er132     Ti136    9.983   .     S
Er132     Ti138    9.983   .     S
Ti133     Ti135    10.024   .     S
Ti134     Ti139    10.024   .     S
Ti136     Ti138    10.024   .     S
Ti137     Ti140    10.024   .     S
Ti137     Ce142    10.02   .     S
Ti138     Ce144    10.02   .     S
Ce141     Ce142    10.001   .     S
Ce141     Ce143    10.014   .     S
Ce141     Ce144    10.001   1_554     S
Ce142     Ce144    10.014   1_554     S
Ce142     Ce143    10.001   .     S
Ce143     Ce144    10.001   1_554     S
Ce144     Ce142    10.014   1_556     S
Ce144     Ce143    10.001   1_556     S
Ce144     Ce141    10.001   1_556     S
