data_nku
_audit_creation_date              2020-02-04
_audit_creation_method            'Pymatgen'
_symmetry_space_group_name_H-M    'P1'
_symmetry_Int_Tables_number       1
loop_
_symmetry_equiv_pos_as_xyz
  x,y,z
_cell_length_a                    42.7599
_cell_length_b                    42.7599
_cell_length_c                    42.7599
_cell_angle_alpha                 90.0
_cell_angle_beta                 90.0
_cell_angle_gamma                 90.0
loop_
_atom_site_label
_atom_site_type_symbol
_atom_site_fract_x
_atom_site_fract_y
_atom_site_fract_z
V1     V     0.9375   0.625   0.6875
Er2     Er     0.0   0.5   0.5
V3     V     0.9375   0.375   0.8125
Er4     Er     0.5   0.5   0.5
V5     V     0.625   0.6875   0.9375
V6     V     0.6875   0.9375   0.625
Er7     Er     0.5   0.0   0.5
V8     V     0.8125   0.9375   0.375
V9     V     0.875   0.1875   0.9375
V10     V     0.6875   0.0625   0.875
Er11     Er     0.75   0.25   0.75
V12     V     0.5625   0.125   0.6875
V13     V     0.625   0.3125   0.5625
Er14     Er     0.5   0.0   0.0
V15     V     0.3125   0.0625   0.375
V16     V     0.4375   0.125   0.1875
V17     V     0.375   0.3125   0.0625
V18     V     0.1875   0.4375   0.125
V19     V     0.9375   0.875   0.1875
Er20     Er     0.75   0.75   0.25
V21     V     0.6875   0.5625   0.125
V22     V     0.875   0.6875   0.0625
V23     V     0.5625   0.625   0.3125
V24     V     0.8125   0.0625   0.125
V25     V     0.625   0.1875   0.0625
Er26     Er     0.75   0.25   0.25
V27     V     0.5625   0.375   0.1875
V28     V     0.875   0.3125   0.4375
V29     V     0.375   0.8125   0.9375
Er30     Er     0.0   0.5   0.0
V31     V     0.125   0.3125   0.9375
Er32     Er     0.25   0.25   0.75
V33     V     0.375   0.1875   0.5625
V34     V     0.1875   0.0625   0.625
V35     V     0.0625   0.125   0.8125
V36     V     0.4375   0.875   0.3125
V37     V     0.3125   0.9375   0.125
V38     V     0.1875   0.9375   0.875
V39     V     0.1875   0.5625   0.375
Er40     Er     0.25   0.75   0.25
Er41     Er     0.25   0.75   0.75
V42     V     0.125   0.6875   0.5625
V43     V     0.0625   0.875   0.6875
V44     V     0.3125   0.5625   0.625
V45     V     0.375   0.6875   0.4375
V46     V     0.9375   0.125   0.3125
V47     V     0.0625   0.375   0.3125
V48     V     0.125   0.1875   0.4375
Er49     Er     0.25   0.25   0.25
Er50     Er     0.0   0.0   0.5
V51     V     0.4375   0.625   0.8125
V52     V     0.0625   0.625   0.1875
V53     V     0.125   0.8125   0.0625
V54     V     0.4375   0.375   0.6875
V55     V     0.3125   0.4375   0.875
Er56     Er     0.0   0.0   0.0
V57     V     0.625   0.8125   0.4375
V58     V     0.6875   0.4375   0.375
Er59     Er     0.5   0.5   0.0
V60     V     0.8125   0.4375   0.625
V61     V     0.5625   0.875   0.8125
Er62     Er     0.75   0.75   0.75
V63     V     0.875   0.8125   0.5625
V64     V     0.8125   0.5625   0.875
loop_
_geom_bond_atom_site_label_1
_geom_bond_atom_site_label_2
_geom_bond_distance
_geom_bond_site_symmetry_2
_ccdc_geom_bond_type
V1     Er2    10.0   1_655     S
V1     V42    10.0   1_655     S
V1     V63    10.0   .     S
V1     Er62    10.0   .     S
V1     V64    10.0   .     S
V1     V60    10.0   .     S
Er2     V1    10.0   1_455     S
Er2     V47    10.0   .     S
Er2     V28    10.0   1_455     S
Er2     V60    10.0   1_455     S
Er2     V39    10.0   .     S
Er2     V42    10.0   .     S
V3     Er30    10.0   1_656     S
V3     V60    10.0   .     S
V3     Er11    10.0   .     S
V3     V31    10.0   1_655     S
V3     V9    10.0   .     S
V3     V64    10.0   .     S
Er4     V13    10.0   .     S
Er4     V44    10.0   .     S
Er4     V45    10.0   .     S
Er4     V58    10.0   .     S
Er4     V54    10.0   .     S
Er4     V23    10.0   .     S
V5     Er59    10.0   1_556     S
V5     V21    10.0   1_556     S
V5     V61    10.0   .     S
V5     Er62    10.0   .     S
V5     V64    10.0   .     S
V5     V51    10.0   .     S
V6     Er7    10.0   1_565     S
V6     V12    10.0   1_565     S
V6     V61    10.0   .     S
V6     Er62    10.0   .     S
V6     V63    10.0   .     S
V6     V57    10.0   .     S
Er7     V6    10.0   1_545     S
Er7     V36    10.0   1_545     S
Er7     V15    10.0   .     S
Er7     V12    10.0   .     S
Er7     V33    10.0   .     S
Er7     V57    10.0   1_545     S
V8     Er20    10.0   .     S
V8     V19    10.0   .     S
V8     V46    10.0   1_565     S
V8     V57    10.0   .     S
V8     V63    10.0   .     S
V8     Er50    10.0   1_665     S
V9     Er56    10.0   1_656     S
V9     V10    10.0   .     S
V9     Er11    10.0   .     S
V9     V24    10.0   1_556     S
V9     V35    10.0   1_655     S
V10     V12    10.0   .     S
V10     Er11    10.0   .     S
V10     Er14    10.0   1_556     S
V10     V25    10.0   1_556     S
V10     V61    10.0   1_545     S
Er11     V13    10.0   .     S
Er11     V12    10.0   .     S
Er11     V60    10.0   .     S
V12     V33    10.0   .     S
V12     V13    10.0   .     S
V12     V6    10.0   1_545     S
V13     V58    10.0   .     S
V13     V54    10.0   .     S
V13     V60    10.0   .     S
Er14     V37    10.0   1_545     S
Er14     V61    10.0   1_544     S
Er14     V16    10.0   .     S
Er14     V10    10.0   1_554     S
Er14     V25    10.0   .     S
Er14     V29    10.0   1_544     S
V15     V16    10.0   .     S
V15     Er49    10.0   .     S
V15     V48    10.0   .     S
V15     V33    10.0   .     S
V15     V36    10.0   1_545     S
V16     V25    10.0   .     S
V16     Er49    10.0   .     S
V16     V17    10.0   .     S
V16     V37    10.0   1_545     S
V17     V18    10.0   .     S
V17     Er49    10.0   .     S
V17     Er59    10.0   .     S
V17     V27    10.0   .     S
V17     V55    10.0   1_554     S
V18     Er30    10.0   .     S
V18     V52    10.0   .     S
V18     Er49    10.0   .     S
V18     V47    10.0   .     S
V18     V31    10.0   1_554     S
V19     Er56    10.0   1_665     S
V19     V22    10.0   .     S
V19     Er20    10.0   .     S
V19     V53    10.0   1_655     S
V19     V24    10.0   1_565     S
Er20     V23    10.0   .     S
Er20     V21    10.0   .     S
Er20     V22    10.0   .     S
Er20     V57    10.0   .     S
V21     V22    10.0   .     S
V21     V23    10.0   .     S
V21     V5    10.0   1_554     S
V21     Er59    10.0   .     S
V21     V27    10.0   .     S
V22     V64    10.0   1_554     S
V22     Er30    10.0   1_655     S
V22     V52    10.0   1_655     S
V23     V58    10.0   .     S
V23     V45    10.0   .     S
V23     V57    10.0   .     S
V24     Er26    10.0   .     S
V24     V46    10.0   .     S
V24     Er56    10.0   1_655     S
V24     V9    10.0   1_554     S
V24     V25    10.0   .     S
V24     V19    10.0   1_545     S
V25     Er26    10.0   .     S
V25     V10    10.0   1_554     S
V25     V27    10.0   .     S
Er26     V46    10.0   .     S
Er26     V28    10.0   .     S
Er26     V58    10.0   .     S
Er26     V27    10.0   .     S
V27     Er59    10.0   .     S
V27     V58    10.0   .     S
V28     Er2    10.0   1_655     S
V28     V46    10.0   .     S
V28     V58    10.0   .     S
V28     V60    10.0   .     S
V28     V47    10.0   1_655     S
V29     V37    10.0   1_556     S
V29     V61    10.0   .     S
V29     Er41    10.0   .     S
V29     V38    10.0   .     S
V29     V51    10.0   .     S
V29     Er14    10.0   1_566     S
Er30     V3    10.0   1_454     S
Er30     V22    10.0   1_455     S
Er30     V31    10.0   1_554     S
Er30     V52    10.0   .     S
Er30     V64    10.0   1_454     S
V31     Er30    10.0   1_556     S
V31     V55    10.0   .     S
V31     Er32    10.0   .     S
V31     V35    10.0   .     S
V31     V3    10.0   1_455     S
V31     V18    10.0   1_556     S
Er32     V54    10.0   .     S
Er32     V33    10.0   .     S
Er32     V34    10.0   .     S
Er32     V35    10.0   .     S
Er32     V55    10.0   .     S
V33     V54    10.0   .     S
V33     V34    10.0   .     S
V34     V35    10.0   .     S
V34     V48    10.0   .     S
V34     Er50    10.0   .     S
V34     V43    10.0   1_545     S
V35     V38    10.0   1_545     S
V35     Er56    10.0   1_556     S
V35     V9    10.0   1_455     S
V36     V57    10.0   .     S
V36     Er7    10.0   1_565     S
V36     V37    10.0   .     S
V36     Er40    10.0   .     S
V36     V45    10.0   .     S
V36     V15    10.0   1_565     S
V37     V29    10.0   1_554     S
V37     Er14    10.0   1_565     S
V37     Er40    10.0   .     S
V37     V53    10.0   .     S
V37     V16    10.0   1_565     S
V38     Er56    10.0   1_566     S
V38     V43    10.0   .     S
V38     Er41    10.0   .     S
V38     V35    10.0   1_565     S
V38     V53    10.0   1_556     S
V39     Er40    10.0   .     S
V39     V52    10.0   .     S
V39     V42    10.0   .     S
V39     V47    10.0   .     S
V39     V45    10.0   .     S
Er40     V45    10.0   .     S
Er40     V52    10.0   .     S
Er40     V53    10.0   .     S
Er41     V44    10.0   .     S
Er41     V42    10.0   .     S
Er41     V43    10.0   .     S
Er41     V51    10.0   .     S
V42     V43    10.0   .     S
V42     V44    10.0   .     S
V42     V1    10.0   1_455     S
V43     Er50    10.0   1_565     S
V43     V63    10.0   1_455     S
V43     V34    10.0   1_565     S
V44     V54    10.0   .     S
V44     V45    10.0   .     S
V44     V51    10.0   .     S
V46     Er50    10.0   1_655     S
V46     V48    10.0   1_655     S
V46     V8    10.0   1_545     S
V47     Er49    10.0   .     S
V47     V48    10.0   .     S
V47     V28    10.0   1_455     S
V48     V46    10.0   1_455     S
V48     Er50    10.0   .     S
V48     Er49    10.0   .     S
Er50     V46    10.0   1_455     S
Er50     V43    10.0   1_545     S
Er50     V63    10.0   1_445     S
Er50     V8    10.0   1_445     S
V51     V55    10.0   .     S
V51     Er59    10.0   1_556     S
V52     V53    10.0   .     S
V52     V22    10.0   1_455     S
V53     V19    10.0   1_455     S
V53     Er56    10.0   1_565     S
V53     V38    10.0   1_554     S
V54     V55    10.0   .     S
V55     Er59    10.0   1_556     S
V55     V17    10.0   1_556     S
Er56     V9    10.0   1_454     S
Er56     V19    10.0   1_445     S
Er56     V38    10.0   1_544     S
Er56     V35    10.0   1_554     S
Er56     V24    10.0   1_455     S
Er56     V53    10.0   1_545     S
V57     Er7    10.0   1_565     S
Er59     V5    10.0   1_554     S
Er59     V55    10.0   1_554     S
Er59     V51    10.0   1_554     S
V60     Er2    10.0   1_655     S
V61     Er14    10.0   1_566     S
V61     Er62    10.0   .     S
V61     V10    10.0   1_565     S
Er62     V64    10.0   .     S
Er62     V63    10.0   .     S
V63     Er50    10.0   1_665     S
V63     V43    10.0   1_655     S
V64     V22    10.0   1_556     S
V64     Er30    10.0   1_656     S
