data_nlr
_audit_creation_date              2020-02-04
_audit_creation_method            'Pymatgen'
_symmetry_space_group_name_H-M    'P1'
_symmetry_Int_Tables_number       1
loop_
_symmetry_equiv_pos_as_xyz
  x,y,z
_cell_length_a                    60.3059
_cell_length_b                    60.3059
_cell_length_c                    19.6494
_cell_angle_alpha                 90.0
_cell_angle_beta                 90.0
_cell_angle_gamma                 120.0
loop_
_atom_site_label
_atom_site_type_symbol
_atom_site_fract_x
_atom_site_fract_y
_atom_site_fract_z
V1     V     0.2504   0.3333   0.1667
V2     V     0.2504   0.3333   0.6667
V3     V     0.3333   0.2504   0.3333
V4     V     0.3333   0.2504   0.8333
V5     V     0.4163   0.4163   0.0
V6     V     0.4163   0.4163   0.5
V7     V     0.5837   0.0   0.0
V8     V     0.5837   0.0   0.5
V9     V     0.7496   0.083   0.3333
V10     V     0.7496   0.083   0.8333
V11     V     0.6667   0.917   0.1667
V12     V     0.6667   0.917   0.6667
V13     V     0.0   0.4163   0.0
V14     V     0.0   0.4163   0.5
V15     V     0.917   0.2504   0.3333
V16     V     0.917   0.2504   0.8333
V17     V     0.083   0.3333   0.1667
V18     V     0.083   0.3333   0.6667
V19     V     0.4163   0.0   0.0
V20     V     0.4163   0.0   0.5
V21     V     0.2504   0.917   0.1667
V22     V     0.2504   0.917   0.6667
V23     V     0.3333   0.083   0.3333
V24     V     0.3333   0.083   0.8333
V25     V     0.0   0.5837   0.0
V26     V     0.0   0.5837   0.5
V27     V     0.083   0.7496   0.1667
V28     V     0.083   0.7496   0.6667
V29     V     0.917   0.6667   0.3333
V30     V     0.917   0.6667   0.8333
V31     V     0.7496   0.6667   0.3333
V32     V     0.7496   0.6667   0.8333
V33     V     0.6667   0.7496   0.1667
V34     V     0.6667   0.7496   0.6667
V35     V     0.5837   0.5837   0.0
V36     V     0.5837   0.5837   0.5
loop_
_geom_bond_atom_site_label_1
_geom_bond_atom_site_label_2
_geom_bond_distance
_geom_bond_site_symmetry_2
_ccdc_geom_bond_type
V1     V2    9.825   .     S
V1     V2    9.825   1_554     S
V1     V17    10.094   .     S
V1     V4    10.864   1_554     S
V1     V6    10.864   .     S
V1     V3    9.265   .     S
V1     V5    9.265   .     S
V2     V1    9.825   1_556     S
V2     V18    10.094   .     S
V2     V3    10.864   .     S
V2     V5    10.864   1_556     S
V2     V4    9.265   .     S
V2     V6    9.265   .     S
V3     V4    9.825   1_554     S
V3     V4    9.825   .     S
V3     V23    10.094   .     S
V3     V5    10.864   .     S
V3     V6    9.265   .     S
V4     V3    9.825   1_556     S
V4     V24    10.094   .     S
V4     V1    10.864   1_556     S
V4     V6    10.864   .     S
V4     V5    9.265   1_556     S
V5     V6    9.825   .     S
V5     V6    9.825   1_554     S
V5     V35    10.094   .     S
V5     V2    10.864   1_554     S
V5     V4    9.265   1_554     S
V6     V5    9.825   1_556     S
V6     V36    10.094   .     S
V7     V8    9.825   .     S
V7     V8    9.825   1_554     S
V7     V19    10.094   .     S
V7     V12    10.864   1_544     S
V7     V9    10.864   .     S
V7     V11    9.265   1_545     S
V7     V10    9.265   1_554     S
V8     V7    9.825   1_556     S
V8     V20    10.094   .     S
V8     V11    10.864   1_545     S
V8     V10    10.864   .     S
V8     V12    9.265   1_545     S
V8     V9    9.265   .     S
V9     V10    9.825   1_554     S
V9     V10    9.825   .     S
V9     V15    10.094   .     S
V9     V12    10.864   1_545     S
V9     V11    9.265   1_545     S
V10     V9    9.825   1_556     S
V10     V16    10.094   .     S
V10     V11    10.864   1_546     S
V10     V12    9.265   1_545     S
V10     V7    9.265   1_556     S
V11     V12    9.825   .     S
V11     V12    9.825   1_554     S
V11     V33    10.094   .     S
V11     V10    10.864   1_564     S
V11     V8    10.864   1_565     S
V11     V9    9.265   1_565     S
V11     V7    9.265   1_565     S
V12     V11    9.825   1_556     S
V12     V34    10.094   .     S
V12     V9    10.864   1_565     S
V12     V7    10.864   1_566     S
V12     V10    9.265   1_565     S
V12     V8    9.265   1_565     S
V13     V14    9.825   .     S
V13     V14    9.825   1_554     S
V13     V25    10.094   .     S
V13     V18    10.864   1_554     S
V13     V15    10.864   1_455     S
V13     V17    9.265   .     S
V13     V16    9.265   1_454     S
V14     V13    9.825   1_556     S
V14     V26    10.094   .     S
V14     V17    10.864   .     S
V14     V16    10.864   1_455     S
V14     V18    9.265   .     S
V14     V15    9.265   1_455     S
V15     V16    9.825   1_554     S
V15     V16    9.825   .     S
V15     V18    10.864   1_655     S
V15     V13    10.864   1_655     S
V15     V17    9.265   1_655     S
V15     V14    9.265   1_655     S
V16     V15    9.825   1_556     S
V16     V17    10.864   1_656     S
V16     V14    10.864   1_655     S
V16     V18    9.265   1_655     S
V16     V13    9.265   1_656     S
V17     V18    9.825   .     S
V17     V18    9.825   1_554     S
V17     V16    10.864   1_454     S
V17     V15    9.265   1_455     S
V18     V17    9.825   1_556     S
V18     V15    10.864   1_455     S
V18     V13    10.864   1_556     S
V18     V16    9.265   1_455     S
V19     V20    9.825   .     S
V19     V20    9.825   1_554     S
V19     V23    10.864   .     S
V19     V22    10.864   1_544     S
V19     V24    9.265   1_554     S
V19     V21    9.265   1_545     S
V20     V19    9.825   1_556     S
V20     V24    10.864   .     S
V20     V21    10.864   1_545     S
V20     V23    9.265   .     S
V20     V22    9.265   1_545     S
V21     V22    9.825   .     S
V21     V22    9.825   1_554     S
V21     V27    10.094   .     S
V21     V24    10.864   1_564     S
V21     V20    10.864   1_565     S
V21     V23    9.265   1_565     S
V21     V19    9.265   1_565     S
V22     V21    9.825   1_556     S
V22     V28    10.094   .     S
V22     V23    10.864   1_565     S
V22     V19    10.864   1_566     S
V22     V24    9.265   1_565     S
V22     V20    9.265   1_565     S
V23     V24    9.825   1_554     S
V23     V24    9.825   .     S
V23     V22    10.864   1_545     S
V23     V21    9.265   1_545     S
V24     V23    9.825   1_556     S
V24     V21    10.864   1_546     S
V24     V22    9.265   1_545     S
V24     V19    9.265   1_556     S
V25     V26    9.825   .     S
V25     V26    9.825   1_554     S
V25     V28    10.864   1_554     S
V25     V29    10.864   1_455     S
V25     V27    9.265   .     S
V25     V30    9.265   1_454     S
V26     V25    9.825   1_556     S
V26     V27    10.864   .     S
V26     V30    10.864   1_455     S
V26     V28    9.265   .     S
V26     V29    9.265   1_455     S
V27     V28    9.825   .     S
V27     V28    9.825   1_554     S
V27     V30    10.864   1_454     S
V27     V29    9.265   1_455     S
V28     V27    9.825   1_556     S
V28     V29    10.864   1_455     S
V28     V25    10.864   1_556     S
V28     V30    9.265   1_455     S
V29     V30    9.825   1_554     S
V29     V30    9.825   .     S
V29     V31    10.094   .     S
V29     V28    10.864   1_655     S
V29     V25    10.864   1_655     S
V29     V27    9.265   1_655     S
V29     V26    9.265   1_655     S
V30     V29    9.825   1_556     S
V30     V32    10.094   .     S
V30     V27    10.864   1_656     S
V30     V26    10.864   1_655     S
V30     V28    9.265   1_655     S
V30     V25    9.265   1_656     S
V31     V32    9.825   1_554     S
V31     V32    9.825   .     S
V31     V34    10.864   .     S
V31     V35    10.864   .     S
V31     V33    9.265   .     S
V31     V36    9.265   .     S
V32     V31    9.825   1_556     S
V32     V33    10.864   1_556     S
V32     V36    10.864   .     S
V32     V34    9.265   .     S
V32     V35    9.265   1_556     S
V33     V34    9.825   .     S
V33     V34    9.825   1_554     S
V33     V32    10.864   1_554     S
V33     V36    10.864   .     S
V33     V35    9.265   .     S
V34     V33    9.825   1_556     S
V34     V35    10.864   1_556     S
V34     V36    9.265   .     S
V35     V36    9.825   .     S
V35     V36    9.825   1_554     S
V35     V34    10.864   1_554     S
V35     V32    9.265   1_554     S
V36     V35    9.825   1_556     S
