data_nti
_audit_creation_date              2020-02-04
_audit_creation_method            'Pymatgen'
_symmetry_space_group_name_H-M    'P1'
_symmetry_Int_Tables_number       1
loop_
_symmetry_equiv_pos_as_xyz
  x,y,z
_cell_length_a                    60.3736
_cell_length_b                    60.3736
_cell_length_c                    35.1941
_cell_angle_alpha                 90.0
_cell_angle_beta                 90.0
_cell_angle_gamma                 90.0
loop_
_atom_site_label
_atom_site_type_symbol
_atom_site_fract_x
_atom_site_fract_y
_atom_site_fract_z
V1     V     0.4352   0.5615   0.6605
V2     V     0.5648   0.4385   0.6605
Er3     Er     0.5   0.5   0.868
V4     V     0.4385   0.5648   0.3395
V5     V     0.5615   0.4352   0.3395
Er6     Er     0.5   0.5   0.132
Ti7     Ti     0.8145   0.1956   0.8728
Ti8     Ti     0.6855   0.1956   0.8772
Ti9     Ti     0.8044   0.3145   0.1228
Ti10     Ti     0.8044   0.1855   0.1272
Ti11     Ti     0.6956   0.3145   0.6272
Ti12     Ti     0.6956   0.1855   0.6228
Ti13     Ti     0.6855   0.3044   0.3728
Ti14     Ti     0.8145   0.3044   0.3772
V15     V     0.4385   0.9352   0.9105
V16     V     0.5615   0.0648   0.9105
Er17     Er     0.5   0.0   0.118
V18     V     0.4352   0.9385   0.5895
V19     V     0.5648   0.0615   0.5895
Er20     Er     0.5   0.0   0.382
V21     V     0.0615   0.9352   0.8395
V22     V     0.9385   0.0648   0.8395
Er23     Er     0.0   0.0   0.632
V24     V     0.0648   0.9385   0.1605
V25     V     0.9352   0.0615   0.1605
Er26     Er     0.0   0.0   0.368
Ti27     Ti     0.3044   0.6855   0.6272
Ti28     Ti     0.3044   0.8145   0.6228
Ti29     Ti     0.3145   0.6956   0.3728
Ti30     Ti     0.1855   0.6956   0.3772
Ti31     Ti     0.3145   0.8044   0.8772
Ti32     Ti     0.1855   0.8044   0.8728
Ti33     Ti     0.1956   0.6855   0.1228
Ti34     Ti     0.1956   0.8145   0.1272
V35     V     0.0615   0.5648   0.4105
V36     V     0.9385   0.4352   0.4105
Er37     Er     0.0   0.5   0.618
V38     V     0.0648   0.5615   0.0895
V39     V     0.9352   0.4385   0.0895
Er40     Er     0.0   0.5   0.882
loop_
_geom_bond_atom_site_label_1
_geom_bond_atom_site_label_2
_geom_bond_distance
_geom_bond_site_symmetry_2
_ccdc_geom_bond_type
V1     Ti27    10.948   .     S
V1     Er3    9.077   .     S
V1     V2    10.785   .     S
V2     Ti11    10.948   .     S
V2     Er3    9.077   .     S
Er3     Er6    9.291   1_556     S
V4     Ti29    10.948   .     S
V4     Er6    9.077   .     S
V4     V5    10.785   .     S
V5     Ti13    10.948   .     S
V5     Er6    9.077   .     S
Er6     Er3    9.291   1_554     S
Ti7     Ti12    11.37   .     S
Ti7     Ti9    11.37   1_556     S
Ti7     V22    10.948   .     S
Ti7     Ti10    8.993   1_556     S
Ti7     Ti8    7.787   .     S
Ti8     Ti11    11.37   .     S
Ti8     Ti10    11.37   1_556     S
Ti8     V16    10.948   .     S
Ti8     Ti12    8.993   .     S
Ti9     Ti13    11.37   .     S
Ti9     Ti7    11.37   1_554     S
Ti9     V39    10.948   .     S
Ti9     Ti14    8.993   .     S
Ti9     Ti10    7.787   .     S
Ti10     Ti14    11.37   .     S
Ti10     Ti8    11.37   1_554     S
Ti10     V25    10.948   .     S
Ti10     Ti7    8.993   1_554     S
Ti11     Ti14    11.37   .     S
Ti11     Ti13    8.993   .     S
Ti11     Ti12    7.787   .     S
Ti12     Ti13    11.37   .     S
Ti12     V19    10.948   .     S
Ti13     Ti14    7.787   .     S
Ti14     V36    10.948   .     S
V15     Ti31    10.948   .     S
V15     Er17    9.077   1_566     S
V15     V16    10.785   1_565     S
V16     Er17    9.077   1_556     S
V16     V15    10.785   1_545     S
Er17     Er20    9.291   .     S
Er17     V15    9.077   1_544     S
Er17     V16    9.077   1_554     S
V18     Ti28    10.948   .     S
V18     Er20    9.077   1_565     S
V18     V19    10.785   1_565     S
V19     Er20    9.077   .     S
V19     V18    10.785   1_545     S
Er20     V18    9.077   1_545     S
V21     Ti32    10.948   .     S
V21     Er23    9.077   1_565     S
V21     V22    10.785   1_465     S
V22     Er23    9.077   1_655     S
V22     V21    10.785   1_645     S
Er23     Er26    9.291   .     S
Er23     V21    9.077   1_545     S
Er23     V22    9.077   1_455     S
V24     Ti34    10.948   .     S
V24     Er26    9.077   1_565     S
V24     V25    10.785   1_465     S
V25     Er26    9.077   1_655     S
V25     V24    10.785   1_645     S
Er26     V25    9.077   1_455     S
Er26     V24    9.077   1_545     S
Ti27     Ti30    11.37   .     S
Ti27     Ti31    11.37   .     S
Ti27     Ti29    8.993   .     S
Ti27     Ti28    7.787   .     S
Ti28     Ti29    11.37   .     S
Ti28     Ti32    11.37   .     S
Ti28     Ti31    8.993   .     S
Ti29     Ti33    11.37   .     S
Ti29     Ti30    7.787   .     S
Ti30     Ti34    11.37   .     S
Ti30     V35    10.948   .     S
Ti30     Ti33    8.993   .     S
Ti31     Ti34    11.37   1_556     S
Ti31     Ti32    7.787   .     S
Ti32     Ti33    11.37   1_556     S
Ti32     Ti34    8.993   1_556     S
Ti33     Ti32    11.37   1_554     S
Ti33     V38    10.948   .     S
Ti33     Ti34    7.787   .     S
Ti34     Ti31    11.37   1_554     S
Ti34     Ti32    8.993   1_554     S
V35     Er37    9.077   .     S
V35     V36    10.785   1_455     S
V36     Er37    9.077   1_655     S
V36     V35    10.785   1_655     S
Er37     Er40    9.291   .     S
Er37     V36    9.077   1_455     S
V38     Er40    9.077   1_554     S
V38     V39    10.785   1_455     S
V39     Er40    9.077   1_654     S
V39     V38    10.785   1_655     S
Er40     V39    9.077   1_456     S
Er40     V38    9.077   1_556     S
