data_ntu
_audit_creation_date              2020-02-04
_audit_creation_method            'Pymatgen'
_symmetry_space_group_name_H-M    'P1'
_symmetry_Int_Tables_number       1
loop_
_symmetry_equiv_pos_as_xyz
  x,y,z
_cell_length_a                    47.5889
_cell_length_b                    47.5889
_cell_length_c                    47.5889
_cell_angle_alpha                 90.0
_cell_angle_beta                 90.0
_cell_angle_gamma                 90.0
loop_
_atom_site_label
_atom_site_type_symbol
_atom_site_fract_x
_atom_site_fract_y
_atom_site_fract_z
Er1     Er     0.2931   0.2069   0.2069
Er2     Er     0.2069   0.2931   0.2069
Ti3     Ti     0.3787   0.6213   0.8787
Ti4     Ti     0.6213   0.6213   0.8787
Ti5     Ti     0.6213   0.3787   0.8787
Ti6     Ti     0.3787   0.3787   0.8787
V7     V     0.5   0.5   0.0
Ti8     Ti     0.6213   0.6213   0.1213
Ti9     Ti     0.3787   0.6213   0.1213
Ti10     Ti     0.3787   0.3787   0.1213
Ti11     Ti     0.6213   0.3787   0.1213
Ti12     Ti     0.6213   0.8787   0.3787
Ti13     Ti     0.6213   0.8787   0.6213
Ti14     Ti     0.3787   0.8787   0.6213
Ti15     Ti     0.3787   0.8787   0.3787
V16     V     0.5   0.0   0.5
Ti17     Ti     0.6213   0.1213   0.6213
Ti18     Ti     0.3787   0.1213   0.6213
Ti19     Ti     0.6213   0.1213   0.3787
Ti20     Ti     0.3787   0.1213   0.3787
Ti21     Ti     0.8787   0.6213   0.3787
Ti22     Ti     0.8787   0.3787   0.6213
Ti23     Ti     0.8787   0.6213   0.6213
Ti24     Ti     0.8787   0.3787   0.3787
V25     V     0.0   0.5   0.5
Ti26     Ti     0.1213   0.6213   0.6213
Ti27     Ti     0.1213   0.3787   0.6213
Ti28     Ti     0.1213   0.3787   0.3787
Ti29     Ti     0.1213   0.6213   0.3787
Er30     Er     0.7931   0.7931   0.2931
Er31     Er     0.7931   0.2931   0.7931
Ti32     Ti     0.8787   0.8787   0.8787
Ti33     Ti     0.8787   0.1213   0.8787
Ti34     Ti     0.1213   0.8787   0.8787
Ti35     Ti     0.8787   0.8787   0.1213
Ti36     Ti     0.1213   0.1213   0.8787
Ti37     Ti     0.1213   0.8787   0.1213
Ti38     Ti     0.8787   0.1213   0.1213
V39     V     0.0   0.0   0.0
Ti40     Ti     0.1213   0.1213   0.1213
Er41     Er     0.2931   0.7931   0.7931
Er42     Er     0.2069   0.2931   0.7931
Er43     Er     0.2931   0.2069   0.7931
Er44     Er     0.2069   0.7931   0.2931
Er45     Er     0.2931   0.7931   0.2069
Er46     Er     0.7931   0.2069   0.2931
Er47     Er     0.7931   0.2931   0.2069
Er48     Er     0.7931   0.7931   0.7069
Er49     Er     0.7931   0.7069   0.7931
Er50     Er     0.7069   0.7931   0.7931
Er51     Er     0.7931   0.2069   0.7069
Er52     Er     0.7931   0.7069   0.2069
Er53     Er     0.2069   0.7931   0.7069
Er54     Er     0.7069   0.7931   0.2069
Er55     Er     0.7069   0.2069   0.7931
Er56     Er     0.2069   0.7069   0.7931
Er57     Er     0.2069   0.2069   0.2931
Er58     Er     0.2069   0.2069   0.7069
Er59     Er     0.2069   0.7069   0.2069
Er60     Er     0.7069   0.2069   0.2069
Er61     Er     0.2931   0.7069   0.7069
Er62     Er     0.7069   0.2931   0.7069
Er63     Er     0.2931   0.2931   0.2931
Er64     Er     0.7069   0.7069   0.2931
Er65     Er     0.2931   0.7069   0.2931
Er66     Er     0.7069   0.2931   0.2931
Er67     Er     0.2931   0.2931   0.7069
Er68     Er     0.7069   0.7069   0.7069
loop_
_geom_bond_atom_site_label_1
_geom_bond_atom_site_label_2
_geom_bond_distance
_geom_bond_site_symmetry_2
_ccdc_geom_bond_type
Er1     Ti40    10.0   .     S
Er1     Ti10    10.0   .     S
Er1     Ti20    10.0   .     S
Er2     Ti40    10.0   .     S
Er2     Ti10    10.0   .     S
Er2     Ti28    10.0   .     S
Ti3     Er61    10.0   .     S
Ti3     Er56    10.0   .     S
Ti3     Er41    10.0   .     S
Ti3     V7    10.0   1_556     S
Ti4     Er68    10.0   .     S
Ti4     Er50    10.0   .     S
Ti4     Er49    10.0   .     S
Ti4     V7    10.0   1_556     S
Ti5     Er62    10.0   .     S
Ti5     Er31    10.0   .     S
Ti5     Er55    10.0   .     S
Ti5     V7    10.0   1_556     S
Ti6     Er67    10.0   .     S
Ti6     Er43    10.0   .     S
Ti6     Er42    10.0   .     S
Ti6     V7    10.0   1_556     S
V7     Ti3    10.0   1_554     S
V7     Ti4    10.0   1_554     S
V7     Ti5    10.0   1_554     S
V7     Ti6    10.0   1_554     S
V7     Ti8    10.0   .     S
V7     Ti9    10.0   .     S
V7     Ti10    10.0   .     S
V7     Ti11    10.0   .     S
Ti8     Er64    10.0   .     S
Ti8     Er52    10.0   .     S
Ti8     Er54    10.0   .     S
Ti9     Er65    10.0   .     S
Ti9     Er45    10.0   .     S
Ti9     Er59    10.0   .     S
Ti10     Er63    10.0   .     S
Ti11     Er66    10.0   .     S
Ti11     Er60    10.0   .     S
Ti11     Er47    10.0   .     S
Ti12     Er54    10.0   .     S
Ti12     Er64    10.0   .     S
Ti12     Er30    10.0   .     S
Ti12     V16    10.0   1_565     S
Ti13     Er50    10.0   .     S
Ti13     Er68    10.0   .     S
Ti13     Er48    10.0   .     S
Ti13     V16    10.0   1_565     S
Ti14     Er41    10.0   .     S
Ti14     Er61    10.0   .     S
Ti14     Er53    10.0   .     S
Ti14     V16    10.0   1_565     S
Ti15     Er45    10.0   .     S
Ti15     Er65    10.0   .     S
Ti15     Er44    10.0   .     S
Ti15     V16    10.0   1_565     S
V16     Ti12    10.0   1_545     S
V16     Ti13    10.0   1_545     S
V16     Ti14    10.0   1_545     S
V16     Ti15    10.0   1_545     S
V16     Ti17    10.0   .     S
V16     Ti18    10.0   .     S
V16     Ti19    10.0   .     S
V16     Ti20    10.0   .     S
Ti17     Er55    10.0   .     S
Ti17     Er62    10.0   .     S
Ti17     Er51    10.0   .     S
Ti18     Er43    10.0   .     S
Ti18     Er67    10.0   .     S
Ti18     Er58    10.0   .     S
Ti19     Er60    10.0   .     S
Ti19     Er66    10.0   .     S
Ti19     Er46    10.0   .     S
Ti20     Er63    10.0   .     S
Ti20     Er57    10.0   .     S
Ti21     Er52    10.0   .     S
Ti21     Er64    10.0   .     S
Ti21     Er30    10.0   .     S
Ti21     V25    10.0   1_655     S
Ti22     Er31    10.0   .     S
Ti22     Er62    10.0   .     S
Ti22     Er51    10.0   .     S
Ti22     V25    10.0   1_655     S
Ti23     Er49    10.0   .     S
Ti23     Er68    10.0   .     S
Ti23     Er48    10.0   .     S
Ti23     V25    10.0   1_655     S
Ti24     Er47    10.0   .     S
Ti24     Er66    10.0   .     S
Ti24     Er46    10.0   .     S
Ti24     V25    10.0   1_655     S
V25     Ti21    10.0   1_455     S
V25     Ti22    10.0   1_455     S
V25     Ti23    10.0   1_455     S
V25     Ti24    10.0   1_455     S
V25     Ti26    10.0   .     S
V25     Ti27    10.0   .     S
V25     Ti28    10.0   .     S
V25     Ti29    10.0   .     S
Ti26     Er56    10.0   .     S
Ti26     Er61    10.0   .     S
Ti26     Er53    10.0   .     S
Ti27     Er42    10.0   .     S
Ti27     Er67    10.0   .     S
Ti27     Er58    10.0   .     S
Ti28     Er63    10.0   .     S
Ti28     Er57    10.0   .     S
Ti29     Er59    10.0   .     S
Ti29     Er65    10.0   .     S
Ti29     Er44    10.0   .     S
Er30     Ti35    10.0   .     S
Er31     Ti33    10.0   .     S
Ti32     Er48    10.0   .     S
Ti32     Er49    10.0   .     S
Ti32     Er50    10.0   .     S
Ti32     V39    10.0   1_666     S
Ti33     Er51    10.0   .     S
Ti33     Er55    10.0   .     S
Ti33     V39    10.0   1_656     S
Ti34     V39    10.0   1_566     S
Ti34     Er53    10.0   .     S
Ti34     Er56    10.0   .     S
Ti34     Er41    10.0   .     S
Ti35     Er54    10.0   .     S
Ti35     Er52    10.0   .     S
Ti35     V39    10.0   1_665     S
Ti36     Er58    10.0   .     S
Ti36     Er42    10.0   .     S
Ti36     Er43    10.0   .     S
Ti36     V39    10.0   1_556     S
Ti37     Er44    10.0   .     S
Ti37     Er59    10.0   .     S
Ti37     Er45    10.0   .     S
Ti37     V39    10.0   1_565     S
Ti38     Er46    10.0   .     S
Ti38     Er60    10.0   .     S
Ti38     Er47    10.0   .     S
Ti38     V39    10.0   1_655     S
V39     Ti32    10.0   1_444     S
V39     Ti33    10.0   1_454     S
V39     Ti34    10.0   1_544     S
V39     Ti35    10.0   1_445     S
V39     Ti36    10.0   1_554     S
V39     Ti37    10.0   1_545     S
V39     Ti38    10.0   1_455     S
V39     Ti40    10.0   .     S
Ti40     Er57    10.0   .     S
