data_ntw
_audit_creation_date              2020-02-04
_audit_creation_method            'Pymatgen'
_symmetry_space_group_name_H-M    'P1'
_symmetry_Int_Tables_number       1
loop_
_symmetry_equiv_pos_as_xyz
  x,y,z
_cell_length_a                    46.0153
_cell_length_b                    46.0153
_cell_length_c                    46.0153
_cell_angle_alpha                 90.0
_cell_angle_beta                 90.0
_cell_angle_gamma                 90.0
loop_
_atom_site_label
_atom_site_type_symbol
_atom_site_fract_x
_atom_site_fract_y
_atom_site_fract_z
Ti1     Ti     0.4343   0.5   0.7928
Ti2     Ti     0.5   0.7928   0.4343
Ti3     Ti     0.7928   0.4343   0.5
Ti4     Ti     0.5657   0.5   0.7928
Ti5     Ti     0.5   0.7928   0.5657
Ti6     Ti     0.7928   0.5657   0.5
Ti7     Ti     0.5   0.2072   0.5657
Er8     Er     0.3814   0.3814   0.6186
Er9     Er     0.6186   0.3814   0.6186
Ti10     Ti     0.5657   0.5   0.2072
Er11     Er     0.6186   0.3814   0.3814
Er12     Er     0.6186   0.6186   0.3814
Ti13     Ti     0.5   0.2072   0.4343
Ti14     Ti     0.2072   0.4343   0.5
Ti15     Ti     0.4343   0.5   0.2072
Er16     Er     0.3814   0.3814   0.3814
Ti17     Ti     0.2072   0.5657   0.5
Er18     Er     0.3814   0.6186   0.3814
Er19     Er     0.3814   0.6186   0.6186
Er20     Er     0.6186   0.6186   0.6186
V21     V     0.5   0.5   0.0
V22     V     0.5   0.0   0.5
V23     V     0.0   0.5   0.5
Ti24     Ti     0.7928   0.0657   0.0
Ti25     Ti     0.7928   0.9343   0.0
Ti26     Ti     0.5657   0.0   0.2928
Er27     Er     0.6186   0.1186   0.1186
Ti28     Ti     0.4343   0.0   0.2928
Ti29     Ti     0.5   0.2928   0.0657
Ti30     Ti     0.2072   0.0657   0.0
Er31     Er     0.3814   0.1186   0.1186
Er32     Er     0.6186   0.8814   0.8814
Ti33     Ti     0.5657   0.0   0.7072
Er34     Er     0.6186   0.1186   0.8814
Ti35     Ti     0.5   0.2928   0.9343
Er36     Er     0.3814   0.1186   0.8814
Er37     Er     0.3814   0.8814   0.8814
Ti38     Ti     0.4343   0.0   0.7072
Ti39     Ti     0.2072   0.9343   0.0
Er40     Er     0.3814   0.8814   0.1186
Er41     Er     0.6186   0.8814   0.1186
Ti42     Ti     0.5   0.7072   0.0657
Ti43     Ti     0.5   0.7072   0.9343
Ti44     Ti     0.0657   0.0   0.7928
Ti45     Ti     0.9343   0.0   0.7928
Ti46     Ti     0.0   0.2928   0.5657
Er47     Er     0.1186   0.1186   0.6186
Ti48     Ti     0.0   0.2928   0.4343
Ti49     Ti     0.2928   0.0657   0.5
Ti50     Ti     0.0657   0.0   0.2072
Er51     Er     0.1186   0.1186   0.3814
Er52     Er     0.8814   0.8814   0.6186
Ti53     Ti     0.0   0.7072   0.5657
Er54     Er     0.1186   0.8814   0.6186
Ti55     Ti     0.2928   0.9343   0.5
Er56     Er     0.1186   0.8814   0.3814
Er57     Er     0.8814   0.8814   0.3814
Ti58     Ti     0.0   0.7072   0.4343
Ti59     Ti     0.9343   0.0   0.2072
Er60     Er     0.8814   0.1186   0.6186
Ti61     Ti     0.7072   0.0657   0.5
Er62     Er     0.8814   0.1186   0.3814
Ti63     Ti     0.7072   0.9343   0.5
Ti64     Ti     0.0   0.7928   0.0657
Ti65     Ti     0.0   0.7928   0.9343
Ti66     Ti     0.2928   0.5657   0.0
Er67     Er     0.1186   0.6186   0.1186
Ti68     Ti     0.2928   0.4343   0.0
Ti69     Ti     0.0657   0.5   0.2928
Ti70     Ti     0.0   0.2072   0.0657
Er71     Er     0.1186   0.3814   0.1186
Er72     Er     0.8814   0.6186   0.8814
Ti73     Ti     0.7072   0.5657   0.0
Er74     Er     0.8814   0.6186   0.1186
Ti75     Ti     0.9343   0.5   0.2928
Er76     Er     0.8814   0.3814   0.1186
Er77     Er     0.8814   0.3814   0.8814
Ti78     Ti     0.7072   0.4343   0.0
Ti79     Ti     0.0   0.2072   0.9343
Er80     Er     0.1186   0.3814   0.8814
Er81     Er     0.1186   0.6186   0.8814
Ti82     Ti     0.0657   0.5   0.7072
Ti83     Ti     0.9343   0.5   0.7072
V84     V     0.0   0.0   0.0
loop_
_geom_bond_atom_site_label_1
_geom_bond_atom_site_label_2
_geom_bond_distance
_geom_bond_site_symmetry_2
_ccdc_geom_bond_type
Ti1     Er19    10.0   .     S
Ti1     Er8    10.0   .     S
Ti1     V21    10.0   1_556     S
Ti2     Er12    10.0   .     S
Ti2     Er18    10.0   .     S
Ti2     V22    10.0   1_565     S
Ti3     Er9    10.0   .     S
Ti3     Er11    10.0   .     S
Ti3     V23    10.0   1_655     S
Ti4     Er20    10.0   .     S
Ti4     Er9    10.0   .     S
Ti4     V21    10.0   1_556     S
Ti5     Er20    10.0   .     S
Ti5     Er19    10.0   .     S
Ti5     V22    10.0   1_565     S
Ti6     Er20    10.0   .     S
Ti6     Er12    10.0   .     S
Ti6     V23    10.0   1_655     S
Ti7     Er9    10.0   .     S
Ti7     Er8    10.0   .     S
Ti7     V22    10.0   .     S
Er8     Ti14    10.0   .     S
Ti10     Er12    10.0   .     S
Ti10     Er11    10.0   .     S
Ti10     V21    10.0   .     S
Er11     Ti13    10.0   .     S
Ti13     Er16    10.0   .     S
Ti13     V22    10.0   .     S
Ti14     Er16    10.0   .     S
Ti14     V23    10.0   .     S
Ti15     Er18    10.0   .     S
Ti15     Er16    10.0   .     S
Ti15     V21    10.0   .     S
Ti17     Er19    10.0   .     S
Ti17     Er18    10.0   .     S
Ti17     V23    10.0   .     S
V21     Ti42    10.0   .     S
V21     Ti43    10.0   1_554     S
V21     Ti66    10.0   .     S
V21     Ti68    10.0   .     S
V21     Ti73    10.0   .     S
V21     Ti78    10.0   .     S
V21     Ti4    10.0   1_554     S
V21     Ti1    10.0   1_554     S
V21     Ti29    10.0   .     S
V21     Ti35    10.0   1_554     S
V22     Ti61    10.0   .     S
V22     Ti63    10.0   1_545     S
V22     Ti26    10.0   .     S
V22     Ti28    10.0   .     S
V22     Ti33    10.0   .     S
V22     Ti38    10.0   .     S
V22     Ti5    10.0   1_545     S
V22     Ti2    10.0   1_545     S
V22     Ti49    10.0   .     S
V22     Ti55    10.0   1_545     S
V23     Ti82    10.0   .     S
V23     Ti83    10.0   1_455     S
V23     Ti6    10.0   1_455     S
V23     Ti3    10.0   1_455     S
V23     Ti46    10.0   .     S
V23     Ti48    10.0   .     S
V23     Ti53    10.0   .     S
V23     Ti58    10.0   .     S
V23     Ti69    10.0   .     S
V23     Ti75    10.0   1_455     S
Ti24     V84    10.0   1_655     S
Ti24     Er34    10.0   1_554     S
Ti24     Er27    10.0   .     S
Ti25     V84    10.0   1_665     S
Ti25     Er32    10.0   1_554     S
Ti25     Er41    10.0   .     S
Ti26     Er41    10.0   1_545     S
Ti26     Er27    10.0   .     S
Er27     Ti29    10.0   .     S
Ti28     Er40    10.0   1_545     S
Ti28     Er31    10.0   .     S
Ti29     Er31    10.0   .     S
Ti30     V84    10.0   .     S
Ti30     Er36    10.0   1_554     S
Ti30     Er31    10.0   .     S
Er32     Ti25    10.0   1_556     S
Er32     Ti43    10.0   .     S
Er32     Ti33    10.0   1_565     S
Ti33     Er32    10.0   1_545     S
Ti33     Er34    10.0   .     S
Er34     Ti24    10.0   1_556     S
Er34     Ti35    10.0   .     S
Ti35     V21    10.0   1_556     S
Ti35     Er36    10.0   .     S
Er36     Ti30    10.0   1_556     S
Er36     Ti38    10.0   .     S
Er37     Ti43    10.0   .     S
Er37     Ti38    10.0   1_565     S
Er37     Ti39    10.0   1_556     S
Ti38     Er37    10.0   1_545     S
Ti39     V84    10.0   1_565     S
Ti39     Er37    10.0   1_554     S
Ti39     Er40    10.0   .     S
Er40     Ti28    10.0   1_565     S
Er40     Ti42    10.0   .     S
Er41     Ti26    10.0   1_565     S
Er41     Ti42    10.0   .     S
Ti43     V21    10.0   1_556     S
Ti44     V84    10.0   1_556     S
Ti44     Er54    10.0   1_545     S
Ti44     Er47    10.0   .     S
Ti45     V84    10.0   1_656     S
Ti45     Er52    10.0   1_545     S
Ti45     Er60    10.0   .     S
Ti46     Er60    10.0   1_455     S
Ti46     Er47    10.0   .     S
Er47     Ti49    10.0   .     S
Ti48     Er62    10.0   1_455     S
Ti48     Er51    10.0   .     S
Ti49     Er51    10.0   .     S
Ti50     V84    10.0   .     S
Ti50     Er56    10.0   1_545     S
Ti50     Er51    10.0   .     S
Er52     Ti45    10.0   1_565     S
Er52     Ti63    10.0   .     S
Er52     Ti53    10.0   1_655     S
Ti53     Er52    10.0   1_455     S
Ti53     Er54    10.0   .     S
Er54     Ti44    10.0   1_565     S
Er54     Ti55    10.0   .     S
Ti55     V22    10.0   1_565     S
Ti55     Er56    10.0   .     S
Er56     Ti50    10.0   1_565     S
Er56     Ti58    10.0   .     S
Er57     Ti63    10.0   .     S
Er57     Ti58    10.0   1_655     S
Er57     Ti59    10.0   1_565     S
Ti58     Er57    10.0   1_455     S
Ti59     V84    10.0   1_655     S
Ti59     Er57    10.0   1_545     S
Ti59     Er62    10.0   .     S
Er60     Ti46    10.0   1_655     S
Er60     Ti61    10.0   .     S
Ti61     Er62    10.0   .     S
Er62     Ti48    10.0   1_655     S
Ti63     V22    10.0   1_565     S
Ti64     V84    10.0   1_565     S
Ti64     Er74    10.0   1_455     S
Ti64     Er67    10.0   .     S
Ti65     V84    10.0   1_566     S
Ti65     Er72    10.0   1_455     S
Ti65     Er81    10.0   .     S
Ti66     Er81    10.0   1_554     S
Ti66     Er67    10.0   .     S
Er67     Ti69    10.0   .     S
Ti68     Er80    10.0   1_554     S
Ti68     Er71    10.0   .     S
Ti69     Er71    10.0   .     S
Ti70     V84    10.0   .     S
Ti70     Er76    10.0   1_455     S
Ti70     Er71    10.0   .     S
Er72     Ti65    10.0   1_655     S
Er72     Ti83    10.0   .     S
Er72     Ti73    10.0   1_556     S
Ti73     Er72    10.0   1_554     S
Ti73     Er74    10.0   .     S
Er74     Ti64    10.0   1_655     S
Er74     Ti75    10.0   .     S
Ti75     V23    10.0   1_655     S
Ti75     Er76    10.0   .     S
Er76     Ti70    10.0   1_655     S
Er76     Ti78    10.0   .     S
Er77     Ti83    10.0   .     S
Er77     Ti78    10.0   1_556     S
Er77     Ti79    10.0   1_655     S
Ti78     Er77    10.0   1_554     S
Ti79     V84    10.0   1_556     S
Ti79     Er77    10.0   1_455     S
Ti79     Er80    10.0   .     S
Er80     Ti68    10.0   1_556     S
Er80     Ti82    10.0   .     S
Er81     Ti66    10.0   1_556     S
Er81     Ti82    10.0   .     S
Ti83     V23    10.0   1_655     S
V84     Ti39    10.0   1_545     S
V84     Ti24    10.0   1_455     S
V84     Ti25    10.0   1_445     S
V84     Ti59    10.0   1_455     S
V84     Ti44    10.0   1_554     S
V84     Ti45    10.0   1_454     S
V84     Ti79    10.0   1_554     S
V84     Ti64    10.0   1_545     S
V84     Ti65    10.0   1_544     S
