data_ocue
_audit_creation_date              2020-02-04
_audit_creation_method            'Pymatgen'
_symmetry_space_group_name_H-M    'P1'
_symmetry_Int_Tables_number       1
loop_
_symmetry_equiv_pos_as_xyz
  x,y,z
_cell_length_a                    36.418
_cell_length_b                    36.418
_cell_length_c                    36.418
_cell_angle_alpha                 90.0
_cell_angle_beta                 90.0
_cell_angle_gamma                 90.0
loop_
_atom_site_label
_atom_site_type_symbol
_atom_site_fract_x
_atom_site_fract_y
_atom_site_fract_z
V1     V     0.6301   0.8431   0.6301
V2     V     0.8431   0.6301   0.6301
V3     V     0.6301   0.6301   0.8431
V4     V     0.8699   0.8699   0.6569
V5     V     0.8699   0.6569   0.8699
V6     V     0.6569   0.8699   0.8699
V7     V     0.8431   0.3699   0.6301
V8     V     0.6301   0.3699   0.8431
V9     V     0.6301   0.1569   0.6301
V10     V     0.8699   0.1301   0.6569
V11     V     0.6569   0.1301   0.8699
V12     V     0.8699   0.3431   0.8699
V13     V     0.3699   0.8431   0.6301
V14     V     0.1569   0.6301   0.6301
V15     V     0.3699   0.6301   0.8431
V16     V     0.1301   0.8699   0.6569
V17     V     0.1301   0.6569   0.8699
V18     V     0.3431   0.8699   0.8699
V19     V     0.3431   0.1301   0.8699
V20     V     0.1301   0.3431   0.8699
V21     V     0.3699   0.3699   0.8431
V22     V     0.1569   0.3699   0.6301
V23     V     0.3699   0.1569   0.6301
V24     V     0.1301   0.1301   0.6569
V25     V     0.8431   0.6301   0.3699
V26     V     0.6301   0.8431   0.3699
V27     V     0.6301   0.6301   0.1569
V28     V     0.6569   0.8699   0.1301
V29     V     0.8699   0.6569   0.1301
V30     V     0.8699   0.8699   0.3431
V31     V     0.8699   0.1301   0.3431
V32     V     0.8699   0.3431   0.1301
V33     V     0.8431   0.3699   0.3699
V34     V     0.6301   0.1569   0.3699
V35     V     0.6301   0.3699   0.1569
V36     V     0.6569   0.1301   0.1301
V37     V     0.1301   0.1301   0.3431
V38     V     0.1301   0.3431   0.1301
V39     V     0.1569   0.3699   0.3699
V40     V     0.3431   0.1301   0.1301
V41     V     0.3699   0.3699   0.1569
V42     V     0.3699   0.1569   0.3699
V43     V     0.1301   0.8699   0.3431
V44     V     0.3431   0.8699   0.1301
V45     V     0.3699   0.8431   0.3699
V46     V     0.3699   0.6301   0.1569
V47     V     0.1569   0.6301   0.3699
V48     V     0.1301   0.6569   0.1301
loop_
_geom_bond_atom_site_label_1
_geom_bond_atom_site_label_2
_geom_bond_distance
_geom_bond_site_symmetry_2
_ccdc_geom_bond_type
V1     V26    9.478   .     S
V1     V13    9.478   .     S
V1     V9    11.426   1_565     S
V1     V2    10.97   .     S
V1     V3    10.97   .     S
V1     V4    8.839   .     S
V1     V6    8.839   .     S
V2     V25    9.478   .     S
V2     V7    9.478   .     S
V2     V14    11.426   1_655     S
V2     V3    10.97   .     S
V2     V4    8.839   .     S
V2     V5    8.839   .     S
V3     V8    9.478   .     S
V3     V15    9.478   .     S
V3     V27    11.426   1_556     S
V3     V6    8.839   .     S
V3     V5    8.839   .     S
V4     V10    9.478   1_565     S
V4     V16    9.478   1_655     S
V4     V30    11.426   .     S
V4     V5    10.97   .     S
V4     V6    10.97   .     S
V5     V29    9.478   1_556     S
V5     V17    9.478   1_655     S
V5     V12    11.426   .     S
V5     V6    10.97   .     S
V6     V28    9.478   1_556     S
V6     V11    9.478   1_565     S
V6     V18    11.426   .     S
V7     V33    9.478   .     S
V7     V22    11.426   1_655     S
V7     V8    10.97   .     S
V7     V9    10.97   .     S
V7     V12    8.839   .     S
V7     V10    8.839   .     S
V8     V21    9.478   .     S
V8     V35    11.426   1_556     S
V8     V9    10.97   .     S
V8     V12    8.839   .     S
V8     V11    8.839   .     S
V9     V34    9.478   .     S
V9     V23    9.478   .     S
V9     V1    11.426   1_545     S
V9     V10    8.839   .     S
V9     V11    8.839   .     S
V10     V4    9.478   1_545     S
V10     V24    9.478   1_655     S
V10     V31    11.426   .     S
V10     V12    10.97   .     S
V10     V11    10.97   .     S
V11     V6    9.478   1_545     S
V11     V36    9.478   1_556     S
V11     V19    11.426   .     S
V11     V12    10.97   .     S
V12     V32    9.478   1_556     S
V12     V20    9.478   1_655     S
V13     V45    9.478   .     S
V13     V23    11.426   1_565     S
V13     V15    10.97   .     S
V13     V14    10.97   .     S
V13     V18    8.839   .     S
V13     V16    8.839   .     S
V14     V47    9.478   .     S
V14     V22    9.478   .     S
V14     V2    11.426   1_455     S
V14     V15    10.97   .     S
V14     V16    8.839   .     S
V14     V17    8.839   .     S
V15     V21    9.478   .     S
V15     V46    11.426   1_556     S
V15     V18    8.839   .     S
V15     V17    8.839   .     S
V16     V4    9.478   1_455     S
V16     V24    9.478   1_565     S
V16     V43    11.426   .     S
V16     V18    10.97   .     S
V16     V17    10.97   .     S
V17     V5    9.478   1_455     S
V17     V48    9.478   1_556     S
V17     V20    11.426   .     S
V17     V18    10.97   .     S
V18     V44    9.478   1_556     S
V18     V19    9.478   1_565     S
V19     V18    9.478   1_545     S
V19     V40    9.478   1_556     S
V19     V24    10.97   .     S
V19     V20    10.97   .     S
V19     V23    8.839   .     S
V19     V21    8.839   .     S
V20     V12    9.478   1_455     S
V20     V38    9.478   1_556     S
V20     V24    10.97   .     S
V20     V22    8.839   .     S
V20     V21    8.839   .     S
V21     V41    11.426   1_556     S
V21     V23    10.97   .     S
V21     V22    10.97   .     S
V22     V39    9.478   .     S
V22     V7    11.426   1_455     S
V22     V23    10.97   .     S
V22     V24    8.839   .     S
V23     V42    9.478   .     S
V23     V13    11.426   1_545     S
V23     V24    8.839   .     S
V24     V10    9.478   1_455     S
V24     V16    9.478   1_545     S
V24     V37    11.426   .     S
V25     V33    9.478   .     S
V25     V47    11.426   1_655     S
V25     V26    10.97   .     S
V25     V27    10.97   .     S
V25     V30    8.839   .     S
V25     V29    8.839   .     S
V26     V45    9.478   .     S
V26     V34    11.426   1_565     S
V26     V27    10.97   .     S
V26     V30    8.839   .     S
V26     V28    8.839   .     S
V27     V35    9.478   .     S
V27     V46    9.478   .     S
V27     V3    11.426   1_554     S
V27     V29    8.839   .     S
V27     V28    8.839   .     S
V28     V6    9.478   1_554     S
V28     V36    9.478   1_565     S
V28     V44    11.426   .     S
V28     V30    10.97   .     S
V28     V29    10.97   .     S
V29     V5    9.478   1_554     S
V29     V48    9.478   1_655     S
V29     V32    11.426   .     S
V29     V30    10.97   .     S
V30     V31    9.478   1_565     S
V30     V43    9.478   1_655     S
V31     V30    9.478   1_545     S
V31     V37    9.478   1_655     S
V31     V36    10.97   .     S
V31     V32    10.97   .     S
V31     V34    8.839   .     S
V31     V33    8.839   .     S
V32     V12    9.478   1_554     S
V32     V38    9.478   1_655     S
V32     V36    10.97   .     S
V32     V35    8.839   .     S
V32     V33    8.839   .     S
V33     V39    11.426   1_655     S
V33     V35    10.97   .     S
V33     V34    10.97   .     S
V34     V42    9.478   .     S
V34     V26    11.426   1_545     S
V34     V35    10.97   .     S
V34     V36    8.839   .     S
V35     V41    9.478   .     S
V35     V8    11.426   1_554     S
V35     V36    8.839   .     S
V36     V11    9.478   1_554     S
V36     V28    9.478   1_545     S
V36     V40    11.426   .     S
V37     V31    9.478   1_455     S
V37     V43    9.478   1_545     S
V37     V40    10.97   .     S
V37     V38    10.97   .     S
V37     V42    8.839   .     S
V37     V39    8.839   .     S
V38     V20    9.478   1_554     S
V38     V32    9.478   1_455     S
V38     V48    11.426   .     S
V38     V40    10.97   .     S
V38     V41    8.839   .     S
V38     V39    8.839   .     S
V39     V47    9.478   .     S
V39     V33    11.426   1_455     S
V39     V41    10.97   .     S
V39     V42    10.97   .     S
V40     V19    9.478   1_554     S
V40     V44    9.478   1_545     S
V40     V42    8.839   .     S
V40     V41    8.839   .     S
V41     V46    9.478   .     S
V41     V21    11.426   1_554     S
V41     V42    10.97   .     S
V42     V45    11.426   1_545     S
V43     V30    9.478   1_455     S
V43     V37    9.478   1_565     S
V43     V48    10.97   .     S
V43     V44    10.97   .     S
V43     V47    8.839   .     S
V43     V45    8.839   .     S
V44     V18    9.478   1_554     S
V44     V40    9.478   1_565     S
V44     V48    10.97   .     S
V44     V46    8.839   .     S
V44     V45    8.839   .     S
V45     V42    11.426   1_565     S
V45     V46    10.97   .     S
V45     V47    10.97   .     S
V46     V15    11.426   1_554     S
V46     V47    10.97   .     S
V46     V48    8.839   .     S
V47     V25    11.426   1_455     S
V47     V48    8.839   .     S
V48     V17    9.478   1_554     S
V48     V29    9.478   1_455     S
