data_odf
_audit_creation_date              2020-02-04
_audit_creation_method            'Pymatgen'
_symmetry_space_group_name_H-M    'P1'
_symmetry_Int_Tables_number       1
loop_
_symmetry_equiv_pos_as_xyz
  x,y,z
_cell_length_a                    75.9161
_cell_length_b                    75.9161
_cell_length_c                    75.9161
_cell_angle_alpha                 90.0
_cell_angle_beta                 90.0
_cell_angle_gamma                 90.0
loop_
_atom_site_label
_atom_site_type_symbol
_atom_site_fract_x
_atom_site_fract_y
_atom_site_fract_z
Ti1     Ti     0.6795   0.6795   0.6795
Ti2     Ti     0.8205   0.8205   0.8205
Ti3     Ti     0.3205   0.3205   0.3205
Ti4     Ti     0.6795   0.3205   0.6795
Ti5     Ti     0.3205   0.6795   0.6795
Ti6     Ti     0.6795   0.6795   0.3205
Ti7     Ti     0.3205   0.3205   0.6795
Ti8     Ti     0.3205   0.6795   0.3205
Ti9     Ti     0.6795   0.3205   0.3205
Ti10     Ti     0.1795   0.1795   0.1795
Ti11     Ti     0.1795   0.1795   0.8205
Ti12     Ti     0.1795   0.8205   0.1795
Ti13     Ti     0.8205   0.1795   0.1795
Ti14     Ti     0.8205   0.1795   0.8205
Ti15     Ti     0.1795   0.8205   0.8205
Ti16     Ti     0.8205   0.8205   0.1795
He17     He     0.3966   0.3966   0.3966
He18     He     0.1034   0.1034   0.1034
He19     He     0.6034   0.6034   0.6034
He20     He     0.8966   0.8966   0.8966
He21     He     0.1034   0.8966   0.1034
He22     He     0.8966   0.1034   0.1034
He23     He     0.1034   0.1034   0.8966
He24     He     0.8966   0.1034   0.8966
He25     He     0.1034   0.8966   0.8966
He26     He     0.8966   0.8966   0.1034
He27     He     0.3966   0.6034   0.3966
He28     He     0.6034   0.3966   0.3966
He29     He     0.3966   0.3966   0.6034
He30     He     0.6034   0.3966   0.6034
He31     He     0.3966   0.6034   0.6034
He32     He     0.6034   0.6034   0.3966
V33     V     0.5659   0.6758   0.5
V34     V     0.4341   0.6758   0.5
V35     V     0.6758   0.5   0.5659
V36     V     0.6758   0.5   0.4341
V37     V     0.5   0.5659   0.6758
V38     V     0.5   0.4341   0.6758
V39     V     0.9341   0.8242   0.0
V40     V     0.0659   0.8242   0.0
V41     V     0.8242   0.0   0.9341
V42     V     0.8242   0.0   0.0659
V43     V     0.0   0.9341   0.8242
V44     V     0.0   0.0659   0.8242
V45     V     0.5659   0.3242   0.5
V46     V     0.4341   0.3242   0.5
V47     V     0.3242   0.5   0.5659
V48     V     0.3242   0.5   0.4341
V49     V     0.5   0.5659   0.3242
V50     V     0.5   0.4341   0.3242
V51     V     0.0659   0.1758   0.0
V52     V     0.9341   0.1758   0.0
V53     V     0.1758   0.0   0.0659
V54     V     0.1758   0.0   0.9341
H55     H     0.629   0.183   0.0983
H56     H     0.629   0.183   0.9017
H57     H     0.371   0.183   0.0983
Li58     Li     0.5659   0.1223   0.0
Li59     Li     0.4341   0.1223   0.0
H60     H     0.371   0.183   0.9017
Be61     Be     0.2979   0.2877   0.9341
Be62     Be     0.2979   0.2877   0.0659
Er63     Er     0.8261   0.2914   0.8898
Er64     Er     0.8261   0.2914   0.1102
Er65     Er     0.1739   0.2914   0.8898
Er66     Er     0.1739   0.2914   0.1102
S67     S     0.0   0.3851   0.0
Ce68     Ce     0.1025   0.3024   0.0
Ce69     Ce     0.8975   0.3024   0.0
Be70     Be     0.7021   0.2877   0.0659
Be71     Be     0.7021   0.2877   0.9341
H72     H     0.5983   0.871   0.317
H73     H     0.5983   0.129   0.317
H74     H     0.4017   0.871   0.317
Li75     Li     0.5   0.9341   0.3777
Li76     Li     0.5   0.0659   0.3777
H77     H     0.4017   0.129   0.317
Be78     Be     0.4341   0.2021   0.2123
Be79     Be     0.5659   0.2021   0.2123
Er80     Er     0.6102   0.6739   0.2086
Er81     Er     0.3898   0.3261   0.2086
Er82     Er     0.6102   0.3261   0.2086
S83     S     0.5   0.5   0.1149
Ce84     Ce     0.5   0.6025   0.1976
Ce85     Ce     0.5   0.3975   0.1976
Er86     Er     0.3898   0.6739   0.2086
Be87     Be     0.4341   0.7979   0.2123
Be88     Be     0.5659   0.7979   0.2123
H89     H     0.817   0.0983   0.629
H90     H     0.817   0.9017   0.629
H91     H     0.817   0.0983   0.371
Li92     Li     0.8777   0.0   0.5659
Li93     Li     0.8777   0.0   0.4341
H94     H     0.817   0.9017   0.371
Be95     Be     0.7123   0.0659   0.2979
Be96     Be     0.7123   0.9341   0.2979
Er97     Er     0.7086   0.8898   0.8261
Er98     Er     0.7086   0.1102   0.8261
Er99     Er     0.7086   0.1102   0.1739
Er100     Er     0.7086   0.8898   0.1739
Ce101     Ce     0.6976   0.0   0.1025
S102     S     0.6149   0.0   0.0
Ce103     Ce     0.6976   0.0   0.8975
Be104     Be     0.7123   0.0659   0.7021
Be105     Be     0.7123   0.9341   0.7021
H106     H     0.5983   0.871   0.683
H107     H     0.5983   0.129   0.683
H108     H     0.4017   0.871   0.683
Li109     Li     0.5   0.9341   0.6223
Li110     Li     0.5   0.0659   0.6223
H111     H     0.4017   0.129   0.683
Be112     Be     0.5659   0.2021   0.7877
Be113     Be     0.4341   0.2021   0.7877
Er114     Er     0.6102   0.3261   0.7914
Er115     Er     0.3898   0.6739   0.7914
Er116     Er     0.3898   0.3261   0.7914
S117     S     0.5   0.5   0.8851
Ce118     Ce     0.5   0.6025   0.8024
Ce119     Ce     0.5   0.3975   0.8024
Er120     Er     0.6102   0.6739   0.7914
Be121     Be     0.4341   0.7979   0.7877
Be122     Be     0.5659   0.7979   0.7877
H123     H     0.183   0.0983   0.629
H124     H     0.183   0.9017   0.629
H125     H     0.183   0.0983   0.371
Li126     Li     0.1223   0.0   0.5659
Li127     Li     0.1223   0.0   0.4341
H128     H     0.183   0.9017   0.371
Be129     Be     0.2877   0.9341   0.2979
Be130     Be     0.2877   0.0659   0.2979
Er131     Er     0.2914   0.8898   0.8261
Er132     Er     0.2914   0.1102   0.8261
Er133     Er     0.2914   0.8898   0.1739
Er134     Er     0.2914   0.1102   0.1739
S135     S     0.3851   0.0   0.0
Ce136     Ce     0.3024   0.0   0.1025
Ce137     Ce     0.3024   0.0   0.8975
Be138     Be     0.2877   0.0659   0.7021
Be139     Be     0.2877   0.9341   0.7021
H140     H     0.871   0.317   0.5983
H141     H     0.129   0.317   0.5983
H142     H     0.871   0.317   0.4017
Li143     Li     0.9341   0.3777   0.5
Li144     Li     0.0659   0.3777   0.5
H145     H     0.129   0.317   0.4017
Be146     Be     0.2021   0.2123   0.4341
Be147     Be     0.2021   0.2123   0.5659
Er148     Er     0.6739   0.2086   0.6102
Er149     Er     0.3261   0.2086   0.3898
Er150     Er     0.3261   0.2086   0.6102
S151     S     0.5   0.1149   0.5
Ce152     Ce     0.6025   0.1976   0.5
Ce153     Ce     0.3975   0.1976   0.5
Er154     Er     0.6739   0.2086   0.3898
Be155     Be     0.7979   0.2123   0.4341
Be156     Be     0.7979   0.2123   0.5659
H157     H     0.0983   0.629   0.817
H158     H     0.9017   0.629   0.817
H159     H     0.0983   0.371   0.817
Li160     Li     0.0   0.5659   0.8777
Li161     Li     0.0   0.4341   0.8777
H162     H     0.9017   0.371   0.817
Be163     Be     0.0659   0.2979   0.7123
Be164     Be     0.9341   0.2979   0.7123
Er165     Er     0.8898   0.8261   0.7086
Er166     Er     0.1102   0.8261   0.7086
Er167     Er     0.1102   0.1739   0.7086
Er168     Er     0.8898   0.1739   0.7086
Ce169     Ce     0.0   0.1025   0.6976
S170     S     0.0   0.0   0.6149
Ce171     Ce     0.0   0.8975   0.6976
Be172     Be     0.9341   0.7021   0.7123
Be173     Be     0.0659   0.7021   0.7123
H174     H     0.871   0.683   0.5983
H175     H     0.129   0.683   0.5983
H176     H     0.871   0.683   0.4017
Li177     Li     0.9341   0.6223   0.5
Li178     Li     0.0659   0.6223   0.5
H179     H     0.129   0.683   0.4017
Be180     Be     0.2021   0.7877   0.5659
Be181     Be     0.2021   0.7877   0.4341
Er182     Er     0.6739   0.7914   0.3898
Er183     Er     0.3261   0.7914   0.6102
Er184     Er     0.3261   0.7914   0.3898
S185     S     0.5   0.8851   0.5
Ce186     Ce     0.6025   0.8024   0.5
Ce187     Ce     0.3975   0.8024   0.5
Er188     Er     0.6739   0.7914   0.6102
Be189     Be     0.7979   0.7877   0.4341
Be190     Be     0.7979   0.7877   0.5659
H191     H     0.0983   0.629   0.183
H192     H     0.9017   0.629   0.183
H193     H     0.0983   0.371   0.183
Li194     Li     0.0   0.5659   0.1223
Li195     Li     0.0   0.4341   0.1223
H196     H     0.9017   0.371   0.183
Be197     Be     0.9341   0.2979   0.2877
Be198     Be     0.0659   0.2979   0.2877
Er199     Er     0.8898   0.8261   0.2914
Er200     Er     0.1102   0.8261   0.2914
Er201     Er     0.8898   0.1739   0.2914
Er202     Er     0.1102   0.1739   0.2914
S203     S     0.0   0.0   0.3851
Ce204     Ce     0.0   0.1025   0.3024
Ce205     Ce     0.0   0.8975   0.3024
Be206     Be     0.9341   0.7021   0.2877
Be207     Be     0.0659   0.7021   0.2877
H208     H     0.317   0.5983   0.871
H209     H     0.317   0.5983   0.129
H210     H     0.317   0.4017   0.871
Li211     Li     0.3777   0.5   0.9341
Li212     Li     0.3777   0.5   0.0659
H213     H     0.317   0.4017   0.129
Be214     Be     0.2123   0.4341   0.2021
Be215     Be     0.2123   0.5659   0.2021
Er216     Er     0.2086   0.6102   0.6739
Er217     Er     0.2086   0.3898   0.3261
Er218     Er     0.2086   0.6102   0.3261
S219     S     0.1149   0.5   0.5
Ce220     Ce     0.1976   0.5   0.6025
Ce221     Ce     0.1976   0.5   0.3975
Er222     Er     0.2086   0.3898   0.6739
Be223     Be     0.2123   0.4341   0.7979
Be224     Be     0.2123   0.5659   0.7979
H225     H     0.629   0.817   0.0983
H226     H     0.629   0.817   0.9017
H227     H     0.371   0.817   0.0983
Li228     Li     0.5659   0.8777   0.0
Li229     Li     0.4341   0.8777   0.0
H230     H     0.371   0.817   0.9017
Be231     Be     0.2979   0.7123   0.0659
Be232     Be     0.2979   0.7123   0.9341
Er233     Er     0.8261   0.7086   0.8898
Er234     Er     0.8261   0.7086   0.1102
Er235     Er     0.1739   0.7086   0.8898
Er236     Er     0.1739   0.7086   0.1102
Ce237     Ce     0.1025   0.6976   0.0
S238     S     0.0   0.6149   0.0
Ce239     Ce     0.8975   0.6976   0.0
Be240     Be     0.7021   0.7123   0.0659
Be241     Be     0.7021   0.7123   0.9341
H242     H     0.683   0.5983   0.871
H243     H     0.683   0.5983   0.129
H244     H     0.683   0.4017   0.871
Li245     Li     0.6223   0.5   0.9341
Li246     Li     0.6223   0.5   0.0659
H247     H     0.683   0.4017   0.129
Be248     Be     0.7877   0.4341   0.2021
Be249     Be     0.7877   0.5659   0.2021
Er250     Er     0.7914   0.3898   0.6739
Er251     Er     0.7914   0.6102   0.3261
Er252     Er     0.7914   0.6102   0.6739
S253     S     0.8851   0.5   0.5
Ce254     Ce     0.8024   0.5   0.3975
Ce255     Ce     0.8024   0.5   0.6025
Er256     Er     0.7914   0.3898   0.3261
Be257     Be     0.7877   0.4341   0.7979
Be258     Be     0.7877   0.5659   0.7979
V259     V     0.0   0.9341   0.1758
V260     V     0.0   0.0659   0.1758
loop_
_geom_bond_atom_site_label_1
_geom_bond_atom_site_label_2
_geom_bond_distance
_geom_bond_site_symmetry_2
_ccdc_geom_bond_type
Ti1     Er120    10.0   .     S
Ti1     Er252    10.0   .     S
Ti1     Er188    10.0   .     S
Ti1     He19    10.0   .     S
Ti2     Er165    10.0   .     S
Ti2     Er97    10.0   .     S
Ti2     Er233    10.0   .     S
Ti2     He20    10.0   .     S
Ti3     Er81    10.0   .     S
Ti3     Er217    10.0   .     S
Ti3     Er149    10.0   .     S
Ti3     He17    10.0   .     S
Ti4     Er114    10.0   .     S
Ti4     Er250    10.0   .     S
Ti4     Er148    10.0   .     S
Ti4     He30    10.0   .     S
Ti5     Er115    10.0   .     S
Ti5     Er183    10.0   .     S
Ti5     Er216    10.0   .     S
Ti5     He31    10.0   .     S
Ti6     Er251    10.0   .     S
Ti6     Er182    10.0   .     S
Ti6     Er80    10.0   .     S
Ti6     He32    10.0   .     S
Ti7     Er116    10.0   .     S
Ti7     Er150    10.0   .     S
Ti7     Er222    10.0   .     S
Ti7     He29    10.0   .     S
Ti8     Er184    10.0   .     S
Ti8     Er218    10.0   .     S
Ti8     Er86    10.0   .     S
Ti8     He27    10.0   .     S
Ti9     Er256    10.0   .     S
Ti9     Er82    10.0   .     S
Ti9     Er154    10.0   .     S
Ti9     He28    10.0   .     S
Ti10     Er202    10.0   .     S
Ti10     Er134    10.0   .     S
Ti10     Er66    10.0   .     S
Ti10     He18    10.0   .     S
Ti11     Er167    10.0   .     S
Ti11     Er65    10.0   .     S
Ti11     Er132    10.0   .     S
Ti11     He23    10.0   .     S
Ti12     Er236    10.0   .     S
Ti12     Er133    10.0   .     S
Ti12     Er200    10.0   .     S
Ti12     He21    10.0   .     S
Ti13     Er99    10.0   .     S
Ti13     Er201    10.0   .     S
Ti13     Er64    10.0   .     S
Ti13     He22    10.0   .     S
Ti14     Er168    10.0   .     S
Ti14     Er98    10.0   .     S
Ti14     Er63    10.0   .     S
Ti14     He24    10.0   .     S
Ti15     Er235    10.0   .     S
Ti15     Er166    10.0   .     S
Ti15     Er131    10.0   .     S
Ti15     He25    10.0   .     S
Ti16     Er100    10.0   .     S
Ti16     Er234    10.0   .     S
Ti16     Er199    10.0   .     S
Ti16     He26    10.0   .     S
He17     V46    10.0   .     S
He17     V48    10.0   .     S
He17     V50    10.0   .     S
He18     V51    10.0   .     S
He18     V53    10.0   .     S
He18     V260    10.0   .     S
He19     V33    10.0   .     S
He19     V35    10.0   .     S
He19     V37    10.0   .     S
He20     V39    10.0   1_556     S
He20     V41    10.0   1_565     S
He20     V43    10.0   1_655     S
He21     V40    10.0   .     S
He21     V53    10.0   1_565     S
He21     V259    10.0   .     S
He22     V42    10.0   .     S
He22     V52    10.0   .     S
He22     V260    10.0   1_655     S
He23     V44    10.0   .     S
He23     V51    10.0   1_556     S
He23     V54    10.0   .     S
He24     V41    10.0   .     S
He24     V44    10.0   1_655     S
He24     V52    10.0   1_556     S
He25     V40    10.0   1_556     S
He25     V43    10.0   .     S
He25     V54    10.0   1_565     S
He26     V39    10.0   .     S
He26     V42    10.0   1_565     S
He26     V259    10.0   1_655     S
He27     V34    10.0   .     S
He27     V48    10.0   .     S
He27     V49    10.0   .     S
He28     V36    10.0   .     S
He28     V45    10.0   .     S
He28     V50    10.0   .     S
He29     V38    10.0   .     S
He29     V46    10.0   .     S
He29     V47    10.0   .     S
He30     V35    10.0   .     S
He30     V38    10.0   .     S
He30     V45    10.0   .     S
He31     V34    10.0   .     S
He31     V37    10.0   .     S
He31     V47    10.0   .     S
He32     V33    10.0   .     S
He32     V36    10.0   .     S
He32     V49    10.0   .     S
V33     V34    10.0   .     S
V33     Ce186    10.001   .     S
V34     Ce187    10.001   .     S
V35     V36    10.0   .     S
V35     Ce255    10.001   .     S
V36     Ce254    10.001   .     S
V37     V38    10.0   .     S
V37     Ce118    10.001   .     S
V38     Ce119    10.001   .     S
V39     He20    10.0   1_554     S
V39     V40    10.0   1_655     S
V39     Ce239    10.001   .     S
V40     He25    10.0   1_554     S
V40     V39    10.0   1_455     S
V40     Ce237    10.001   .     S
V41     He20    10.0   1_545     S
V41     V42    10.0   1_556     S
V41     Ce103    10.001   .     S
V42     He26    10.0   1_545     S
V42     V41    10.0   1_554     S
V42     Ce101    10.001   .     S
V43     He20    10.0   1_455     S
V43     V44    10.0   1_565     S
V43     Ce171    10.001   .     S
V44     He24    10.0   1_455     S
V44     V43    10.0   1_545     S
V44     Ce169    10.001   .     S
V45     V46    10.0   .     S
V45     Ce152    10.001   .     S
V46     Ce153    10.001   .     S
V47     V48    10.0   .     S
V47     Ce220    10.001   .     S
V48     Ce221    10.001   .     S
V49     V50    10.0   .     S
V49     Ce84    10.001   .     S
V50     Ce85    10.001   .     S
V51     He23    10.0   1_554     S
V51     V52    10.0   1_455     S
V51     Ce68    10.001   .     S
V52     He24    10.0   1_554     S
V52     V51    10.0   1_655     S
V52     Ce69    10.001   .     S
V53     He21    10.0   1_545     S
V53     V54    10.0   1_554     S
V53     Ce136    10.001   .     S
V54     He25    10.0   1_545     S
V54     V53    10.0   1_556     S
V54     Ce137    10.001   .     S
H55     Li58    10.0   .     S
H55     Be70    10.0   .     S
H55     Be79    10.0   .     S
H55     Er99    10.0   .     S
H56     Li58    10.0   1_556     S
H56     Be71    10.0   .     S
H56     Er98    10.0   .     S
H56     Be112    10.0   .     S
H57     Li59    10.0   .     S
H57     Be62    10.0   .     S
H57     Be78    10.0   .     S
H57     Er134    10.0   .     S
Li58     H56    10.0   1_554     S
Li58     Li59    10.0   .     S
Li58     S102    10.0   .     S
Li59     H60    10.0   1_554     S
Li59     S135    10.0   .     S
H60     Li59    10.0   1_556     S
H60     Be61    10.0   .     S
H60     Be113    10.0   .     S
H60     Er132    10.0   .     S
Be61     H210    10.0   .     S
Be61     Be62    10.0   1_556     S
Be61     Er65    10.0   .     S
Be62     H213    10.0   .     S
Be62     Be61    10.0   1_554     S
Be62     Er66    10.0   .     S
Er63     H162    10.0   .     S
Er63     Ce69    10.0   1_556     S
Er63     Be71    10.0   .     S
Er64     H196    10.0   .     S
Er64     Ce69    10.0   .     S
Er64     Be70    10.0   .     S
Er65     H159    10.0   .     S
Er65     Ce68    10.0   1_556     S
Er66     H193    10.0   .     S
Er66     Ce68    10.0   .     S
S67     Li195    10.0   .     S
S67     Li161    10.0   1_554     S
S67     Ce69    10.0   1_455     S
S67     Ce68    10.0   .     S
Ce68     Er65    10.0   1_554     S
Ce69     S67    10.0   1_655     S
Ce69     Er63    10.0   1_554     S
Be70     H247    10.0   .     S
Be70     Be71    10.0   1_554     S
Be71     H244    10.0   .     S
Be71     Be70    10.0   1_556     S
H72     Li75    10.0   .     S
H72     Be88    10.0   .     S
H72     Be96    10.0   .     S
H72     Er182    10.0   .     S
H73     Li76    10.0   .     S
H73     Be79    10.0   .     S
H73     Be95    10.0   .     S
H73     Er154    10.0   .     S
H74     Li75    10.0   .     S
H74     Be87    10.0   .     S
H74     Be129    10.0   .     S
H74     Er184    10.0   .     S
Li75     Li76    10.0   1_565     S
Li75     S185    10.0   .     S
Li76     Li75    10.0   1_545     S
Li76     H77    10.0   .     S
Li76     S151    10.0   .     S
H77     Be78    10.0   .     S
H77     Be130    10.0   .     S
H77     Er149    10.0   .     S
Be78     Be79    10.0   .     S
Be78     Er81    10.0   .     S
Be79     Er82    10.0   .     S
Er80     H243    10.0   .     S
Er80     Ce84    10.0   .     S
Er80     Be88    10.0   .     S
Er81     H213    10.0   .     S
Er81     Ce85    10.0   .     S
Er82     H247    10.0   .     S
Er82     Ce85    10.0   .     S
S83     Li246    10.0   .     S
S83     Li212    10.0   .     S
S83     Ce84    10.0   .     S
S83     Ce85    10.0   .     S
Ce84     Er86    10.0   .     S
Er86     H209    10.0   .     S
Er86     Be87    10.0   .     S
Be87     H227    10.0   .     S
Be87     Be88    10.0   .     S
Be88     H225    10.0   .     S
H89     Li92    10.0   .     S
H89     Be104    10.0   .     S
H89     Be156    10.0   .     S
H89     Er168    10.0   .     S
H90     Li92    10.0   1_565     S
H90     Be105    10.0   .     S
H90     Er165    10.0   .     S
H90     Be190    10.0   .     S
H91     Li93    10.0   .     S
H91     Be95    10.0   .     S
H91     Be155    10.0   .     S
H91     Er201    10.0   .     S
Li92     H90    10.0   1_545     S
Li92     Li93    10.0   .     S
Li92     S170    10.0   1_655     S
Li93     H94    10.0   1_545     S
Li93     S203    10.0   1_655     S
H94     Li93    10.0   1_565     S
H94     Be96    10.0   .     S
H94     Be189    10.0   .     S
H94     Er199    10.0   .     S
Be95     Be96    10.0   1_545     S
Be95     Er99    10.0   .     S
Be96     Be95    10.0   1_565     S
Be96     Er100    10.0   .     S
Er97     H226    10.0   .     S
Er97     Ce103    10.0   1_565     S
Er97     Be105    10.0   .     S
Er98     Ce103    10.0   .     S
Er98     Be104    10.0   .     S
Er99     Ce101    10.0   .     S
Er100     H225    10.0   .     S
Er100     Ce101    10.0   1_565     S
Ce101     S102    10.0   .     S
Ce101     Er100    10.0   1_545     S
S102     Li228    10.0   1_545     S
S102     Ce103    10.0   1_554     S
Ce103     S102    10.0   1_556     S
Ce103     Er97    10.0   1_545     S
Be104     H107    10.0   .     S
Be104     Be105    10.0   1_545     S
Be105     H106    10.0   .     S
Be105     Be104    10.0   1_565     S
H106     Li109    10.0   .     S
H106     Be122    10.0   .     S
H106     Er188    10.0   .     S
H107     Li110    10.0   .     S
H107     Be112    10.0   .     S
H107     Er148    10.0   .     S
H108     Li109    10.0   .     S
H108     Be121    10.0   .     S
H108     Be139    10.0   .     S
H108     Er183    10.0   .     S
Li109     Li110    10.0   1_565     S
Li109     S185    10.0   .     S
Li110     Li109    10.0   1_545     S
Li110     H111    10.0   .     S
Li110     S151    10.0   .     S
H111     Be113    10.0   .     S
H111     Be138    10.0   .     S
H111     Er150    10.0   .     S
Be112     Be113    10.0   .     S
Be112     Er114    10.0   .     S
Be113     Er116    10.0   .     S
Er114     H244    10.0   .     S
Er114     Ce119    10.0   .     S
Er115     H208    10.0   .     S
Er115     Ce118    10.0   .     S
Er115     Be121    10.0   .     S
Er116     H210    10.0   .     S
Er116     Ce119    10.0   .     S
S117     Li245    10.0   .     S
S117     Li211    10.0   .     S
S117     Ce118    10.0   .     S
S117     Ce119    10.0   .     S
Ce118     Er120    10.0   .     S
Er120     H242    10.0   .     S
Er120     Be122    10.0   .     S
Be121     H230    10.0   .     S
Be121     Be122    10.0   .     S
Be122     H226    10.0   .     S
H123     Li126    10.0   .     S
H123     Be138    10.0   .     S
H123     Be147    10.0   .     S
H123     Er167    10.0   .     S
H124     Li126    10.0   1_565     S
H124     Be139    10.0   .     S
H124     Er166    10.0   .     S
H124     Be180    10.0   .     S
H125     Li127    10.0   .     S
H125     Be130    10.0   .     S
H125     Be146    10.0   .     S
H125     Er202    10.0   .     S
Li126     H124    10.0   1_545     S
Li126     Li127    10.0   .     S
Li126     S170    10.0   .     S
Li127     H128    10.0   1_545     S
Li127     S203    10.0   .     S
H128     Li127    10.0   1_565     S
H128     Be129    10.0   .     S
H128     Be181    10.0   .     S
H128     Er200    10.0   .     S
Be129     Be130    10.0   1_565     S
Be129     Er133    10.0   .     S
Be130     Be129    10.0   1_545     S
Be130     Er134    10.0   .     S
Er131     H230    10.0   .     S
Er131     Ce137    10.0   1_565     S
Er131     Be139    10.0   .     S
Er132     Ce137    10.0   .     S
Er132     Be138    10.0   .     S
Er133     H227    10.0   .     S
Er133     Ce136    10.0   1_565     S
Er134     Ce136    10.0   .     S
S135     Li229    10.0   1_545     S
S135     Ce137    10.0   1_554     S
S135     Ce136    10.0   .     S
Ce136     Er133    10.0   1_545     S
Ce137     S135    10.0   1_556     S
Ce137     Er131    10.0   1_545     S
Be138     Be139    10.0   1_545     S
Be139     Be138    10.0   1_565     S
H140     Li143    10.0   .     S
H140     Be156    10.0   .     S
H140     Be164    10.0   .     S
H140     Er250    10.0   .     S
H141     Li144    10.0   .     S
H141     Be147    10.0   .     S
H141     Be163    10.0   .     S
H141     Er222    10.0   .     S
H142     Li143    10.0   .     S
H142     Be155    10.0   .     S
H142     Be197    10.0   .     S
H142     Er256    10.0   .     S
Li143     Li144    10.0   1_655     S
Li143     S253    10.0   .     S
Li144     Li143    10.0   1_455     S
Li144     H145    10.0   .     S
Li144     S219    10.0   .     S
H145     Be146    10.0   .     S
H145     Be198    10.0   .     S
H145     Er217    10.0   .     S
Be146     Be147    10.0   .     S
Be146     Er149    10.0   .     S
Be147     Er150    10.0   .     S
Er148     Ce152    10.0   .     S
Er148     Be156    10.0   .     S
Er149     Ce153    10.0   .     S
Er150     Ce153    10.0   .     S
S151     Ce152    10.0   .     S
S151     Ce153    10.0   .     S
Ce152     Er154    10.0   .     S
Er154     Be155    10.0   .     S
Be155     Be156    10.0   .     S
H157     Li160    10.0   .     S
H157     Be173    10.0   .     S
H157     Be224    10.0   .     S
H157     Er235    10.0   .     S
H158     Li160    10.0   1_655     S
H158     Be172    10.0   .     S
H158     Er233    10.0   .     S
H158     Be258    10.0   .     S
H159     Li161    10.0   .     S
H159     Be163    10.0   .     S
H159     Be223    10.0   .     S
Li160     H158    10.0   1_455     S
Li160     Li161    10.0   .     S
Li160     S238    10.0   1_556     S
Li161     S67    10.0   1_556     S
Li161     H162    10.0   1_455     S
H162     Li161    10.0   1_655     S
H162     Be164    10.0   .     S
H162     Be257    10.0   .     S
Be163     Be164    10.0   1_455     S
Be163     Er167    10.0   .     S
Be164     Be163    10.0   1_655     S
Be164     Er168    10.0   .     S
Er165     Ce171    10.0   1_655     S
Er165     Be172    10.0   .     S
Er166     Ce171    10.0   .     S
Er166     Be173    10.0   .     S
Er167     Ce169    10.0   .     S
Er168     Ce169    10.0   1_655     S
Ce169     S170    10.0   .     S
Ce169     Er168    10.0   1_455     S
S170     Li92    10.0   1_455     S
S170     Ce171    10.0   1_545     S
Ce171     S170    10.0   1_565     S
Ce171     Er165    10.0   1_455     S
Be172     H174    10.0   .     S
Be172     Be173    10.0   1_655     S
Be173     H175    10.0   .     S
Be173     Be172    10.0   1_455     S
H174     Li177    10.0   .     S
H174     Be190    10.0   .     S
H174     Er252    10.0   .     S
H175     Li178    10.0   .     S
H175     Be180    10.0   .     S
H175     Er216    10.0   .     S
H176     Li177    10.0   .     S
H176     Be189    10.0   .     S
H176     Be206    10.0   .     S
H176     Er251    10.0   .     S
Li177     Li178    10.0   1_655     S
Li177     S253    10.0   .     S
Li178     Li177    10.0   1_455     S
Li178     H179    10.0   .     S
Li178     S219    10.0   .     S
H179     Be181    10.0   .     S
H179     Be207    10.0   .     S
H179     Er218    10.0   .     S
Be180     Be181    10.0   .     S
Be180     Er183    10.0   .     S
Be181     Er184    10.0   .     S
Er182     Ce186    10.0   .     S
Er182     Be189    10.0   .     S
Er183     Ce187    10.0   .     S
Er184     Ce187    10.0   .     S
S185     Ce186    10.0   .     S
S185     Ce187    10.0   .     S
Ce186     Er188    10.0   .     S
Er188     Be190    10.0   .     S
Be189     Be190    10.0   .     S
H191     Li194    10.0   .     S
H191     Be207    10.0   .     S
H191     Be215    10.0   .     S
H191     Er236    10.0   .     S
H192     Li194    10.0   1_655     S
H192     Be206    10.0   .     S
H192     Er234    10.0   .     S
H192     Be249    10.0   .     S
H193     Li195    10.0   .     S
H193     Be198    10.0   .     S
H193     Be214    10.0   .     S
Li194     H192    10.0   1_455     S
Li194     Li195    10.0   .     S
Li194     S238    10.0   .     S
Li195     H196    10.0   1_455     S
H196     Li195    10.0   1_655     S
H196     Be197    10.0   .     S
H196     Be248    10.0   .     S
Be197     Be198    10.0   1_655     S
Be197     Er201    10.0   .     S
Be198     Be197    10.0   1_455     S
Be198     Er202    10.0   .     S
Er199     Ce205    10.0   1_655     S
Er199     Be206    10.0   .     S
Er200     Ce205    10.0   .     S
Er200     Be207    10.0   .     S
Er201     Ce204    10.0   1_655     S
Er202     Ce204    10.0   .     S
S203     Li93    10.0   1_455     S
S203     Ce205    10.0   1_545     S
S203     Ce204    10.0   .     S
Ce204     Er201    10.0   1_455     S
Ce204     V260    10.001   .     S
Ce205     S203    10.0   1_565     S
Ce205     Er199    10.0   1_455     S
Ce205     V259    10.001   .     S
Be206     Be207    10.0   1_655     S
Be207     Be206    10.0   1_455     S
H208     Li211    10.0   .     S
H208     Be224    10.0   .     S
H208     Be232    10.0   .     S
H209     Li212    10.0   .     S
H209     Be215    10.0   .     S
H209     Be231    10.0   .     S
H210     Li211    10.0   .     S
H210     Be223    10.0   .     S
Li211     Li212    10.0   1_556     S
Li212     Li211    10.0   1_554     S
Li212     H213    10.0   .     S
H213     Be214    10.0   .     S
Be214     Be215    10.0   .     S
Be214     Er217    10.0   .     S
Be215     Er218    10.0   .     S
Er216     Ce220    10.0   .     S
Er216     Be224    10.0   .     S
Er217     Ce221    10.0   .     S
Er218     Ce221    10.0   .     S
S219     Ce220    10.0   .     S
S219     Ce221    10.0   .     S
Ce220     Er222    10.0   .     S
Er222     Be223    10.0   .     S
Be223     Be224    10.0   .     S
H225     Li228    10.0   .     S
H225     Be240    10.0   .     S
H226     Li228    10.0   1_556     S
H226     Be241    10.0   .     S
H227     Li229    10.0   .     S
H227     Be231    10.0   .     S
Li228     S102    10.0   1_565     S
Li228     H226    10.0   1_554     S
Li228     Li229    10.0   .     S
Li229     S135    10.0   1_565     S
Li229     H230    10.0   1_554     S
H230     Li229    10.0   1_556     S
H230     Be232    10.0   .     S
Be231     Be232    10.0   1_554     S
Be231     Er236    10.0   .     S
Be232     Be231    10.0   1_556     S
Be232     Er235    10.0   .     S
Er233     Ce239    10.0   1_556     S
Er233     Be241    10.0   .     S
Er234     Ce239    10.0   .     S
Er234     Be240    10.0   .     S
Er235     Ce237    10.0   1_556     S
Er236     Ce237    10.0   .     S
Ce237     S238    10.0   .     S
Ce237     Er235    10.0   1_554     S
S238     Li160    10.0   1_554     S
S238     Ce239    10.0   1_455     S
Ce239     S238    10.0   1_655     S
Ce239     Er233    10.0   1_554     S
Be240     H243    10.0   .     S
Be240     Be241    10.0   1_554     S
Be241     H242    10.0   .     S
Be241     Be240    10.0   1_556     S
H242     Li245    10.0   .     S
H242     Be258    10.0   .     S
H243     Li246    10.0   .     S
H243     Be249    10.0   .     S
H244     Li245    10.0   .     S
H244     Be257    10.0   .     S
Li245     Li246    10.0   1_556     S
Li246     Li245    10.0   1_554     S
Li246     H247    10.0   .     S
H247     Be248    10.0   .     S
Be248     Be249    10.0   .     S
Be248     Er256    10.0   .     S
Be249     Er251    10.0   .     S
Er250     Ce255    10.0   .     S
Er250     Be257    10.0   .     S
Er251     Ce254    10.0   .     S
Er252     Ce255    10.0   .     S
Er252     Be258    10.0   .     S
S253     Ce254    10.0   .     S
S253     Ce255    10.0   .     S
Ce254     Er256    10.0   .     S
Be257     Be258    10.0   .     S
V259     He26    10.0   1_455     S
V259     V260    10.0   1_565     S
V260     He22    10.0   1_455     S
V260     V259    10.0   1_545     S
