data_odg
_audit_creation_date              2020-02-04
_audit_creation_method            'Pymatgen'
_symmetry_space_group_name_H-M    'P1'
_symmetry_Int_Tables_number       1
loop_
_symmetry_equiv_pos_as_xyz
  x,y,z
_cell_length_a                    58.8798
_cell_length_b                    58.8798
_cell_length_c                    58.8798
_cell_angle_alpha                 90.0
_cell_angle_beta                 90.0
_cell_angle_gamma                 90.0
loop_
_atom_site_label
_atom_site_type_symbol
_atom_site_fract_x
_atom_site_fract_y
_atom_site_fract_z
B1     B     0.6861   0.1195   0.8805
B2     B     0.8805   0.6861   0.1195
B3     B     0.3139   0.8805   0.8805
B4     B     0.8805   0.3139   0.8805
B5     B     0.6861   0.8805   0.1195
B6     B     0.1195   0.6861   0.8805
B7     B     0.8805   0.1195   0.6861
B8     B     0.8805   0.8805   0.3139
B9     B     0.1195   0.8805   0.6861
B10     B     0.1195   0.1195   0.3139
B11     B     0.1195   0.3139   0.1195
B12     B     0.3139   0.1195   0.1195
Ce13     Ce     0.7809   0.2191   0.7809
Ce14     Ce     0.7809   0.7809   0.2191
Ce15     Ce     0.2191   0.7809   0.7809
Ce16     Ce     0.2191   0.2191   0.2191
He17     He     0.162   0.718   0.0419
He18     He     0.0419   0.718   0.162
He19     He     0.718   0.162   0.0419
He20     He     0.718   0.0419   0.162
He21     He     0.162   0.0419   0.718
He22     He     0.0419   0.162   0.718
He23     He     0.718   0.838   0.9581
He24     He     0.718   0.9581   0.838
He25     He     0.838   0.718   0.9581
He26     He     0.9581   0.718   0.838
He27     He     0.838   0.9581   0.718
He28     He     0.9581   0.838   0.718
He29     He     0.838   0.2821   0.0419
He30     He     0.9581   0.2821   0.162
He31     He     0.2821   0.838   0.0419
He32     He     0.2821   0.9581   0.162
He33     He     0.2821   0.0419   0.838
He34     He     0.2821   0.162   0.9581
He35     He     0.0419   0.2821   0.838
He36     He     0.162   0.2821   0.9581
He37     He     0.0419   0.838   0.2821
He38     He     0.162   0.9581   0.2821
He39     He     0.838   0.0419   0.2821
He40     He     0.9581   0.162   0.2821
V41     V     0.4628   0.8228   0.8228
V42     V     0.8228   0.4628   0.8228
V43     V     0.8228   0.8228   0.4628
V44     V     0.8228   0.5372   0.1772
V45     V     0.5372   0.8228   0.1772
V46     V     0.5372   0.1772   0.8228
V47     V     0.1772   0.5372   0.8228
V48     V     0.1772   0.8228   0.5372
V49     V     0.8228   0.1772   0.5372
V50     V     0.1772   0.1772   0.4628
V51     V     0.1772   0.4628   0.1772
V52     V     0.4628   0.1772   0.1772
Er53     Er     0.7651   0.5651   0.9455
Be54     Be     0.6029   0.6029   0.9124
Er55     Er     0.5651   0.7651   0.9455
Er56     Er     0.5651   0.2349   0.0545
Be57     Be     0.6029   0.3971   0.0876
Er58     Er     0.7651   0.4349   0.0545
Er59     Er     0.2349   0.5651   0.0545
Be60     Be     0.3971   0.6029   0.0876
Er61     Er     0.4349   0.7651   0.0545
Er62     Er     0.4349   0.2349   0.9455
Be63     Be     0.3971   0.3971   0.9124
Er64     Er     0.2349   0.4349   0.9455
Er65     Er     0.7651   0.9455   0.5651
Be66     Be     0.6029   0.9124   0.6029
Er67     Er     0.5651   0.9455   0.7651
Er68     Er     0.5651   0.0545   0.2349
Be69     Be     0.6029   0.0876   0.3971
Er70     Er     0.7651   0.0545   0.4349
Er71     Er     0.2349   0.0545   0.5651
Be72     Be     0.3971   0.0876   0.6029
Er73     Er     0.4349   0.0545   0.7651
Er74     Er     0.4349   0.9455   0.2349
Be75     Be     0.3971   0.9124   0.3971
Er76     Er     0.2349   0.9455   0.4349
Er77     Er     0.9455   0.7651   0.5651
Be78     Be     0.9124   0.6029   0.6029
Er79     Er     0.9455   0.5651   0.7651
Er80     Er     0.0545   0.5651   0.2349
Be81     Be     0.0876   0.6029   0.3971
Er82     Er     0.0545   0.7651   0.4349
Er83     Er     0.0545   0.2349   0.5651
Be84     Be     0.0876   0.3971   0.6029
Er85     Er     0.0545   0.4349   0.7651
Er86     Er     0.9455   0.4349   0.2349
Be87     Be     0.9124   0.3971   0.3971
Er88     Er     0.9455   0.2349   0.4349
Li89     Li     0.44   0.7537   0.4399
Li90     Li     0.44   0.5601   0.2463
S91     S     0.5155   0.7037   0.2963
S92     S     0.2963   0.7037   0.5155
Li93     Li     0.2463   0.56   0.4399
S94     S     0.2963   0.4844   0.2963
S95     S     0.2963   0.2963   0.4844
Li96     Li     0.2463   0.44   0.5601
S97     S     0.2963   0.5155   0.7037
Li98     Li     0.44   0.4399   0.7537
Li99     Li     0.44   0.2463   0.5601
S100     S     0.5155   0.2963   0.7037
Li101     Li     0.7537   0.44   0.4399
Li102     Li     0.5601   0.44   0.2463
S103     S     0.7037   0.5155   0.2963
S104     S     0.7037   0.2963   0.5155
Li105     Li     0.56   0.2463   0.4399
S106     S     0.4844   0.2963   0.2963
Ti107     Ti     0.3172   0.3172   0.3172
Ti108     Ti     0.6828   0.3172   0.6828
Ti109     Ti     0.3172   0.6828   0.6828
Ti110     Ti     0.6828   0.6828   0.3172
Li111     Li     0.7537   0.56   0.5601
S112     S     0.7037   0.4844   0.7037
S113     S     0.7037   0.7037   0.4844
Li114     Li     0.56   0.5601   0.7537
Li115     Li     0.56   0.7537   0.5601
S116     S     0.4844   0.7037   0.7037
H117     H     0.5   0.5   0.0
H118     H     0.0   0.5   0.5
H119     H     0.5   0.0   0.5
loop_
_geom_bond_atom_site_label_1
_geom_bond_atom_site_label_2
_geom_bond_distance
_geom_bond_site_symmetry_2
_ccdc_geom_bond_type
B1     V46    10.0   .     S
B1     Ce13    10.0   .     S
B1     He19    10.0   1_556     S
B1     He24    10.0   1_545     S
B2     V44    10.0   .     S
B2     Ce14    10.0   .     S
B2     He18    10.0   1_655     S
B2     He25    10.0   1_554     S
B3     V41    10.0   .     S
B3     Ce15    10.0   .     S
B3     He31    10.0   1_556     S
B3     He33    10.0   1_565     S
B4     V42    10.0   .     S
B4     Ce13    10.0   .     S
B4     He29    10.0   1_556     S
B4     He35    10.0   1_655     S
B5     V45    10.0   .     S
B5     Ce14    10.0   .     S
B5     He20    10.0   1_565     S
B5     He23    10.0   1_554     S
B6     V47    10.0   .     S
B6     Ce15    10.0   .     S
B6     He17    10.0   1_556     S
B6     He26    10.0   1_455     S
B7     V49    10.0   .     S
B7     Ce13    10.0   .     S
B7     He22    10.0   1_655     S
B7     He27    10.0   1_545     S
B8     V43    10.0   .     S
B8     Ce14    10.0   .     S
B8     He37    10.0   1_655     S
B8     He39    10.0   1_565     S
B9     V48    10.0   .     S
B9     Ce15    10.0   .     S
B9     He21    10.0   1_565     S
B9     He28    10.0   1_455     S
B10     V50    10.0   .     S
B10     Ce16    10.0   .     S
B10     He38    10.0   1_545     S
B10     He40    10.0   1_455     S
B11     V51    10.0   .     S
B11     Ce16    10.0   .     S
B11     He30    10.0   1_455     S
B11     He36    10.0   1_554     S
B12     V52    10.0   .     S
B12     Ce16    10.0   .     S
B12     He32    10.0   1_545     S
B12     He34    10.0   1_554     S
Ce13     Ti108    9.999   .     S
Ce14     Ti110    9.999   .     S
Ce15     Ti109    9.999   .     S
Ce16     Ti107    9.999   .     S
He17     B6    10.0   1_554     S
He17     He18    10.0   .     S
He17     Er59    10.0   .     S
He17     He31    10.001   .     S
He18     B2    10.0   1_455     S
He18     Er80    10.0   .     S
He18     He37    10.001   .     S
He19     B1    10.0   1_554     S
He19     He20    10.0   .     S
He19     Er56    10.0   .     S
He19     He29    10.001   .     S
He20     B5    10.0   1_545     S
He20     Er68    10.0   .     S
He20     He39    10.001   .     S
He21     B9    10.0   1_545     S
He21     He22    10.0   .     S
He21     Er71    10.0   .     S
He21     He33    10.001   .     S
He22     B7    10.0   1_455     S
He22     Er83    10.0   .     S
He22     He35    10.001   .     S
He23     B5    10.0   1_556     S
He23     He24    10.0   .     S
He23     Er55    10.0   .     S
He23     He25    10.001   .     S
He24     B1    10.0   1_565     S
He24     Er67    10.0   .     S
He24     He27    10.001   .     S
He25     B2    10.0   1_556     S
He25     He26    10.0   .     S
He25     Er53    10.0   .     S
He26     B6    10.0   1_655     S
He26     Er79    10.0   .     S
He26     He28    10.001   .     S
He27     B7    10.0   1_565     S
He27     He28    10.0   .     S
He27     Er65    10.0   .     S
He28     B9    10.0   1_655     S
He28     Er77    10.0   .     S
He29     B4    10.0   1_554     S
He29     He30    10.0   .     S
He29     Er58    10.0   .     S
He30     B11    10.0   1_655     S
He30     Er86    10.0   .     S
He30     He40    10.001   .     S
He31     B3    10.0   1_554     S
He31     He32    10.0   .     S
He31     Er61    10.0   .     S
He32     B12    10.0   1_565     S
He32     Er74    10.0   .     S
He32     He38    10.001   .     S
He33     B3    10.0   1_545     S
He33     He34    10.0   .     S
He33     Er73    10.0   .     S
He34     B12    10.0   1_556     S
He34     Er62    10.0   .     S
He34     He36    10.001   .     S
He35     B4    10.0   1_455     S
He35     He36    10.0   .     S
He35     Er85    10.0   .     S
He36     B11    10.0   1_556     S
He36     Er64    10.0   .     S
He37     B8    10.0   1_455     S
He37     He38    10.0   .     S
He37     Er82    10.0   .     S
He38     B10    10.0   1_565     S
He38     Er76    10.0   .     S
He39     B8    10.0   1_545     S
He39     He40    10.0   .     S
He39     Er70    10.0   .     S
He40     B10    10.0   1_655     S
He40     Er88    10.0   .     S
V41     S116    10.0   .     S
V41     Er67    10.0   .     S
V41     Er55    10.0   .     S
V42     S112    10.0   .     S
V42     Er79    10.0   .     S
V42     Er53    10.0   .     S
V43     S113    10.0   .     S
V43     Er77    10.0   .     S
V43     Er65    10.0   .     S
V44     S103    10.0   .     S
V44     Er86    10.0   .     S
V44     Er58    10.0   .     S
V45     S91    10.0   .     S
V45     Er74    10.0   .     S
V45     Er61    10.0   .     S
V46     S100    10.0   .     S
V46     Er62    10.0   .     S
V46     Er73    10.0   .     S
V47     S97    10.0   .     S
V47     Er64    10.0   .     S
V47     Er85    10.0   .     S
V48     S92    10.0   .     S
V48     Er76    10.0   .     S
V48     Er82    10.0   .     S
V49     S104    10.0   .     S
V49     Er88    10.0   .     S
V49     Er70    10.0   .     S
V50     S95    10.0   .     S
V50     Er83    10.0   .     S
V50     Er71    10.0   .     S
V51     S94    10.0   .     S
V51     Er80    10.0   .     S
V51     Er59    10.0   .     S
V52     S106    10.0   .     S
V52     Er68    10.0   .     S
V52     Er56    10.0   .     S
Er53     Be54    10.0   .     S
Er53     Er58    10.0   1_556     S
Be54     H117    10.0   1_556     S
Be54     Er55    10.0   .     S
Be54     Li114    10.0   .     S
Er55     Er61    10.0   1_556     S
Er56     Be57    10.0   .     S
Er56     Er62    10.0   1_554     S
Be57     H117    10.0   .     S
Be57     Er58    10.0   .     S
Be57     Li102    10.0   .     S
Er58     Er53    10.0   1_554     S
Er59     Be60    10.0   .     S
Er59     Er64    10.0   1_554     S
Be60     H117    10.0   .     S
Be60     Er61    10.0   .     S
Be60     Li90    10.0   .     S
Er61     Er55    10.0   1_554     S
Er62     Be63    10.0   .     S
Er62     Er56    10.0   1_556     S
Be63     H117    10.0   1_556     S
Be63     Er64    10.0   .     S
Be63     Li98    10.0   .     S
Er64     Er59    10.0   1_556     S
Er65     Be66    10.0   .     S
Er65     Er70    10.0   1_565     S
Be66     H119    10.0   1_565     S
Be66     Er67    10.0   .     S
Be66     Li115    10.0   .     S
Er67     Er73    10.0   1_565     S
Er68     Be69    10.0   .     S
Er68     Er74    10.0   1_545     S
Be69     H119    10.0   .     S
Be69     Er70    10.0   .     S
Be69     Li105    10.0   .     S
Er70     Er65    10.0   1_545     S
Er71     Be72    10.0   .     S
Er71     Er76    10.0   1_545     S
Be72     H119    10.0   .     S
Be72     Er73    10.0   .     S
Be72     Li99    10.0   .     S
Er73     Er67    10.0   1_545     S
Er74     Be75    10.0   .     S
Er74     Er68    10.0   1_565     S
Be75     H119    10.0   1_565     S
Be75     Er76    10.0   .     S
Be75     Li89    10.0   .     S
Er76     Er71    10.0   1_565     S
Er77     Be78    10.0   .     S
Er77     Er82    10.0   1_655     S
Be78     H118    10.0   1_655     S
Be78     Er79    10.0   .     S
Be78     Li111    10.0   .     S
Er79     Er85    10.0   1_655     S
Er80     Be81    10.0   .     S
Er80     Er86    10.0   1_455     S
Be81     H118    10.0   .     S
Be81     Er82    10.0   .     S
Be81     Li93    10.0   .     S
Er82     Er77    10.0   1_455     S
Er83     Be84    10.0   .     S
Er83     Er88    10.0   1_455     S
Be84     H118    10.0   .     S
Be84     Er85    10.0   .     S
Be84     Li96    10.0   .     S
Er85     Er79    10.0   1_455     S
Er86     Be87    10.0   .     S
Er86     Er80    10.0   1_655     S
Be87     H118    10.0   1_655     S
Be87     Er88    10.0   .     S
Be87     Li101    10.0   .     S
Er88     Er83    10.0   1_655     S
Li89     S91    10.0   .     S
Li89     S92    10.0   .     S
Li89     Li115    10.001   .     S
Li90     S91    10.0   .     S
Li90     S94    10.0   .     S
Li90     Li102    10.001   .     S
S91     Ti110    10.0   .     S
S92     Li93    10.0   .     S
S92     Ti109    10.0   .     S
Li93     S94    10.0   .     S
Li93     Li96    10.001   .     S
S94     Ti107    10.0   .     S
S95     Li96    10.0   .     S
S95     Li99    10.0   .     S
S95     Ti107    10.0   .     S
Li96     S97    10.0   .     S
S97     Li98    10.0   .     S
S97     Ti109    10.0   .     S
Li98     S100    10.0   .     S
Li98     Li114    10.001   .     S
Li99     S100    10.0   .     S
Li99     Li105    10.001   .     S
S100     Ti108    10.0   .     S
Li101     S103    10.0   .     S
Li101     S104    10.0   .     S
Li101     Li111    10.001   .     S
Li102     S103    10.0   .     S
Li102     S106    10.0   .     S
S103     Ti110    10.0   .     S
S104     Li105    10.0   .     S
S104     Ti108    10.0   .     S
Li105     S106    10.0   .     S
S106     Ti107    10.0   .     S
Ti108     S112    10.0   .     S
Ti109     S116    10.0   .     S
Ti110     S113    10.0   .     S
Li111     S112    10.0   .     S
Li111     S113    10.0   .     S
S112     Li114    10.0   .     S
S113     Li115    10.0   .     S
Li114     S116    10.0   .     S
Li115     S116    10.0   .     S
H117     Be54    10.0   1_554     S
H117     Be63    10.0   1_554     S
H118     Be78    10.0   1_455     S
H118     Be87    10.0   1_455     S
H119     Be66    10.0   1_545     S
H119     Be75    10.0   1_545     S
