data_odh
_audit_creation_date              2020-02-04
_audit_creation_method            'Pymatgen'
_symmetry_space_group_name_H-M    'P1'
_symmetry_Int_Tables_number       1
loop_
_symmetry_equiv_pos_as_xyz
  x,y,z
_cell_length_a                    75.7781
_cell_length_b                    75.7781
_cell_length_c                    39.087
_cell_angle_alpha                 90.0
_cell_angle_beta                 90.0
_cell_angle_gamma                 120.0
loop_
_atom_site_label
_atom_site_type_symbol
_atom_site_fract_x
_atom_site_fract_y
_atom_site_fract_z
Ce1     Ce     0.2001   0.4002   0.327
Ce2     Ce     0.4002   0.2001   0.327
Ce3     Ce     0.7999   0.2001   0.327
Ce4     Ce     0.2001   0.4002   0.673
Ce5     Ce     0.7999   0.5998   0.327
Ce6     Ce     0.7999   0.2001   0.673
Ce7     Ce     0.4002   0.2001   0.673
Ce8     Ce     0.2001   0.7999   0.327
Ce9     Ce     0.7999   0.5998   0.673
Ce10     Ce     0.5998   0.7999   0.327
Ce11     Ce     0.2001   0.7999   0.673
Ce12     Ce     0.5998   0.7999   0.673
S13     S     0.5381   0.0762   0.3173
S14     S     0.5381   0.0762   0.6827
S15     S     0.5381   0.4619   0.6827
Er16     Er     0.7438   0.4875   0.5
B17     B     0.5914   0.4086   0.5
B18     B     0.5914   0.1828   0.5
Er19     Er     0.5125   0.2562   0.5
S20     S     0.5381   0.4619   0.3173
S21     S     0.4619   0.9238   0.3173
S22     S     0.4619   0.9238   0.6827
S23     S     0.4619   0.5381   0.6827
S24     S     0.4619   0.5381   0.3173
B25     B     0.4086   0.5914   0.5
B26     B     0.4086   0.8172   0.5
Er27     Er     0.4875   0.7438   0.5
Er28     Er     0.2562   0.5125   0.5
S29     S     0.9238   0.4619   0.3173
B30     B     0.8172   0.4086   0.5
Er31     Er     0.7438   0.2562   0.5
S32     S     0.9238   0.4619   0.6827
S33     S     0.0762   0.5381   0.6827
S34     S     0.0762   0.5381   0.3173
B35     B     0.1828   0.5914   0.5
Er36     Er     0.2562   0.7438   0.5
He37     He     0.449   0.1189   0.8029
He38     He     0.449   0.3301   0.8029
He39     He     0.449   0.1189   0.1971
He40     He     0.449   0.3301   0.1971
H41     H     0.5347   0.2014   0.0
H42     H     0.5347   0.3333   0.0
He43     He     0.3301   0.449   0.8029
He44     He     0.3301   0.449   0.1971
He45     He     0.1189   0.449   0.8029
He46     He     0.1189   0.449   0.1971
H47     H     0.3333   0.5347   0.0
H48     H     0.2014   0.5347   0.0
He49     He     0.6699   0.551   0.8029
He50     He     0.8811   0.551   0.8029
He51     He     0.6699   0.551   0.1971
He52     He     0.8811   0.551   0.1971
H53     H     0.7986   0.4653   0.0
H54     H     0.6667   0.4653   0.0
He55     He     0.551   0.8811   0.8029
He56     He     0.551   0.8811   0.1971
He57     He     0.551   0.6699   0.8029
He58     He     0.551   0.6699   0.1971
H59     H     0.4653   0.7986   0.0
H60     H     0.4653   0.6667   0.0
He61     He     0.3301   0.8811   0.8029
He62     He     0.3301   0.8811   0.1971
He63     He     0.1189   0.6699   0.8029
He64     He     0.1189   0.6699   0.1971
H65     H     0.3333   0.7986   0.0
H66     H     0.2014   0.6667   0.0
V67     V     0.6849   0.0   0.8721
V68     V     0.6849   0.0   0.1279
V69     V     0.3151   0.3151   0.8721
V70     V     0.3151   0.3151   0.1279
V71     V     0.3151   0.0   0.8721
V72     V     0.3151   0.0   0.1279
V73     V     0.0   0.6849   0.8721
V74     V     0.0   0.6849   0.1279
V75     V     0.6849   0.6849   0.8721
V76     V     0.6849   0.6849   0.1279
V77     V     0.0   0.3151   0.8721
V78     V     0.0   0.3151   0.1279
Li79     Li     0.2502   0.1251   0.6279
Be80     Be     0.1934   0.1934   0.7735
Be81     Be     0.1934   0.1934   0.2265
Li82     Li     0.1251   0.2502   0.3721
Ti83     Ti     0.132   0.132   0.0
Li84     Li     0.1251   0.8749   0.6279
Be85     Be     0.1934   0.0   0.7735
Be86     Be     0.0   0.8066   0.7735
Li87     Li     0.8749   0.7498   0.6279
Be88     Be     0.0   0.8066   0.2265
Li89     Li     0.1251   0.8749   0.3721
Be90     Be     0.1934   0.0   0.2265
Li91     Li     0.2502   0.1251   0.3721
Ti92     Ti     0.132   0.0   0.0
Ti93     Ti     0.0   0.868   0.0
Be94     Be     0.8066   0.0   0.7735
Li95     Li     0.8749   0.1251   0.6279
Be96     Be     0.0   0.1934   0.7735
Li97     Li     0.1251   0.2502   0.6279
Be98     Be     0.0   0.1934   0.2265
Li99     Li     0.8749   0.1251   0.3721
Be100     Be     0.8066   0.0   0.2265
Li101     Li     0.7498   0.8749   0.3721
Ti102     Ti     0.0   0.132   0.0
Ti103     Ti     0.868   0.0   0.0
Be104     Be     0.8066   0.8066   0.7735
Li105     Li     0.7498   0.8749   0.6279
Be106     Be     0.8066   0.8066   0.2265
Li107     Li     0.8749   0.7498   0.3721
Ti108     Ti     0.868   0.868   0.0
He109     He     0.8811   0.3301   0.8029
He110     He     0.8811   0.3301   0.1971
H111     H     0.6667   0.2014   0.0
H112     H     0.7986   0.3333   0.0
He113     He     0.6699   0.1189   0.1971
He114     He     0.6699   0.1189   0.8029
loop_
_geom_bond_atom_site_label_1
_geom_bond_atom_site_label_2
_geom_bond_distance
_geom_bond_site_symmetry_2
_ccdc_geom_bond_type
Ce1     Li82    10.0   .     S
Ce1     He46    10.0   .     S
Ce1     He44    10.0   .     S
Ce1     Er28    10.0   .     S
Ce2     Li91    10.0   .     S
Ce2     He40    10.0   .     S
Ce2     He39    10.0   .     S
Ce2     Er19    10.0   .     S
Ce3     Li99    10.0   .     S
Ce3     He110    10.0   .     S
Ce3     He113    10.0   .     S
Ce3     Er31    10.0   .     S
Ce4     Li97    10.0   .     S
Ce4     He45    10.0   .     S
Ce4     He43    10.0   .     S
Ce4     Er28    10.0   .     S
Ce5     Li107    10.0   .     S
Ce5     He52    10.0   .     S
Ce5     He51    10.0   .     S
Ce5     Er16    10.0   .     S
Ce6     Li95    10.0   .     S
Ce6     He109    10.0   .     S
Ce6     He114    10.0   .     S
Ce6     Er31    10.0   .     S
Ce7     Li79    10.0   .     S
Ce7     He38    10.0   .     S
Ce7     He37    10.0   .     S
Ce7     Er19    10.0   .     S
Ce8     Li89    10.0   .     S
Ce8     He62    10.0   .     S
Ce8     He64    10.0   .     S
Ce8     Er36    10.0   .     S
Ce9     Li87    10.0   .     S
Ce9     He50    10.0   .     S
Ce9     He49    10.0   .     S
Ce9     Er16    10.0   .     S
Ce10     Li101    10.0   .     S
Ce10     He56    10.0   .     S
Ce10     He58    10.0   .     S
Ce10     Er27    10.0   .     S
Ce11     Li84    10.0   .     S
Ce11     He61    10.0   .     S
Ce11     He63    10.0   .     S
Ce11     Er36    10.0   .     S
Ce12     Li105    10.0   .     S
Ce12     He55    10.0   .     S
Ce12     He57    10.0   .     S
Ce12     Er27    10.0   .     S
S13     He113    10.0   .     S
S13     He39    10.0   .     S
S13     B18    10.0   .     S
S13     S21    10.0   1_545     S
S14     He114    10.0   .     S
S14     He37    10.0   .     S
S14     B18    10.0   .     S
S14     S22    10.0   1_545     S
S15     He49    10.0   .     S
S15     He38    10.0   .     S
S15     B17    10.0   .     S
S15     S23    10.0   .     S
Er16     B30    10.0   .     S
Er16     B17    10.0   .     S
B17     Er19    10.0   .     S
B17     S20    10.0   .     S
B18     Er19    10.0   .     S
B18     Er31    10.0   .     S
S20     He51    10.0   .     S
S20     He40    10.0   .     S
S20     S24    10.0   .     S
S21     He62    10.0   .     S
S21     He56    10.0   .     S
S21     B26    10.0   .     S
S21     S13    10.0   1_565     S
S22     He61    10.0   .     S
S22     He55    10.0   .     S
S22     B26    10.0   .     S
S22     S14    10.0   1_565     S
S23     He57    10.0   .     S
S23     He43    10.0   .     S
S23     B25    10.0   .     S
S24     He58    10.0   .     S
S24     He44    10.0   .     S
S24     B25    10.0   .     S
B25     Er28    10.0   .     S
B25     Er27    10.0   .     S
B26     Er27    10.0   .     S
B26     Er36    10.0   .     S
Er28     B35    10.0   .     S
S29     B30    10.0   .     S
S29     He52    10.0   .     S
S29     He110    10.0   .     S
S29     S34    10.0   1_655     S
B30     Er31    10.0   .     S
B30     S32    10.0   .     S
S32     He50    10.0   .     S
S32     He109    10.0   .     S
S32     S33    10.0   1_655     S
S33     He63    10.0   .     S
S33     He45    10.0   .     S
S33     B35    10.0   .     S
S33     S32    10.0   1_455     S
S34     He64    10.0   .     S
S34     He46    10.0   .     S
S34     B35    10.0   .     S
S34     S29    10.0   1_455     S
B35     Er36    10.0   .     S
He37     V71    10.0   .     S
He37     H41    10.0   1_556     S
He38     V69    10.0   .     S
He38     H42    10.0   1_556     S
He39     V72    10.0   .     S
He39     H41    10.0   .     S
He40     V70    10.0   .     S
He40     H42    10.0   .     S
H41     H42    10.0   .     S
H41     He37    10.0   1_554     S
H41     H111    10.0   .     S
H42     He38    10.0   1_554     S
H42     H54    10.0   .     S
He43     V69    10.0   .     S
He43     H47    10.0   1_556     S
He44     V70    10.0   .     S
He44     H47    10.0   .     S
He45     V77    10.0   .     S
He45     H48    10.0   1_556     S
He46     V78    10.0   .     S
He46     H48    10.0   .     S
H47     H48    10.0   .     S
H47     He43    10.0   1_554     S
H47     H60    10.0   .     S
H48     He45    10.0   1_554     S
H48     H66    10.0   .     S
He49     V75    10.0   .     S
He49     H54    10.0   1_556     S
He50     V73    10.0   1_655     S
He50     H53    10.0   1_556     S
He51     V76    10.0   .     S
He51     H54    10.0   .     S
He52     V74    10.0   1_655     S
He52     H53    10.0   .     S
H53     H54    10.0   .     S
H53     He50    10.0   1_554     S
H53     H112    10.0   .     S
H54     He49    10.0   1_554     S
He55     V67    10.0   1_565     S
He55     H59    10.0   1_556     S
He56     V68    10.0   1_565     S
He56     H59    10.0   .     S
He57     V75    10.0   .     S
He57     H60    10.0   1_556     S
He58     V76    10.0   .     S
He58     H60    10.0   .     S
H59     He55    10.0   1_554     S
H59     H60    10.0   .     S
H59     H65    10.0   .     S
H60     He57    10.0   1_554     S
He61     V71    10.0   1_565     S
He61     H65    10.0   1_556     S
He62     V72    10.0   1_565     S
He62     H65    10.0   .     S
He63     V73    10.0   .     S
He63     H66    10.0   1_556     S
He64     V74    10.0   .     S
He64     H66    10.0   .     S
H65     He61    10.0   1_554     S
H65     H66    10.0   .     S
H66     He63    10.0   1_554     S
V67     He55    10.0   1_545     S
V67     Be94    9.999   .     S
V67     V68    10.0   1_556     S
V67     He114    10.0   .     S
V68     He56    10.0   1_545     S
V68     Be100    9.999   .     S
V68     V67    10.0   1_554     S
V68     He113    10.0   .     S
V69     Be80    9.999   .     S
V69     V70    10.0   1_556     S
V70     Be81    9.999   .     S
V70     V69    10.0   1_554     S
V71     He61    10.0   1_545     S
V71     Be85    9.999   .     S
V71     V72    10.0   1_556     S
V72     He62    10.0   1_545     S
V72     Be90    9.999   .     S
V72     V71    10.0   1_554     S
V73     He50    10.0   1_455     S
V73     Be86    9.999   .     S
V73     V74    10.0   1_556     S
V74     He52    10.0   1_455     S
V74     Be88    9.999   .     S
V74     V73    10.0   1_554     S
V75     Be104    9.999   .     S
V75     V76    10.0   1_556     S
V76     Be106    9.999   .     S
V76     V75    10.0   1_554     S
V77     Be96    9.999   .     S
V77     V78    10.0   1_556     S
V77     He109    10.0   1_455     S
V78     Be98    9.999   .     S
V78     V77    10.0   1_554     S
V78     He110    10.0   1_455     S
Li79     Be80    10.0   .     S
Li79     Be85    10.0   .     S
Li79     Li91    10.0   .     S
Be80     Li97    10.0   .     S
Be80     Ti83    10.0   1_556     S
Be81     Li82    10.0   .     S
Be81     Li91    10.0   .     S
Be81     Ti83    10.0   .     S
Li82     Li97    10.0   .     S
Li82     Be98    10.0   .     S
Ti83     Be80    10.0   1_554     S
Ti83     Ti102    10.0   .     S
Ti83     Ti92    10.0   .     S
Li84     Li89    10.0   .     S
Li84     Be85    10.0   1_565     S
Li84     Be86    10.0   .     S
Be85     Li84    10.0   1_545     S
Be85     Ti92    10.0   1_556     S
Be86     Li87    10.0   1_455     S
Be86     Ti93    10.0   1_556     S
Li87     Be86    10.0   1_655     S
Li87     Be104    10.0   .     S
Li87     Li107    10.0   .     S
Be88     Li89    10.0   .     S
Be88     Li107    10.0   1_455     S
Be88     Ti93    10.0   .     S
Li89     Be90    10.0   1_565     S
Be90     Li89    10.0   1_545     S
Be90     Li91    10.0   .     S
Be90     Ti92    10.0   .     S
Ti92     Be85    10.0   1_554     S
Ti92     Ti93    10.0   1_545     S
Ti93     Be86    10.0   1_554     S
Ti93     Ti108    10.0   1_455     S
Ti93     Ti92    10.0   1_565     S
Be94     Li105    10.0   1_545     S
Be94     Li95    10.0   .     S
Be94     Ti103    10.0   1_556     S
Li95     Li99    10.0   .     S
Li95     Be96    10.0   1_655     S
Be96     Li95    10.0   1_455     S
Be96     Li97    10.0   .     S
Be96     Ti102    10.0   1_556     S
Be98     Li99    10.0   1_455     S
Be98     Ti102    10.0   .     S
Li99     Be98    10.0   1_655     S
Li99     Be100    10.0   .     S
Be100     Li101    10.0   1_545     S
Be100     Ti103    10.0   .     S
Li101     Be100    10.0   1_565     S
Li101     Li105    10.0   .     S
Li101     Be106    10.0   .     S
Ti102     Be96    10.0   1_554     S
Ti102     Ti103    10.0   1_455     S
Ti103     Be94    10.0   1_554     S
Ti103     Ti108    10.0   1_545     S
Ti103     Ti102    10.0   1_655     S
Be104     Li105    10.0   .     S
Be104     Ti108    10.0   1_556     S
Li105     Be94    10.0   1_565     S
Be106     Li107    10.0   .     S
Be106     Ti108    10.0   .     S
Li107     Be88    10.0   1_655     S
Ti108     Be104    10.0   1_554     S
Ti108     Ti103    10.0   1_565     S
Ti108     Ti93    10.0   1_655     S
He109     V77    10.0   1_655     S
He109     H112    10.0   1_556     S
He110     V78    10.0   1_655     S
He110     H112    10.0   .     S
H111     H112    10.0   .     S
H111     He113    10.0   .     S
H111     He114    10.0   1_554     S
H112     He109    10.0   1_554     S
He114     H111    10.0   1_556     S
