data_odi
_audit_creation_date              2020-02-04
_audit_creation_method            'Pymatgen'
_symmetry_space_group_name_H-M    'P1'
_symmetry_Int_Tables_number       1
loop_
_symmetry_equiv_pos_as_xyz
  x,y,z
_cell_length_a                    37.1925
_cell_length_b                    37.1925
_cell_length_c                    117.5498
_cell_angle_alpha                 90.0
_cell_angle_beta                 90.0
_cell_angle_gamma                 90.0
loop_
_atom_site_label
_atom_site_type_symbol
_atom_site_fract_x
_atom_site_fract_y
_atom_site_fract_z
Li1     Li     0.75   0.75   0.0916
Li2     Li     0.25   0.25   0.4084
He3     He     0.5242   0.75   0.0455
V4     V     0.6156   0.75   0.9655
V5     V     0.8844   0.75   0.9655
He6     He     0.9758   0.75   0.0455
He7     He     0.25   0.4758   0.4545
V8     V     0.25   0.3844   0.5345
He9     He     0.25   0.0242   0.4545
V10     V     0.25   0.1156   0.5345
B11     B     0.4614   0.25   0.3558
B12     B     0.0386   0.25   0.3558
B13     B     0.75   0.9614   0.1442
B14     B     0.75   0.5386   0.1442
Ce15     Ce     0.25   0.9352   0.1883
Ce16     Ce     0.0648   0.75   0.3117
Ce17     Ce     0.25   0.5648   0.1883
Ce18     Ce     0.4352   0.75   0.3117
Er19     Er     0.3844   0.75   0.3952
Er20     Er     0.25   0.6156   0.1048
Er21     Er     0.1156   0.75   0.3952
Er22     Er     0.25   0.8844   0.1048
C23     C     0.5321   0.1156   0.134
C24     C     0.5321   0.3844   0.134
S25     S     0.3844   0.25   0.2743
H26     H     0.4642   0.0737   0.2152
H27     H     0.4642   0.4263   0.2152
Ti28     Ti     0.4485   0.497   0.0614
Ti29     Ti     0.4485   0.003   0.0614
C30     C     0.6156   0.0321   0.366
C31     C     0.8844   0.0321   0.366
S32     S     0.75   0.8844   0.2257
H33     H     0.5737   0.9642   0.2848
H34     H     0.9263   0.9642   0.2848
Ti35     Ti     0.997   0.9485   0.4386
Ti36     Ti     0.503   0.9485   0.4386
C37     C     0.9679   0.3844   0.134
C38     C     0.9679   0.1156   0.134
S39     S     0.1156   0.25   0.2743
H40     H     0.0358   0.0737   0.2152
H41     H     0.0358   0.4263   0.2152
Ti42     Ti     0.0515   0.003   0.0614
Ti43     Ti     0.0515   0.497   0.0614
C44     C     0.8844   0.4679   0.366
C45     C     0.6156   0.4679   0.366
S46     S     0.75   0.6156   0.2257
H47     H     0.9263   0.5358   0.2848
H48     H     0.5737   0.5358   0.2848
Ti49     Ti     0.503   0.5515   0.4386
Ti50     Ti     0.997   0.5515   0.4386
Be51     Be     0.25   0.75   0.25
Li52     Li     0.25   0.25   0.9084
Li53     Li     0.75   0.75   0.5916
He54     He     0.75   0.5242   0.5455
V55     V     0.75   0.6156   0.4655
He56     He     0.75   0.9758   0.5455
V57     V     0.75   0.8844   0.4655
V58     V     0.3844   0.25   0.0345
He59     He     0.4758   0.25   0.9545
He60     He     0.0242   0.25   0.9545
V61     V     0.1156   0.25   0.0345
B62     B     0.25   0.0386   0.8558
B63     B     0.9614   0.75   0.6442
B64     B     0.25   0.4614   0.8558
B65     B     0.5386   0.75   0.6442
Ce66     Ce     0.9352   0.25   0.6883
Ce67     Ce     0.75   0.0648   0.8117
Ce68     Ce     0.5648   0.25   0.6883
Ce69     Ce     0.75   0.4352   0.8117
Er70     Er     0.8844   0.25   0.6048
Er71     Er     0.6156   0.25   0.6048
Er72     Er     0.75   0.3844   0.8952
Er73     Er     0.75   0.1156   0.8952
C74     C     0.1156   0.9679   0.634
C75     C     0.3844   0.9679   0.634
S76     S     0.25   0.1156   0.7743
H77     H     0.0737   0.0358   0.7152
H78     H     0.4263   0.0358   0.7152
Ti79     Ti     0.003   0.0515   0.5614
Ti80     Ti     0.497   0.0515   0.5614
C81     C     0.0321   0.8844   0.866
C82     C     0.0321   0.6156   0.866
S83     S     0.8844   0.75   0.7257
H84     H     0.9642   0.5737   0.7848
H85     H     0.9642   0.9263   0.7848
Ti86     Ti     0.9485   0.997   0.9386
Ti87     Ti     0.9485   0.503   0.9386
Ti88     Ti     0.5515   0.997   0.9386
C89     C     0.4679   0.6156   0.866
C90     C     0.4679   0.8844   0.866
S91     S     0.6156   0.75   0.7257
H92     H     0.5358   0.5737   0.7848
H93     H     0.5358   0.9263   0.7848
Ti94     Ti     0.5515   0.503   0.9386
C95     C     0.3844   0.5321   0.634
C96     C     0.1156   0.5321   0.634
S97     S     0.25   0.3844   0.7743
H98     H     0.0737   0.4642   0.7152
H99     H     0.4263   0.4642   0.7152
Ti100     Ti     0.497   0.4485   0.5614
Ti101     Ti     0.003   0.4485   0.5614
Be102     Be     0.75   0.25   0.75
loop_
_geom_bond_atom_site_label_1
_geom_bond_atom_site_label_2
_geom_bond_distance
_geom_bond_site_symmetry_2
_ccdc_geom_bond_type
Li1     He6    10.0   .     S
Li1     He3    10.0   .     S
Li1     B13    10.0   .     S
Li1     B14    10.0   .     S
Li2     He9    10.0   .     S
Li2     He7    10.0   .     S
Li2     B11    10.0   .     S
Li2     B12    10.0   .     S
He3     V4    9.999   1_554     S
He3     Ti29    10.0   1_565     S
He3     Ti28    10.0   .     S
V4     He3    9.999   1_556     S
V4     V5    10.0   .     S
V4     Ti88    10.0   .     S
V4     Ti94    10.0   .     S
V5     He6    9.999   1_556     S
V5     Ti86    10.0   .     S
V5     Ti87    10.0   .     S
He6     V5    9.999   1_554     S
He6     Ti42    10.0   1_665     S
He6     Ti43    10.0   1_655     S
He7     V8    9.999   .     S
He7     Ti50    10.0   1_455     S
He7     Ti49    10.0   .     S
V8     V10    10.0   .     S
V8     Ti100    10.0   .     S
V8     Ti101    10.0   .     S
He9     V10    9.999   .     S
He9     Ti36    10.0   1_545     S
He9     Ti35    10.0   1_445     S
V10     Ti79    10.0   .     S
V10     Ti80    10.0   .     S
B11     S25    10.0   .     S
B11     C30    10.0   .     S
B11     C45    10.0   .     S
B12     S39    10.0   .     S
B12     C31    10.0   1_455     S
B12     C44    10.0   1_455     S
B13     S32    10.0   .     S
B13     C23    10.0   1_565     S
B13     C38    10.0   1_565     S
B14     S46    10.0   .     S
B14     C24    10.0   .     S
B14     C37    10.0   .     S
Ce15     Be51    10.0   .     S
Ce15     Er22    10.001   .     S
Ce15     H26    10.0   1_565     S
Ce15     H40    10.0   1_565     S
Ce16     Be51    10.0   .     S
Ce16     Er21    10.001   .     S
Ce16     H34    10.0   1_455     S
Ce16     H47    10.0   1_455     S
Ce17     Be51    10.0   .     S
Ce17     Er20    10.001   .     S
Ce17     H27    10.0   .     S
Ce17     H41    10.0   .     S
Ce18     Be51    10.0   .     S
Ce18     Er19    10.001   .     S
Ce18     H33    10.0   .     S
Ce18     H48    10.0   .     S
Er19     Ti36    9.999   .     S
Er19     Ti49    9.999   .     S
Er19     Er21    10.0   .     S
Er20     Ti43    9.999   .     S
Er20     Ti28    9.999   .     S
Er20     Er22    10.0   .     S
Er21     Ti35    9.999   1_455     S
Er21     Ti50    9.999   1_455     S
Er22     Ti42    9.999   1_565     S
Er22     Ti29    9.999   1_565     S
C23     B13    10.0   1_545     S
C23     H26    10.0   .     S
C23     Ti29    10.0   .     S
C23     C24    10.0   .     S
C24     H27    10.0   .     S
C24     Ti28    10.0   .     S
S25     H27    10.0   .     S
S25     H26    10.0   .     S
S25     S39    10.0   .     S
H26     Ce15    10.0   1_545     S
H26     H33    10.0   1_545     S
H27     H48    10.0   .     S
Ti28     V58    10.0   .     S
Ti29     He3    10.0   1_545     S
Ti29     Er22    9.999   1_545     S
Ti29     V58    10.0   .     S
C30     H33    10.0   1_545     S
C30     Ti36    10.0   1_545     S
C30     C31    10.0   .     S
C31     B12    10.0   1_655     S
C31     H34    10.0   1_545     S
C31     Ti35    10.0   1_545     S
S32     H34    10.0   .     S
S32     H33    10.0   .     S
S32     S46    10.0   .     S
H33     C30    10.0   1_565     S
H33     H26    10.0   1_565     S
H34     C31    10.0   1_565     S
H34     Ce16    10.0   1_655     S
H34     H40    10.0   1_665     S
Ti35     He9    10.0   1_665     S
Ti35     Er21    9.999   1_655     S
Ti35     C31    10.0   1_565     S
Ti35     V57    10.0   .     S
Ti36     He9    10.0   1_565     S
Ti36     C30    10.0   1_565     S
Ti36     V57    10.0   .     S
C37     H41    10.0   1_655     S
C37     Ti43    10.0   1_655     S
C37     C38    10.0   .     S
C38     B13    10.0   1_545     S
C38     H40    10.0   1_655     S
C38     Ti42    10.0   1_655     S
S39     H41    10.0   .     S
S39     H40    10.0   .     S
H40     H34    10.0   1_445     S
H40     C38    10.0   1_455     S
H40     Ce15    10.0   1_545     S
H41     C37    10.0   1_455     S
H41     H47    10.0   1_455     S
Ti42     He6    10.0   1_445     S
Ti42     Er22    9.999   1_545     S
Ti42     C38    10.0   1_455     S
Ti42     V61    10.0   .     S
Ti43     He6    10.0   1_455     S
Ti43     C37    10.0   1_455     S
Ti43     V61    10.0   .     S
C44     B12    10.0   1_655     S
C44     H47    10.0   .     S
C44     Ti50    10.0   .     S
C44     C45    10.0   .     S
C45     H48    10.0   .     S
C45     Ti49    10.0   .     S
S46     H47    10.0   .     S
S46     H48    10.0   .     S
H47     Ce16    10.0   1_655     S
H47     H41    10.0   1_655     S
Ti49     V55    10.0   .     S
Ti50     He7    10.0   1_655     S
Ti50     Er21    9.999   1_655     S
Ti50     V55    10.0   .     S
Li52     He59    10.0   .     S
Li52     He60    10.0   .     S
Li52     B62    10.0   .     S
Li52     B64    10.0   .     S
Li53     He56    10.0   .     S
Li53     He54    10.0   .     S
Li53     B63    10.0   .     S
Li53     B65    10.0   .     S
He54     V55    9.999   .     S
He54     Ti101    10.0   1_655     S
He54     Ti100    10.0   .     S
V55     V57    10.0   .     S
He56     V57    9.999   .     S
He56     Ti79    10.0   1_665     S
He56     Ti80    10.0   1_565     S
V58     He59    9.999   1_554     S
V58     V61    10.0   .     S
He59     V58    9.999   1_556     S
He59     Ti94    10.0   .     S
He59     Ti88    10.0   1_545     S
He60     V61    9.999   1_556     S
He60     Ti86    10.0   1_445     S
He60     Ti87    10.0   1_455     S
V61     He60    9.999   1_554     S
B62     S76    10.0   .     S
B62     C81    10.0   1_545     S
B62     C90    10.0   1_545     S
B63     S83    10.0   .     S
B63     C74    10.0   1_655     S
B63     C96    10.0   1_655     S
B64     S97    10.0   .     S
B64     C82    10.0   .     S
B64     C89    10.0   .     S
B65     S91    10.0   .     S
B65     C75    10.0   .     S
B65     C95    10.0   .     S
Ce66     Be102    10.0   .     S
Ce66     Er70    10.001   .     S
Ce66     H77    10.0   1_655     S
Ce66     H98    10.0   1_655     S
Ce67     Be102    10.0   .     S
Ce67     Er73    10.001   .     S
Ce67     H85    10.0   1_545     S
Ce67     H93    10.0   1_545     S
Ce68     Be102    10.0   .     S
Ce68     Er71    10.001   .     S
Ce68     H78    10.0   .     S
Ce68     H99    10.0   .     S
Ce69     Be102    10.0   .     S
Ce69     Er72    10.001   .     S
Ce69     H84    10.0   .     S
Ce69     H92    10.0   .     S
Er70     Ti79    9.999   1_655     S
Er70     Ti101    9.999   1_655     S
Er70     Er71    10.0   .     S
Er71     Ti80    9.999   .     S
Er71     Ti100    9.999   .     S
Er72     Ti87    9.999   .     S
Er72     Ti94    9.999   .     S
Er72     Er73    10.0   .     S
Er73     Ti86    9.999   1_545     S
Er73     Ti88    9.999   1_545     S
C74     B63    10.0   1_455     S
C74     H77    10.0   1_565     S
C74     Ti79    10.0   1_565     S
C74     C75    10.0   .     S
C75     H78    10.0   1_565     S
C75     Ti80    10.0   1_565     S
S76     H78    10.0   .     S
S76     H77    10.0   .     S
S76     S97    10.0   .     S
H77     C74    10.0   1_545     S
H77     Ce66    10.0   1_455     S
H77     H85    10.0   1_445     S
H78     C75    10.0   1_545     S
H78     H93    10.0   1_545     S
Ti79     He56    10.0   1_445     S
Ti79     Er70    9.999   1_455     S
Ti79     C74    10.0   1_545     S
Ti80     He56    10.0   1_545     S
Ti80     C75    10.0   1_545     S
C81     B62    10.0   1_565     S
C81     H85    10.0   1_455     S
C81     Ti86    10.0   1_455     S
C81     C82    10.0   .     S
C82     H84    10.0   1_455     S
C82     Ti87    10.0   1_455     S
S83     H85    10.0   .     S
S83     H84    10.0   .     S
S83     S91    10.0   .     S
H84     C82    10.0   1_655     S
H84     H98    10.0   1_655     S
H85     C81    10.0   1_655     S
H85     Ce67    10.0   1_565     S
H85     H77    10.0   1_665     S
Ti86     He60    10.0   1_665     S
Ti86     Er73    9.999   1_565     S
Ti86     C81    10.0   1_655     S
Ti87     He60    10.0   1_655     S
Ti87     C82    10.0   1_655     S
Ti88     He59    10.0   1_565     S
Ti88     Er73    9.999   1_565     S
Ti88     C90    10.0   .     S
C89     H92    10.0   .     S
C89     Ti94    10.0   .     S
C89     C90    10.0   .     S
C90     B62    10.0   1_565     S
C90     H93    10.0   .     S
S91     H93    10.0   .     S
S91     H92    10.0   .     S
H92     H99    10.0   .     S
H93     Ce67    10.0   1_565     S
H93     H78    10.0   1_565     S
C95     H99    10.0   .     S
C95     Ti100    10.0   .     S
C95     C96    10.0   .     S
C96     B63    10.0   1_455     S
C96     H98    10.0   .     S
C96     Ti101    10.0   .     S
S97     H99    10.0   .     S
S97     H98    10.0   .     S
H98     H84    10.0   1_455     S
H98     Ce66    10.0   1_455     S
Ti101     He54    10.0   1_455     S
Ti101     Er70    9.999   1_455     S
