data_odj
_audit_creation_date              2020-02-04
_audit_creation_method            'Pymatgen'
_symmetry_space_group_name_H-M    'P1'
_symmetry_Int_Tables_number       1
loop_
_symmetry_equiv_pos_as_xyz
  x,y,z
_cell_length_a                    34.4408
_cell_length_b                    34.4408
_cell_length_c                    136.2005
_cell_angle_alpha                 90.0
_cell_angle_beta                 90.0
_cell_angle_gamma                 120.0
loop_
_atom_site_label
_atom_site_type_symbol
_atom_site_fract_x
_atom_site_fract_y
_atom_site_fract_z
V1     V     0.7096   0.7096   0.0
V2     V     0.0   0.7096   0.0
V3     V     0.2904   0.0   0.0
V4     V     0.2904   0.2904   0.0
V5     V     0.0   0.2904   0.0
V6     V     0.7096   0.0   0.0
Ce7     Ce     0.6667   0.3333   0.2347
Li8     Li     0.6667   0.3333   0.1612
Ti9     Ti     0.636   0.818   0.1297
Ti10     Ti     0.818   0.636   0.1297
He11     He     0.0   0.6452   0.0716
Ti12     Ti     0.182   0.818   0.1297
Ti13     Ti     0.364   0.182   0.1297
Ti14     Ti     0.182   0.364   0.1297
He15     He     0.3548   0.3548   0.0716
Ti16     Ti     0.818   0.182   0.1297
He17     He     0.0   0.3548   0.0716
He18     He     0.6452   0.0   0.0716
He19     He     0.3548   0.0   0.0716
He20     He     0.6452   0.6452   0.0716
Ce21     Ce     0.3333   0.6667   0.2347
Li22     Li     0.3333   0.6667   0.1612
Er23     Er     0.3876   0.1938   0.2754
Er24     Er     0.1938   0.8062   0.2754
Er25     Er     0.8062   0.1938   0.2754
Er26     Er     0.1938   0.3876   0.2754
Be27     Be     0.8324   0.1676   0.2028
Be28     Be     0.6647   0.8324   0.2028
Be29     Be     0.8324   0.6647   0.2028
Be30     Be     0.1676   0.3353   0.2028
Be31     Be     0.3353   0.1676   0.2028
Be32     Be     0.1676   0.8324   0.2028
Er33     Er     0.8062   0.6124   0.2754
Er34     Er     0.6124   0.8062   0.2754
B35     B     0.6452   0.6452   0.333
S36     S     0.7096   0.7096   0.4046
B37     B     0.0   0.6452   0.333
S38     S     0.0   0.7096   0.4046
B39     B     0.6452   0.0   0.333
S40     S     0.7096   0.0   0.4046
B41     B     0.3548   0.0   0.333
S42     S     0.2904   0.0   0.4046
B43     B     0.3548   0.3548   0.333
S44     S     0.2904   0.2904   0.4046
B45     B     0.0   0.3548   0.333
S46     S     0.0   0.2904   0.4046
C47     C     0.0   0.5   0.4554
C48     C     0.0   0.5   0.5446
C49     C     0.5   0.0   0.4554
C50     C     0.5   0.0   0.5446
H51     H     0.6667   0.3333   0.4633
H52     H     0.6667   0.3333   0.5367
C53     C     0.5   0.5   0.5446
H54     H     0.3333   0.6667   0.4633
H55     H     0.3333   0.6667   0.5367
C56     C     0.5   0.5   0.4554
Er57     Er     0.1938   0.8062   0.7246
Er58     Er     0.8062   0.1938   0.7246
Er59     Er     0.1938   0.3876   0.7246
Be60     Be     0.1676   0.3353   0.7972
Be61     Be     0.3353   0.1676   0.7972
Be62     Be     0.1676   0.8324   0.7972
Be63     Be     0.8324   0.1676   0.7972
Be64     Be     0.6647   0.8324   0.7972
Be65     Be     0.8324   0.6647   0.7972
Er66     Er     0.3876   0.1938   0.7246
Er67     Er     0.8062   0.6124   0.7246
Er68     Er     0.6124   0.8062   0.7246
B69     B     0.6452   0.6452   0.667
S70     S     0.7096   0.7096   0.5954
B71     B     0.6452   0.0   0.667
S72     S     0.7096   0.0   0.5954
B73     B     0.3548   0.0   0.667
S74     S     0.2904   0.0   0.5954
B75     B     0.0   0.3548   0.667
S76     S     0.0   0.2904   0.5954
B77     B     0.3548   0.3548   0.667
S78     S     0.2904   0.2904   0.5954
B79     B     0.0   0.6452   0.667
S80     S     0.0   0.7096   0.5954
Ce81     Ce     0.6667   0.3333   0.7653
Li82     Li     0.6667   0.3333   0.8388
Ti83     Ti     0.818   0.182   0.8703
Ti84     Ti     0.182   0.364   0.8703
Ti85     Ti     0.364   0.182   0.8703
He86     He     0.3548   0.3548   0.9284
Ti87     Ti     0.182   0.818   0.8703
Ti88     Ti     0.818   0.636   0.8703
He89     He     0.0   0.6452   0.9284
He90     He     0.3548   0.0   0.9284
He91     He     0.0   0.3548   0.9284
Ti92     Ti     0.636   0.818   0.8703
He93     He     0.6452   0.6452   0.9284
He94     He     0.6452   0.0   0.9284
Ce95     Ce     0.3333   0.6667   0.7653
Li96     Li     0.3333   0.6667   0.8388
loop_
_geom_bond_atom_site_label_1
_geom_bond_atom_site_label_2
_geom_bond_distance
_geom_bond_site_symmetry_2
_ccdc_geom_bond_type
V1     He20    10.0   .     S
V1     He93    10.0   1_554     S
V1     V2    10.0   1_655     S
V1     V6    10.0   1_565     S
V2     V1    10.0   1_455     S
V2     He11    10.0   .     S
V2     He89    10.0   1_554     S
V2     V3    10.0   1_565     S
V3     V2    10.0   1_545     S
V3     V4    10.0   .     S
V3     He19    10.0   .     S
V3     He90    10.0   1_554     S
V4     He15    10.0   .     S
V4     He86    10.0   1_554     S
V4     V5    10.0   .     S
V5     He17    10.0   .     S
V5     He91    10.0   1_554     S
V5     V6    10.0   1_455     S
V6     V5    10.0   1_655     S
V6     He18    10.0   .     S
V6     He94    10.0   1_554     S
V6     V1    10.0   1_545     S
Ce7     Er25    10.0   .     S
Ce7     Er23    10.0   .     S
Ce7     Er33    10.0   .     S
Ce7     Li8    10.0   .     S
Li8     Ti16    10.0   .     S
Li8     Ti13    10.0   .     S
Li8     Ti10    10.0   .     S
Ti9     He20    9.999   .     S
Ti9     He18    9.999   1_565     S
Ti9     Li22    10.0   .     S
Ti9     Be28    10.001   .     S
Ti10     He20    9.999   .     S
Ti10     He11    9.999   1_655     S
Ti10     Be29    10.001   .     S
He11     Ti10    9.999   1_455     S
He11     Ti12    9.999   .     S
He11     He17    10.0   .     S
Ti12     Be32    10.001   .     S
Ti12     He19    9.999   1_565     S
Ti12     Li22    10.0   .     S
Ti13     He19    9.999   .     S
Ti13     He15    9.999   .     S
Ti13     Be31    10.001   .     S
Ti14     He17    9.999   .     S
Ti14     He15    9.999   .     S
Ti14     Li22    10.0   .     S
Ti14     Be30    10.001   .     S
He15     He20    10.0   .     S
Ti16     Be27    10.001   .     S
Ti16     He18    9.999   .     S
Ti16     He17    9.999   1_655     S
He17     Ti16    9.999   1_455     S
He18     Ti9    9.999   1_545     S
He18     He19    10.0   .     S
He19     Ti12    9.999   1_545     S
Ce21     Er26    10.0   .     S
Ce21     Er34    10.0   .     S
Ce21     Er24    10.0   .     S
Ce21     Li22    10.0   .     S
Er23     Be31    10.0   .     S
Er23     B41    10.0   .     S
Er23     B43    10.0   .     S
Er24     Be32    10.0   .     S
Er24     B41    10.0   1_565     S
Er24     B37    10.0   .     S
Er25     Be27    10.0   .     S
Er25     B45    10.0   1_655     S
Er25     B39    10.0   .     S
Er26     Be30    10.0   .     S
Er26     B45    10.0   .     S
Er26     B43    10.0   .     S
Be27     Be28    10.0   1_545     S
Be27     Be30    10.0   1_655     S
Be28     Be29    10.0   .     S
Be28     Be27    10.0   1_565     S
Be28     Er34    10.0   .     S
Be29     Be32    10.0   1_655     S
Be29     Er33    10.0   .     S
Be30     Be31    10.0   .     S
Be30     Be27    10.0   1_455     S
Be31     Be32    10.0   1_545     S
Be32     Be29    10.0   1_455     S
Be32     Be31    10.0   1_565     S
Er33     B35    10.0   .     S
Er33     B37    10.0   1_655     S
Er34     B39    10.0   1_565     S
Er34     B35    10.0   .     S
B35     S36    9.999   .     S
B35     B43    10.0   .     S
S36     S38    10.0   1_655     S
S36     S40    10.0   1_565     S
S36     C56    10.0   .     S
B37     S38    9.999   .     S
B37     B45    10.0   .     S
B37     Er33    10.0   1_455     S
S38     S36    10.0   1_455     S
S38     S42    10.0   1_565     S
S38     C47    10.0   .     S
B39     Er34    10.0   1_545     S
B39     S40    9.999   .     S
B39     B41    10.0   .     S
S40     S46    10.0   1_655     S
S40     S36    10.0   1_545     S
S40     C49    10.0   .     S
B41     Er24    10.0   1_545     S
B41     S42    9.999   .     S
S42     S38    10.0   1_545     S
S42     S44    10.0   .     S
S42     C49    10.0   .     S
B43     S44    9.999   .     S
S44     S46    10.0   .     S
S44     C56    10.0   .     S
B45     Er25    10.0   1_455     S
B45     S46    9.999   .     S
S46     S40    10.0   1_455     S
S46     C47    10.0   .     S
C47     H51    10.0   1_455     S
C47     H54    10.0   .     S
C48     S80    10.0   .     S
C48     S76    10.0   .     S
C48     H52    10.0   1_455     S
C48     H55    10.0   .     S
C49     H51    10.0   .     S
C49     H54    10.0   1_545     S
C50     S72    10.0   .     S
C50     S74    10.0   .     S
C50     H52    10.0   .     S
C50     H55    10.0   1_545     S
H51     C56    10.0   .     S
H51     C47    10.0   1_655     S
H51     H52    10.0   .     S
H52     C48    10.0   1_655     S
H52     C53    10.0   .     S
C53     S70    10.0   .     S
C53     S78    10.0   .     S
C53     H55    10.0   .     S
H54     C49    10.0   1_565     S
H54     C56    10.0   .     S
H54     H55    10.0   .     S
H55     C50    10.0   1_565     S
Er57     Be62    10.0   .     S
Er57     B79    10.0   .     S
Er57     B73    10.0   1_565     S
Er57     Ce95    10.0   .     S
Er58     Be63    10.0   .     S
Er58     B75    10.0   1_655     S
Er58     B71    10.0   .     S
Er58     Ce81    10.0   .     S
Er59     Be60    10.0   .     S
Er59     B77    10.0   .     S
Er59     B75    10.0   .     S
Er59     Ce95    10.0   .     S
Be60     Be61    10.0   .     S
Be60     Be63    10.0   1_455     S
Be60     Ti84    10.001   .     S
Be61     Be62    10.0   1_545     S
Be61     Er66    10.0   .     S
Be61     Ti85    10.001   .     S
Be62     Ti87    10.001   .     S
Be62     Be61    10.0   1_565     S
Be62     Be65    10.0   1_455     S
Be63     Ti83    10.001   .     S
Be63     Be64    10.0   1_545     S
Be63     Be60    10.0   1_655     S
Be64     Be65    10.0   .     S
Be64     Be63    10.0   1_565     S
Be64     Er68    10.0   .     S
Be64     Ti92    10.001   .     S
Be65     Be62    10.0   1_655     S
Be65     Er67    10.0   .     S
Be65     Ti88    10.001   .     S
Er66     B73    10.0   .     S
Er66     B77    10.0   .     S
Er66     Ce81    10.0   .     S
Er67     B79    10.0   1_655     S
Er67     B69    10.0   .     S
Er67     Ce81    10.0   .     S
Er68     B69    10.0   .     S
Er68     B71    10.0   1_565     S
Er68     Ce95    10.0   .     S
B69     S70    9.999   .     S
B69     B77    10.0   .     S
S70     S72    10.0   1_565     S
S70     S80    10.0   1_655     S
B71     S72    9.999   .     S
B71     B73    10.0   .     S
B71     Er68    10.0   1_545     S
S72     S70    10.0   1_545     S
S72     S76    10.0   1_655     S
B73     Er57    10.0   1_545     S
B73     S74    9.999   .     S
S74     S78    10.0   .     S
S74     S80    10.0   1_545     S
B75     Er58    10.0   1_455     S
B75     S76    9.999   .     S
B75     B79    10.0   .     S
S76     S72    10.0   1_455     S
S76     S78    10.0   .     S
B77     S78    9.999   .     S
B79     Er67    10.0   1_455     S
B79     S80    9.999   .     S
S80     S74    10.0   1_565     S
S80     S70    10.0   1_455     S
Ce81     Li82    10.0   .     S
Li82     Ti83    10.0   .     S
Li82     Ti85    10.0   .     S
Li82     Ti88    10.0   .     S
Ti83     He94    9.999   .     S
Ti83     He91    9.999   1_655     S
Ti84     He91    9.999   .     S
Ti84     He86    9.999   .     S
Ti84     Li96    10.0   .     S
Ti85     He90    9.999   .     S
Ti85     He86    9.999   .     S
He86     V4    10.0   1_556     S
He86     He93    10.0   .     S
Ti87     He89    9.999   .     S
Ti87     He90    9.999   1_565     S
Ti87     Li96    10.0   .     S
Ti88     He93    9.999   .     S
Ti88     He89    9.999   1_655     S
He89     V2    10.0   1_556     S
He89     Ti88    9.999   1_455     S
He89     He91    10.0   .     S
He90     V3    10.0   1_556     S
He90     Ti87    9.999   1_545     S
He90     He94    10.0   .     S
He91     V5    10.0   1_556     S
He91     Ti83    9.999   1_455     S
Ti92     He94    9.999   1_565     S
Ti92     He93    9.999   .     S
Ti92     Li96    10.0   .     S
He93     V1    10.0   1_556     S
He94     V6    10.0   1_556     S
He94     Ti92    9.999   1_545     S
Ce95     Li96    10.0   .     S
