data_odl
_audit_creation_date              2020-02-04
_audit_creation_method            'Pymatgen'
_symmetry_space_group_name_H-M    'P1'
_symmetry_Int_Tables_number       1
loop_
_symmetry_equiv_pos_as_xyz
  x,y,z
_cell_length_a                    70.3
_cell_length_b                    70.3
_cell_length_c                    66.5967
_cell_angle_alpha                 90.0
_cell_angle_beta                 90.0
_cell_angle_gamma                 120.0
loop_
_atom_site_label
_atom_site_type_symbol
_atom_site_fract_x
_atom_site_fract_y
_atom_site_fract_z
He1     He     0.2792   0.0   0.3251
He2     He     0.2792   0.0   0.1749
He3     He     0.0   0.2792   0.3251
He4     He     0.0   0.2792   0.1749
He5     He     0.7208   0.7208   0.3251
He6     He     0.7208   0.7208   0.1749
He7     He     0.0   0.7208   0.8251
He8     He     0.0   0.7208   0.6749
He9     He     0.2792   0.2792   0.8251
He10     He     0.2792   0.2792   0.6749
He11     He     0.7208   0.0   0.6749
He12     He     0.7208   0.0   0.8251
Be13     Be     0.2316   0.421   0.5717
Be14     Be     0.1895   0.421   0.4283
Be15     Be     0.2316   0.421   0.9283
Be16     Be     0.1895   0.421   0.0717
Be17     Be     0.1895   0.7684   0.5717
Be18     Be     0.2316   0.8105   0.4283
Be19     Be     0.579   0.8105   0.5717
Be20     Be     0.579   0.7684   0.4283
Be21     Be     0.579   0.8105   0.9283
Be22     Be     0.579   0.7684   0.0717
B23     B     0.3321   0.8033   0.6354
B24     B     0.1967   0.5288   0.6354
S25     S     0.3333   0.6667   0.6749
B26     B     0.4712   0.6679   0.6354
Li27     Li     0.1319   0.5251   0.4385
Li28     Li     0.1319   0.6068   0.5615
Li29     Li     0.3932   0.5251   0.5615
Li30     Li     0.4749   0.6068   0.4385
B31     B     0.4712   0.8033   0.3646
B32     B     0.3321   0.5288   0.3646
S33     S     0.3333   0.6667   0.3251
B34     B     0.1967   0.6679   0.3646
Li35     Li     0.3932   0.8681   0.4385
Li36     Li     0.4749   0.8681   0.5615
Li37     Li     0.3932   0.5251   0.9385
Li38     Li     0.4749   0.6068   0.0615
B39     B     0.3321   0.8033   0.8646
B40     B     0.1967   0.5288   0.8646
S41     S     0.3333   0.6667   0.8251
B42     B     0.4712   0.6679   0.8646
Li43     Li     0.1319   0.5251   0.0615
Li44     Li     0.1319   0.6068   0.9385
B45     B     0.4712   0.8033   0.1354
B46     B     0.3321   0.5288   0.1354
S47     S     0.3333   0.6667   0.1749
B48     B     0.1967   0.6679   0.1354
Li49     Li     0.3932   0.8681   0.0615
Li50     Li     0.4749   0.8681   0.9385
Be51     Be     0.1895   0.7684   0.9283
Be52     Be     0.2316   0.8105   0.0717
Be53     Be     0.421   0.2316   0.5717
Be54     Be     0.421   0.1895   0.4283
Be55     Be     0.421   0.2316   0.9283
Be56     Be     0.421   0.1895   0.0717
Be57     Be     0.8105   0.579   0.5717
Be58     Be     0.7684   0.579   0.4283
Be59     Be     0.8105   0.579   0.9283
Be60     Be     0.7684   0.579   0.0717
Be61     Be     0.7684   0.1895   0.5717
Be62     Be     0.8105   0.2316   0.4283
Li63     Li     0.6068   0.4749   0.0615
Li64     Li     0.5251   0.3932   0.9385
B65     B     0.8033   0.3321   0.8646
B66     B     0.5288   0.1967   0.8646
S67     S     0.6667   0.3333   0.8251
B68     B     0.6679   0.4712   0.8646
Li69     Li     0.5251   0.1319   0.0615
Li70     Li     0.6068   0.1319   0.9385
B71     B     0.8033   0.4712   0.1354
S72     S     0.6667   0.3333   0.1749
B73     B     0.6679   0.1967   0.1354
B74     B     0.5288   0.3321   0.1354
Li75     Li     0.8681   0.3932   0.0615
Li76     Li     0.8681   0.4749   0.9385
Li77     Li     0.5251   0.3932   0.5615
Li78     Li     0.6068   0.4749   0.4385
B79     B     0.8033   0.3321   0.6354
B80     B     0.6679   0.4712   0.6354
B81     B     0.5288   0.1967   0.6354
S82     S     0.6667   0.3333   0.6749
Li83     Li     0.6068   0.1319   0.5615
Li84     Li     0.5251   0.1319   0.4385
B85     B     0.6679   0.1967   0.3646
B86     B     0.8033   0.4712   0.3646
S87     S     0.6667   0.3333   0.3251
B88     B     0.5288   0.3321   0.3646
Li89     Li     0.8681   0.3932   0.4385
Li90     Li     0.8681   0.4749   0.5615
Be91     Be     0.7684   0.1895   0.9283
Be92     Be     0.8105   0.2316   0.0717
H93     H     0.8917   0.5663   0.25
H94     H     0.1083   0.6746   0.25
Ce95     Ce     0.0   0.4174   0.1393
Ce96     Ce     0.0   0.4174   0.3607
C97     C     0.0   0.5135   0.25
H98     H     0.4337   0.3254   0.25
H99     H     0.3254   0.4337   0.25
Ce100     Ce     0.5826   0.5826   0.1393
Ce101     Ce     0.5826   0.5826   0.3607
C102     C     0.4865   0.4865   0.25
H103     H     0.8917   0.3254   0.75
H104     H     0.1083   0.4337   0.75
Ce105     Ce     0.0   0.5826   0.8607
Ce106     Ce     0.0   0.5826   0.6393
C107     C     0.0   0.4865   0.75
H108     H     0.3254   0.8917   0.75
H109     H     0.4337   0.1083   0.75
Ce110     Ce     0.5826   0.0   0.8607
Ce111     Ce     0.5826   0.0   0.6393
C112     C     0.4865   0.0   0.75
H113     H     0.6746   0.1083   0.25
H114     H     0.5663   0.8917   0.25
Ce115     Ce     0.4174   0.0   0.1393
Ce116     Ce     0.4174   0.0   0.3607
C117     C     0.5135   0.0   0.25
H118     H     0.6746   0.5663   0.75
H119     H     0.5663   0.6746   0.75
Ce120     Ce     0.4174   0.4174   0.8607
Ce121     Ce     0.4174   0.4174   0.6393
C122     C     0.5135   0.5135   0.75
V123     V     0.1242   0.2654   0.382
V124     V     0.1412   0.2654   0.618
Ti125     Ti     0.0821   0.1642   0.5
V126     V     0.1412   0.2654   0.882
V127     V     0.1242   0.2654   0.118
Ti128     Ti     0.0821   0.1642   0.0
Er129     Er     0.1981   0.2802   0.25
Er130     Er     0.0821   0.2802   0.75
V131     V     0.8758   0.1412   0.118
V132     V     0.8588   0.1242   0.882
V133     V     0.2654   0.1412   0.882
V134     V     0.1412   0.8758   0.118
V135     V     0.8758   0.7346   0.882
V136     V     0.8588   0.7346   0.118
V137     V     0.2654   0.1242   0.118
V138     V     0.7346   0.8588   0.118
V139     V     0.1242   0.8588   0.882
V140     V     0.7346   0.8758   0.882
Ti141     Ti     0.9179   0.0821   0.0
Ti142     Ti     0.9179   0.8358   0.0
Ti143     Ti     0.8358   0.9179   0.0
Ti144     Ti     0.0821   0.9179   0.0
Ti145     Ti     0.1642   0.0821   0.0
V146     V     0.8758   0.1412   0.382
V147     V     0.1412   0.8758   0.382
V148     V     0.7346   0.8588   0.382
V149     V     0.8588   0.1242   0.618
V150     V     0.8588   0.7346   0.382
V151     V     0.2654   0.1412   0.618
V152     V     0.8758   0.7346   0.618
V153     V     0.2654   0.1242   0.382
V154     V     0.1242   0.8588   0.618
V155     V     0.7346   0.8758   0.618
Ti156     Ti     0.9179   0.0821   0.5
Ti157     Ti     0.9179   0.8358   0.5
Ti158     Ti     0.8358   0.9179   0.5
Ti159     Ti     0.0821   0.9179   0.5
Ti160     Ti     0.1642   0.0821   0.5
Er161     Er     0.9179   0.7198   0.25
Er162     Er     0.7198   0.9179   0.25
Er163     Er     0.0821   0.8019   0.25
Er164     Er     0.2802   0.1981   0.25
Er165     Er     0.8019   0.0821   0.25
Er166     Er     0.9179   0.1981   0.75
Er167     Er     0.2802   0.0821   0.75
Er168     Er     0.1981   0.9179   0.75
Er169     Er     0.8019   0.7198   0.75
Er170     Er     0.7198   0.8019   0.75
loop_
_geom_bond_atom_site_label_1
_geom_bond_atom_site_label_2
_geom_bond_distance
_geom_bond_site_symmetry_2
_ccdc_geom_bond_type
He1     He2    10.0   .     S
He1     Ce116    10.0   .     S
He1     V147    10.0   1_545     S
He1     V153    10.0   .     S
He2     Ce115    10.0   .     S
He2     V134    10.0   1_545     S
He2     V137    10.0   .     S
He3     He4    10.0   .     S
He3     Ce96    10.0   .     S
He3     V123    10.0   .     S
He3     V146    10.0   1_455     S
He4     Ce95    10.0   .     S
He4     V127    10.0   .     S
He4     V131    10.0   1_455     S
He5     He6    10.0   .     S
He5     Ce101    10.0   .     S
He5     V148    10.0   .     S
He5     V150    10.0   .     S
He6     Ce100    10.0   .     S
He6     V136    10.0   .     S
He6     V138    10.0   .     S
He7     He8    10.0   .     S
He7     Ce105    10.0   .     S
He7     V135    10.0   1_455     S
He7     V139    10.0   .     S
He8     Ce106    10.0   .     S
He8     V152    10.0   1_455     S
He8     V154    10.0   .     S
He9     He10    10.0   .     S
He9     Ce120    10.0   .     S
He9     V126    10.0   .     S
He9     V133    10.0   .     S
He10     Ce121    10.0   .     S
He10     V124    10.0   .     S
He10     V151    10.0   .     S
He11     He12    10.0   .     S
He11     Ce111    10.0   .     S
He11     V149    10.0   .     S
He11     V155    10.0   1_545     S
He12     Ce110    10.0   .     S
He12     V132    10.0   .     S
He12     V140    10.0   1_545     S
Be13     V124    10.0   .     S
Be13     Be14    10.0   .     S
Be13     B24    10.0   .     S
Be13     Li29    10.0   .     S
Be14     V123    10.0   .     S
Be14     B32    10.0   .     S
Be14     Li27    10.0   .     S
Be15     V126    10.0   .     S
Be15     Be16    10.0   1_556     S
Be15     B40    10.0   .     S
Be15     Li37    10.0   .     S
Be16     Be15    10.0   1_554     S
Be16     V127    10.0   .     S
Be16     B46    10.0   .     S
Be16     Li43    10.0   .     S
Be17     V154    10.0   .     S
Be17     Be18    10.0   .     S
Be17     B23    10.0   .     S
Be17     Li28    10.0   .     S
Be18     V147    10.0   .     S
Be18     B34    10.0   .     S
Be18     Li35    10.0   .     S
Be19     V155    10.0   .     S
Be19     Be20    10.0   .     S
Be19     B26    10.0   .     S
Be19     Li36    10.0   .     S
Be20     V148    10.0   .     S
Be20     B31    10.0   .     S
Be20     Li30    10.0   .     S
Be21     V140    10.0   .     S
Be21     Be22    10.0   1_556     S
Be21     B42    10.0   .     S
Be21     Li50    10.0   .     S
Be22     Be21    10.0   1_554     S
Be22     V138    10.0   .     S
Be22     B45    10.0   .     S
Be22     Li38    10.0   .     S
B23     S25    10.0   .     S
B23     Li36    10.0   .     S
B23     H108    10.0   .     S
B24     S25    10.0   .     S
B24     Li28    10.0   .     S
B24     H104    10.0   .     S
S25     S41    10.0   .     S
S25     B26    10.0   .     S
B26     Li29    10.0   .     S
B26     H119    10.0   .     S
Li27     Li28    9.999   .     S
Li27     B34    10.0   .     S
Li27     Ce96    10.0   .     S
Li28     Ce106    10.0   .     S
Li29     Li30    9.999   .     S
Li29     Ce121    10.0   .     S
Li30     B32    10.0   .     S
Li30     Ce101    10.0   .     S
B31     S33    10.0   .     S
B31     Li35    10.0   .     S
B31     H114    10.0   .     S
B32     S33    10.0   .     S
B32     H99    10.0   .     S
S33     B34    10.0   .     S
S33     S47    10.0   .     S
B34     H94    10.0   .     S
Li35     Li36    9.999   .     S
Li35     Ce116    10.0   1_565     S
Li36     Ce111    10.0   1_565     S
Li37     Li38    9.999   1_556     S
Li37     B42    10.0   .     S
Li37     Ce120    10.0   .     S
Li38     Li37    9.999   1_554     S
Li38     B46    10.0   .     S
Li38     Ce100    10.0   .     S
B39     Be51    10.0   .     S
B39     S41    10.0   .     S
B39     Li50    10.0   .     S
B39     H108    10.0   .     S
B40     S41    10.0   .     S
B40     Li44    10.0   .     S
B40     H104    10.0   .     S
S41     B42    10.0   .     S
B42     H119    10.0   .     S
Li43     Li44    9.999   1_554     S
Li43     B48    10.0   .     S
Li43     Ce95    10.0   .     S
Li44     Li43    9.999   1_556     S
Li44     Ce105    10.0   .     S
Li44     Be51    10.0   .     S
B45     S47    10.0   .     S
B45     Li49    10.0   .     S
B45     H114    10.0   .     S
B46     S47    10.0   .     S
B46     H99    10.0   .     S
S47     B48    10.0   .     S
B48     Be52    10.0   .     S
B48     H94    10.0   .     S
Li49     Li50    9.999   1_554     S
Li49     Ce115    10.0   1_565     S
Li49     Be52    10.0   .     S
Li50     Li49    9.999   1_556     S
Li50     Ce110    10.0   1_565     S
Be51     V139    10.0   .     S
Be51     Be52    10.0   1_556     S
Be52     Be51    10.0   1_554     S
Be52     V134    10.0   .     S
Be53     V151    10.0   .     S
Be53     Be54    10.0   .     S
Be53     B81    10.0   .     S
Be53     Li77    10.0   .     S
Be54     V153    10.0   .     S
Be54     B88    10.0   .     S
Be54     Li84    10.0   .     S
Be55     V133    10.0   .     S
Be55     Be56    10.0   1_556     S
Be55     B66    10.0   .     S
Be55     Li64    10.0   .     S
Be56     Be55    10.0   1_554     S
Be56     V137    10.0   .     S
Be56     B74    10.0   .     S
Be56     Li69    10.0   .     S
Be57     V152    10.0   .     S
Be57     Be58    10.0   .     S
Be57     B80    10.0   .     S
Be57     Li90    10.0   .     S
Be58     V150    10.0   .     S
Be58     B86    10.0   .     S
Be58     Li78    10.0   .     S
Be59     V135    10.0   .     S
Be59     Be60    10.0   1_556     S
Be59     B68    10.0   .     S
Be59     Li76    10.0   .     S
Be60     Be59    10.0   1_554     S
Be60     V136    10.0   .     S
Be60     B71    10.0   .     S
Be60     Li63    10.0   .     S
Be61     V149    10.0   .     S
Be61     Be62    10.0   .     S
Be61     B79    10.0   .     S
Be61     Li83    10.0   .     S
Be62     V146    10.0   .     S
Be62     B85    10.0   .     S
Be62     Li89    10.0   .     S
Li63     Li64    9.999   1_554     S
Li63     B74    10.0   .     S
Li63     Ce100    10.0   .     S
Li64     Li63    9.999   1_556     S
Li64     B68    10.0   .     S
Li64     Ce120    10.0   .     S
B65     Be91    10.0   .     S
B65     S67    10.0   .     S
B65     Li76    10.0   .     S
B65     H103    10.0   .     S
B66     S67    10.0   .     S
B66     Li70    10.0   .     S
B66     H109    10.0   .     S
S67     S82    10.0   .     S
S67     B68    10.0   .     S
B68     H118    10.0   .     S
Li69     Li70    9.999   1_554     S
Li69     B73    10.0   .     S
Li69     Ce115    10.0   .     S
Li70     Li69    9.999   1_556     S
Li70     Ce110    10.0   .     S
Li70     Be91    10.0   .     S
B71     S72    10.0   .     S
B71     Li75    10.0   .     S
B71     H93    10.0   .     S
S72     B73    10.0   .     S
S72     B74    10.0   .     S
S72     S87    10.0   .     S
B73     Be92    10.0   .     S
B73     H113    10.0   .     S
B74     H98    10.0   .     S
Li75     Li76    9.999   1_554     S
Li75     Ce95    10.0   1_655     S
Li75     Be92    10.0   .     S
Li76     Li75    9.999   1_556     S
Li76     Ce105    10.0   1_655     S
Li77     Li78    9.999   .     S
Li77     B80    10.0   .     S
Li77     Ce121    10.0   .     S
Li78     B88    10.0   .     S
Li78     Ce101    10.0   .     S
B79     S82    10.0   .     S
B79     Li90    10.0   .     S
B79     H103    10.0   .     S
B80     S82    10.0   .     S
B80     H118    10.0   .     S
B81     S82    10.0   .     S
B81     Li83    10.0   .     S
B81     H109    10.0   .     S
Li83     Li84    9.999   .     S
Li83     Ce111    10.0   .     S
Li84     B85    10.0   .     S
Li84     Ce116    10.0   .     S
B85     S87    10.0   .     S
B85     H113    10.0   .     S
B86     S87    10.0   .     S
B86     Li89    10.0   .     S
B86     H93    10.0   .     S
S87     B88    10.0   .     S
B88     H98    10.0   .     S
Li89     Li90    9.999   .     S
Li89     Ce96    10.0   1_655     S
Li90     Ce106    10.0   1_655     S
Be91     V132    10.0   .     S
Be91     Be92    10.0   1_556     S
Be92     Be91    10.0   1_554     S
Be92     V131    10.0   .     S
H93     Er161    10.0   .     S
H93     C97    10.0   1_655     S
H94     Er163    10.0   .     S
H94     C97    10.0   .     S
Ce95     Li75    10.0   1_455     S
Ce95     C97    10.0   .     S
Ce96     Li89    10.0   1_455     S
Ce96     C97    10.0   .     S
C97     H93    10.0   1_455     S
H98     Er164    10.0   .     S
H98     C102    10.0   .     S
H99     Er129    10.0   .     S
H99     C102    10.0   .     S
Ce100     C102    10.0   .     S
Ce101     C102    10.0   .     S
H103     Er166    10.0   .     S
H103     C107    10.0   1_655     S
H104     Er130    10.0   .     S
H104     C107    10.0   .     S
Ce105     Li76    10.0   1_455     S
Ce105     C107    10.0   .     S
Ce106     Li90    10.0   1_455     S
Ce106     C107    10.0   .     S
C107     H103    10.0   1_455     S
H108     Er168    10.0   .     S
H108     C112    10.0   1_565     S
H109     Er167    10.0   .     S
H109     C112    10.0   .     S
Ce110     Li50    10.0   1_545     S
Ce110     C112    10.0   .     S
Ce111     Li36    10.0   1_545     S
Ce111     C112    10.0   .     S
C112     H108    10.0   1_545     S
H113     Er165    10.0   .     S
H113     C117    10.0   .     S
H114     Er162    10.0   .     S
H114     C117    10.0   1_565     S
Ce115     Li49    10.0   1_545     S
Ce115     C117    10.0   .     S
Ce116     Li35    10.0   1_545     S
Ce116     C117    10.0   .     S
C117     H114    10.0   1_545     S
H118     Er169    10.0   .     S
H118     C122    10.0   .     S
H119     Er170    10.0   .     S
H119     C122    10.0   .     S
Ce120     C122    10.0   .     S
Ce121     C122    10.0   .     S
V123     Er129    10.0   .     S
V123     Ti125    10.0   .     S
V124     Er130    10.0   .     S
V124     Ti125    10.0   .     S
Ti125     Ti160    10.0   .     S
Ti125     Ti156    10.0   1_455     S
V126     Er130    10.0   .     S
V126     Ti128    10.0   1_556     S
V127     Er129    10.0   .     S
V127     Ti128    10.0   .     S
Ti128     Ti145    10.0   .     S
Ti128     V126    10.0   1_554     S
Ti128     Ti141    10.0   1_455     S
Er129     Er164    10.0   .     S
Er130     Er166    10.0   1_455     S
V131     He4    10.0   1_655     S
V131     Er165    10.0   .     S
V131     Ti141    10.0   .     S
V132     Er166    10.0   .     S
V132     Ti141    10.0   1_556     S
V133     Er167    10.0   .     S
V133     Ti145    10.0   1_556     S
V134     He2    10.0   1_565     S
V134     Er163    10.0   .     S
V134     Ti144    10.0   .     S
V135     He7    10.0   1_655     S
V135     Er169    10.0   .     S
V135     Ti142    10.0   1_556     S
V136     Er161    10.0   .     S
V136     Ti142    10.0   .     S
V137     Er164    10.0   .     S
V137     Ti145    10.0   .     S
V138     Er162    10.0   .     S
V138     Ti143    10.0   .     S
V139     Er168    10.0   .     S
V139     Ti144    10.0   1_556     S
V140     He12    10.0   1_565     S
V140     Er170    10.0   .     S
V140     Ti143    10.0   1_556     S
Ti141     Ti143    10.0   1_545     S
Ti141     Ti128    10.0   1_655     S
Ti141     V132    10.0   1_554     S
Ti142     Ti143    10.0   .     S
Ti142     Ti144    10.0   1_655     S
Ti142     V135    10.0   1_554     S
Ti143     Ti141    10.0   1_565     S
Ti143     V140    10.0   1_554     S
Ti144     Ti145    9.999   1_565     S
Ti144     Ti142    10.0   1_455     S
Ti144     V139    10.0   1_554     S
Ti145     Ti144    9.999   1_545     S
Ti145     V133    10.0   1_554     S
V146     He3    10.0   1_655     S
V146     Er165    10.0   .     S
V146     Ti156    10.0   .     S
V147     He1    10.0   1_565     S
V147     Er163    10.0   .     S
V147     Ti159    10.0   .     S
V148     Er162    10.0   .     S
V148     Ti158    10.0   .     S
V149     Er166    10.0   .     S
V149     Ti156    10.0   .     S
V150     Er161    10.0   .     S
V150     Ti157    10.0   .     S
V151     Er167    10.0   .     S
V151     Ti160    10.0   .     S
V152     He8    10.0   1_655     S
V152     Er169    10.0   .     S
V152     Ti157    10.0   .     S
V153     Er164    10.0   .     S
V153     Ti160    10.0   .     S
V154     Er168    10.0   .     S
V154     Ti159    10.0   .     S
V155     He11    10.0   1_565     S
V155     Er170    10.0   .     S
V155     Ti158    10.0   .     S
Ti156     Ti158    10.0   1_545     S
Ti156     Ti125    10.0   1_655     S
Ti157     Ti158    10.0   .     S
Ti157     Ti159    10.0   1_655     S
Ti158     Ti156    10.0   1_565     S
Ti159     Ti160    9.999   1_565     S
Ti159     Ti157    10.0   1_455     S
Ti160     Ti159    9.999   1_545     S
Er161     Er163    10.0   1_655     S
Er162     Er165    10.0   1_565     S
Er163     Er161    10.0   1_455     S
Er165     Er162    10.0   1_545     S
Er166     Er130    10.0   1_655     S
Er167     Er168    10.0   1_545     S
Er168     Er167    10.0   1_565     S
Er169     Er170    10.0   .     S
