data_oft
_audit_creation_date              2020-02-04
_audit_creation_method            'Pymatgen'
_symmetry_space_group_name_H-M    'P1'
_symmetry_Int_Tables_number       1
loop_
_symmetry_equiv_pos_as_xyz
  x,y,z
_cell_length_a                    16.1171
_cell_length_b                    16.1171
_cell_length_c                    46.8298
_cell_angle_alpha                 90.0
_cell_angle_beta                 90.0
_cell_angle_gamma                 120.0
loop_
_atom_site_label
_atom_site_type_symbol
_atom_site_fract_x
_atom_site_fract_y
_atom_site_fract_z
V1     V     0.9538   0.2871   0.9167
V2     V     0.6205   0.0   0.75
V3     V     0.7129   0.0462   0.4167
V4     V     0.6205   0.6205   0.25
V5     V     0.0   0.6205   0.75
V6     V     0.9538   0.6667   0.4167
V7     V     0.7129   0.6667   0.9167
V8     V     0.3795   0.3795   0.75
V9     V     0.3333   0.0462   0.9167
V10     V     0.6667   0.9538   0.0833
V11     V     0.0462   0.7129   0.0833
V12     V     0.3333   0.2871   0.4167
V13     V     0.3795   0.0   0.25
V14     V     0.0   0.3795   0.25
V15     V     0.6667   0.7129   0.5833
V16     V     0.2871   0.9538   0.5833
V17     V     0.2871   0.3333   0.0833
V18     V     0.0462   0.3333   0.5833
Er19     Er     0.3333   0.6667   0.9167
Er20     Er     0.6667   0.3333   0.5833
Er21     Er     0.6667   0.3333   0.0833
Er22     Er     0.3333   0.6667   0.4167
Er23     Er     0.0   0.0   0.25
Er24     Er     0.0   0.0   0.75
loop_
_geom_bond_atom_site_label_1
_geom_bond_atom_site_label_2
_geom_bond_distance
_geom_bond_site_symmetry_2
_ccdc_geom_bond_type
V1     V8    10.0   1_655     S
V1     Er19    10.0   1_545     S
V1     V11    10.0   1_656     S
V2     V18    10.0   1_655     S
V2     V7    10.0   1_545     S
V2     Er24    10.0   .     S
V3     V16    10.0   1_545     S
V3     Er22    10.0   1_655     S
V3     V4    10.0   1_545     S
V4     V11    10.0   1_655     S
V4     Er23    10.0   .     S
V4     V3    10.0   1_565     S
V5     Er24    10.0   .     S
V5     V15    10.0   1_455     S
V5     V9    10.0   1_565     S
V6     V13    10.0   1_665     S
V6     V18    10.0   1_655     S
V6     Er22    10.0   .     S
V7     V17    10.0   1_556     S
V7     V2    10.0   1_565     S
V7     Er19    10.0   1_655     S
V8     V1    10.0   1_455     S
V8     Er24    10.0   1_665     S
V8     V16    10.0   1_545     S
V9     Er19    10.0   .     S
V9     V10    10.0   1_546     S
V9     V5    10.0   1_545     S
V10     Er21    10.0   .     S
V10     V9    10.0   1_564     S
V10     V14    10.0   1_665     S
V11     V4    10.0   1_455     S
V11     Er21    10.0   1_565     S
V11     V1    10.0   1_454     S
V12     Er22    10.0   1_545     S
V12     V14    10.0   .     S
V12     V15    10.0   .     S
V13     V6    10.0   1_445     S
V13     V17    10.0   .     S
V13     Er23    10.0   1_655     S
V14     Er23    10.0   1_565     S
V14     V10    10.0   1_445     S
V15     Er20    10.0   1_565     S
V15     V5    10.0   1_655     S
V16     V3    10.0   1_565     S
V16     Er20    10.0   1_455     S
V16     V8    10.0   1_565     S
V17     V7    10.0   1_554     S
V17     Er21    10.0   1_455     S
V18     V2    10.0   1_455     S
V18     V6    10.0   1_455     S
V18     Er20    10.0   .     S
Er19     V1    10.0   1_565     S
Er19     V7    10.0   1_455     S
Er20     V15    10.0   1_545     S
Er20     V16    10.0   1_655     S
Er21     V11    10.0   1_545     S
Er21     V17    10.0   1_655     S
Er22     V12    10.0   1_565     S
Er22     V3    10.0   1_455     S
Er23     V14    10.0   1_545     S
Er23     V13    10.0   1_455     S
Er24     V8    10.0   1_445     S
