data_ooda
_audit_creation_date              2020-02-04
_audit_creation_method            'Pymatgen'
_symmetry_space_group_name_H-M    'P1'
_symmetry_Int_Tables_number       1
loop_
_symmetry_equiv_pos_as_xyz
  x,y,z
_cell_length_a                    96.2154
_cell_length_b                    96.2154
_cell_length_c                    55.2655
_cell_angle_alpha                 90.0
_cell_angle_beta                 90.0
_cell_angle_gamma                 120.0
loop_
_atom_site_label
_atom_site_type_symbol
_atom_site_fract_x
_atom_site_fract_y
_atom_site_fract_z
V1     V     0.7436   0.4873   0.7187
V2     V     0.7436   0.4873   0.2813
Ce3     Ce     0.6759   0.6159   0.9095
Ce4     Ce     0.6759   0.6159   0.0905
Er5     Er     0.8327   0.5614   0.8286
Er6     Er     0.7287   0.5614   0.8286
Ce7     Ce     0.94   0.6159   0.9095
Ce8     Ce     0.94   0.6159   0.0905
Er9     Er     0.8327   0.5614   0.1714
Er10     Er     0.7287   0.5614   0.1714
V11     V     0.7436   0.2564   0.7187
V12     V     0.7436   0.2564   0.2813
Ce13     Ce     0.94   0.3241   0.9095
Ce14     Ce     0.94   0.3241   0.0905
Er15     Er     0.8327   0.2713   0.8286
Er16     Er     0.7287   0.1673   0.8286
Ce17     Ce     0.6759   0.06   0.9095
Ce18     Ce     0.6759   0.06   0.0905
Er19     Er     0.8327   0.2713   0.1714
Er20     Er     0.7287   0.1673   0.1714
Ti21     Ti     0.7013   0.2987   0.5905
Ti22     Ti     0.5974   0.2987   0.5905
Ti23     Ti     0.7013   0.4026   0.5905
Ti24     Ti     0.7013   0.2987   0.4095
Ti25     Ti     0.7013   0.4026   0.4095
Ti26     Ti     0.5974   0.2987   0.4095
V27     V     0.5127   0.2564   0.7187
Er28     Er     0.4386   0.1673   0.8286
Ce29     Ce     0.3841   0.06   0.9095
Ce30     Ce     0.3841   0.06   0.0905
Er31     Er     0.4386   0.1673   0.1714
V32     V     0.5127   0.2564   0.2813
Er33     Er     0.4386   0.2713   0.8286
Ce34     Ce     0.3841   0.3241   0.9095
Ce35     Ce     0.3841   0.3241   0.0905
Er36     Er     0.4386   0.2713   0.1714
V37     V     0.2564   0.5127   0.7187
Er38     Er     0.1673   0.4386   0.8286
Ce39     Ce     0.06   0.3841   0.9095
Ce40     Ce     0.06   0.3841   0.0905
Er41     Er     0.1673   0.4386   0.1714
V42     V     0.2564   0.5127   0.2813
Er43     Er     0.2713   0.4386   0.8286
Ce44     Ce     0.3241   0.3841   0.9095
Ce45     Ce     0.3241   0.3841   0.0905
Er46     Er     0.2713   0.4386   0.1714
V47     V     0.2564   0.7436   0.7187
V48     V     0.2564   0.7436   0.2813
Ce49     Ce     0.3241   0.94   0.9095
Ce50     Ce     0.3241   0.94   0.0905
Er51     Er     0.1673   0.7287   0.8286
Er52     Er     0.2713   0.8327   0.8286
Ce53     Ce     0.06   0.6759   0.9095
Ce54     Ce     0.06   0.6759   0.0905
Er55     Er     0.1673   0.7287   0.1714
Er56     Er     0.2713   0.8327   0.1714
Ti57     Ti     0.2987   0.7013   0.5905
Ti58     Ti     0.4026   0.7013   0.5905
Ti59     Ti     0.2987   0.5974   0.5905
Ti60     Ti     0.2987   0.5974   0.4095
Ti61     Ti     0.4026   0.7013   0.4095
Ti62     Ti     0.2987   0.7013   0.4095
V63     V     0.4873   0.7436   0.7187
V64     V     0.4873   0.7436   0.2813
Ce65     Ce     0.6159   0.94   0.9095
Ce66     Ce     0.6159   0.94   0.0905
Er67     Er     0.5614   0.8327   0.8286
Er68     Er     0.5614   0.7287   0.8286
Ce69     Ce     0.6159   0.6759   0.9095
Ce70     Ce     0.6159   0.6759   0.0905
Er71     Er     0.5614   0.8327   0.1714
Er72     Er     0.5614   0.7287   0.1714
loop_
_geom_bond_atom_site_label_1
_geom_bond_atom_site_label_2
_geom_bond_distance
_geom_bond_site_symmetry_2
_ccdc_geom_bond_type
V1     Ti23    10.0   .     S
V1     Er6    10.0   .     S
V1     Er5    10.0   .     S
V2     Ti25    10.0   .     S
V2     Er10    10.0   .     S
V2     Er9    10.0   .     S
Ce3     Er6    10.0   .     S
Ce3     Ce4    10.0   1_556     S
Ce3     Ce69    10.001   .     S
Ce4     Er10    10.0   .     S
Ce4     Ce3    10.0   1_554     S
Ce4     Ce70    10.001   .     S
Er5     Er6    10.0   .     S
Er5     Ce7    10.0   .     S
Ce7     Ce8    10.0   1_556     S
Ce7     Ce53    10.001   1_655     S
Ce8     Er9    10.0   .     S
Ce8     Ce7    10.0   1_554     S
Ce8     Ce54    10.001   1_655     S
Er9     Er10    10.0   .     S
V11     Ti21    10.0   .     S
V11     Er16    10.0   .     S
V11     Er15    10.0   .     S
V12     Ti24    10.0   .     S
V12     Er20    10.0   .     S
V12     Er19    10.0   .     S
Ce13     Er15    10.0   .     S
Ce13     Ce14    10.0   1_556     S
Ce13     Ce39    10.001   1_655     S
Ce14     Er19    10.0   .     S
Ce14     Ce13    10.0   1_554     S
Ce14     Ce40    10.001   1_655     S
Er15     Er16    10.0   .     S
Er16     Ce17    10.0   .     S
Ce17     Ce18    10.0   1_556     S
Ce17     Ce65    10.001   1_545     S
Ce18     Er20    10.0   .     S
Ce18     Ce17    10.0   1_554     S
Ce18     Ce66    10.001   1_545     S
Er19     Er20    10.0   .     S
Ti21     Ti23    10.0   .     S
Ti21     Ti22    10.0   .     S
Ti21     Ti24    10.0   .     S
Ti22     Ti23    10.0   .     S
Ti22     Ti26    10.0   .     S
Ti22     V27    10.0   .     S
Ti23     Ti25    10.0   .     S
Ti24     Ti26    10.0   .     S
Ti24     Ti25    10.0   .     S
Ti25     Ti26    10.0   .     S
Ti26     V32    10.0   .     S
V27     Er28    10.0   .     S
V27     Er33    10.0   .     S
Er28     Ce29    10.0   .     S
Er28     Er33    10.0   .     S
Ce29     Ce30    10.0   1_556     S
Ce29     Ce49    10.001   1_545     S
Ce30     Er31    10.0   .     S
Ce30     Ce29    10.0   1_554     S
Ce30     Ce50    10.001   1_545     S
Er31     Er36    10.0   .     S
Er31     V32    10.0   .     S
V32     Er36    10.0   .     S
Er33     Ce34    10.0   .     S
Ce34     Ce35    10.0   1_556     S
Ce34     Ce44    10.001   .     S
Ce35     Er36    10.0   .     S
Ce35     Ce34    10.0   1_554     S
Ce35     Ce45    10.001   .     S
V37     Ti59    10.0   .     S
V37     Er38    10.0   .     S
V37     Er43    10.0   .     S
Er38     Er43    10.0   .     S
Er38     Ce39    10.0   .     S
Ce39     Ce13    10.001   1_455     S
Ce39     Ce40    10.0   1_556     S
Ce40     Ce14    10.001   1_455     S
Ce40     Er41    10.0   .     S
Ce40     Ce39    10.0   1_554     S
Er41     V42    10.0   .     S
Er41     Er46    10.0   .     S
V42     Ti60    10.0   .     S
V42     Er46    10.0   .     S
Er43     Ce44    10.0   .     S
Ce44     Ce45    10.0   1_556     S
Ce45     Er46    10.0   .     S
Ce45     Ce44    10.0   1_554     S
V47     Ti57    10.0   .     S
V47     Er51    10.0   .     S
V47     Er52    10.0   .     S
V48     Ti62    10.0   .     S
V48     Er55    10.0   .     S
V48     Er56    10.0   .     S
Ce49     Er52    10.0   .     S
Ce49     Ce50    10.0   1_556     S
Ce49     Ce29    10.001   1_565     S
Ce50     Er56    10.0   .     S
Ce50     Ce49    10.0   1_554     S
Ce50     Ce30    10.001   1_565     S
Er51     Er52    10.0   .     S
Er51     Ce53    10.0   .     S
Ce53     Ce54    10.0   1_556     S
Ce53     Ce7    10.001   1_455     S
Ce54     Er55    10.0   .     S
Ce54     Ce53    10.0   1_554     S
Ce54     Ce8    10.001   1_455     S
Er55     Er56    10.0   .     S
Ti57     Ti59    10.0   .     S
Ti57     Ti58    10.0   .     S
Ti57     Ti62    10.0   .     S
Ti58     Ti59    10.0   .     S
Ti58     Ti61    10.0   .     S
Ti58     V63    10.0   .     S
Ti59     Ti60    10.0   .     S
Ti60     Ti62    10.0   .     S
Ti60     Ti61    10.0   .     S
Ti61     Ti62    10.0   .     S
Ti61     V64    10.0   .     S
V63     Er67    10.0   .     S
V63     Er68    10.0   .     S
V64     Er71    10.0   .     S
V64     Er72    10.0   .     S
Ce65     Er67    10.0   .     S
Ce65     Ce66    10.0   1_556     S
Ce65     Ce17    10.001   1_565     S
Ce66     Er71    10.0   .     S
Ce66     Ce65    10.0   1_554     S
Ce66     Ce18    10.001   1_565     S
Er67     Er68    10.0   .     S
Er68     Ce69    10.0   .     S
Ce69     Ce70    10.0   1_556     S
Ce70     Er72    10.0   .     S
Ce70     Ce69    10.0   1_554     S
Er71     Er72    10.0   .     S
