data_pbg
_audit_creation_date              2020-02-04
_audit_creation_method            'Pymatgen'
_symmetry_space_group_name_H-M    'P1'
_symmetry_Int_Tables_number       1
loop_
_symmetry_equiv_pos_as_xyz
  x,y,z
_cell_length_a                    67.0587
_cell_length_b                    67.0587
_cell_length_c                    67.0587
_cell_angle_alpha                 90.0
_cell_angle_beta                 90.0
_cell_angle_gamma                 90.0
loop_
_atom_site_label
_atom_site_type_symbol
_atom_site_fract_x
_atom_site_fract_y
_atom_site_fract_z
V1     V     0.8604   0.1733   0.3092
V2     V     0.9408   0.0767   0.3896
V3     V     0.8092   0.8604   0.3267
V4     V     0.8896   0.9408   0.4233
V5     V     0.9408   0.9233   0.1104
V6     V     0.8604   0.8267   0.1908
V7     V     0.8092   0.1396   0.1733
V8     V     0.8896   0.0592   0.0767
V9     V     0.4233   0.6104   0.4408
V10     V     0.3267   0.6908   0.3604
V11     V     0.1908   0.6396   0.3267
V12     V     0.1104   0.5592   0.4233
V13     V     0.6396   0.1733   0.6908
V14     V     0.5592   0.0767   0.6104
V15     V     0.0767   0.6104   0.5592
V16     V     0.1733   0.6908   0.6396
V17     V     0.6104   0.0592   0.9233
V18     V     0.6908   0.1396   0.8267
V19     V     0.5767   0.8896   0.4408
V20     V     0.6733   0.8092   0.3604
V21     V     0.6396   0.6733   0.3092
V22     V     0.5592   0.5767   0.3896
V23     V     0.5592   0.9233   0.8896
V24     V     0.6396   0.8267   0.8092
V25     V     0.6104   0.9408   0.5767
V26     V     0.6908   0.8604   0.6733
V27     V     0.1733   0.3092   0.8604
V28     V     0.0767   0.3896   0.9408
V29     V     0.1396   0.1733   0.8092
V30     V     0.0592   0.0767   0.8896
V31     V     0.9233   0.1104   0.9408
V32     V     0.8267   0.1908   0.8604
V33     V     0.6733   0.3092   0.6396
V34     V     0.5767   0.3896   0.5592
V35     V     0.9408   0.4233   0.8896
V36     V     0.8604   0.3267   0.8092
V37     V     0.8896   0.4408   0.5767
V38     V     0.8092   0.3604   0.6733
V39     V     0.9233   0.8896   0.5592
V40     V     0.8267   0.8092   0.6396
V41     V     0.8604   0.6733   0.6908
V42     V     0.9408   0.5767   0.6104
V43     V     0.6733   0.1908   0.1396
V44     V     0.5767   0.1104   0.0592
V45     V     0.1908   0.1396   0.6733
V46     V     0.1104   0.0592   0.5767
V47     V     0.0592   0.9233   0.6104
V48     V     0.1396   0.8267   0.6908
V49     V     0.4233   0.1104   0.5592
V50     V     0.3267   0.1908   0.6396
V51     V     0.3896   0.4408   0.9233
V52     V     0.3092   0.3604   0.8267
V53     V     0.4408   0.4233   0.6104
V54     V     0.3604   0.3267   0.6908
V55     V     0.4233   0.3896   0.0592
V56     V     0.3267   0.3092   0.1396
V57     V     0.1104   0.4408   0.0767
V58     V     0.1908   0.3604   0.1733
V59     V     0.3896   0.9408   0.0767
V60     V     0.3092   0.8604   0.1733
V61     V     0.9233   0.3896   0.4408
V62     V     0.8267   0.3092   0.3604
V63     V     0.6104   0.4408   0.4233
V64     V     0.6908   0.3604   0.3267
V65     V     0.5592   0.4233   0.1104
V66     V     0.6396   0.3267   0.1908
V67     V     0.0767   0.1104   0.4408
V68     V     0.1733   0.1908   0.3604
V69     V     0.0592   0.4233   0.3896
V70     V     0.1396   0.3267   0.3092
V71     V     0.4408   0.9233   0.3896
V72     V     0.3604   0.8267   0.3092
V73     V     0.3896   0.0592   0.4233
V74     V     0.3092   0.1396   0.3267
V75     V     0.3604   0.1733   0.1908
V76     V     0.4408   0.0767   0.1104
V77     V     0.8896   0.5592   0.9233
V78     V     0.8092   0.6396   0.8267
V79     V     0.5767   0.6104   0.9408
V80     V     0.6733   0.6908   0.8604
V81     V     0.4408   0.5767   0.8896
V82     V     0.3604   0.6733   0.8092
V83     V     0.3267   0.8092   0.8604
V84     V     0.4233   0.8896   0.9408
V85     V     0.3896   0.5592   0.5767
V86     V     0.3092   0.6396   0.6733
V87     V     0.1104   0.9408   0.9233
V88     V     0.1908   0.8604   0.8267
V89     V     0.9233   0.6104   0.0592
V90     V     0.8267   0.6908   0.1396
V91     V     0.6908   0.6396   0.1733
V92     V     0.6104   0.5592   0.0767
V93     V     0.0592   0.5767   0.1104
V94     V     0.1396   0.6733   0.1908
V95     V     0.1733   0.8092   0.1396
V96     V     0.0767   0.8896   0.0592
loop_
_geom_bond_atom_site_label_1
_geom_bond_atom_site_label_2
_geom_bond_distance
_geom_bond_site_symmetry_2
_ccdc_geom_bond_type
V1     V2    10.0   .     S
V1     V7    10.0   .     S
V1     V62    10.0   .     S
V2     V4    10.0   1_545     S
V2     V67    10.0   1_655     S
V3     V4    10.0   .     S
V3     V20    10.0   .     S
V3     V6    10.0   .     S
V4     V2    10.0   1_565     S
V4     V39    10.0   .     S
V5     V6    10.0   .     S
V5     V8    10.0   1_565     S
V5     V96    10.0   1_655     S
V6     V90    10.0   .     S
V7     V8    10.0   .     S
V7     V43    10.0   .     S
V8     V31    10.0   1_554     S
V8     V5    10.0   1_545     S
V9     V10    10.0   .     S
V9     V22    10.0   .     S
V9     V85    10.0   .     S
V10     V72    10.0   .     S
V10     V11    10.0   .     S
V11     V12    10.0   .     S
V11     V94    10.0   .     S
V12     V15    10.0   .     S
V12     V69    10.0   .     S
V13     V14    10.0   .     S
V13     V18    10.0   .     S
V13     V33    10.0   .     S
V14     V25    10.0   1_545     S
V14     V49    10.0   .     S
V15     V16    10.0   .     S
V15     V42    10.0   1_455     S
V16     V48    10.0   .     S
V16     V86    10.0   .     S
V17     V18    10.0   .     S
V17     V44    10.0   1_556     S
V17     V23    10.0   1_545     S
V18     V32    10.0   .     S
V19     V20    10.0   .     S
V19     V25    10.0   .     S
V19     V71    10.0   .     S
V20     V21    10.0   .     S
V21     V22    10.0   .     S
V21     V91    10.0   .     S
V22     V63    10.0   .     S
V23     V24    10.0   .     S
V23     V17    10.0   1_565     S
V23     V84    10.0   .     S
V24     V26    10.0   .     S
V24     V80    10.0   .     S
V25     V14    10.0   1_565     S
V25     V26    10.0   .     S
V26     V40    10.0   .     S
V27     V28    10.0   .     S
V27     V52    10.0   .     S
V27     V29    10.0   .     S
V28     V35    10.0   1_455     S
V28     V57    10.0   1_556     S
V29     V30    10.0   .     S
V29     V45    10.0   .     S
V30     V87    10.0   1_545     S
V30     V31    10.0   1_455     S
V31     V8    10.0   1_556     S
V31     V30    10.0   1_655     S
V31     V32    10.0   .     S
V32     V36    10.0   .     S
V33     V34    10.0   .     S
V33     V38    10.0   .     S
V34     V53    10.0   .     S
V34     V63    10.0   .     S
V35     V28    10.0   1_655     S
V35     V36    10.0   .     S
V35     V77    10.0   .     S
V36     V38    10.0   .     S
V37     V38    10.0   .     S
V37     V42    10.0   .     S
V37     V61    10.0   .     S
V39     V40    10.0   .     S
V39     V47    10.0   1_655     S
V40     V41    10.0   .     S
V41     V42    10.0   .     S
V41     V78    10.0   .     S
V42     V15    10.0   1_655     S
V43     V44    10.0   .     S
V43     V66    10.0   .     S
V44     V17    10.0   1_554     S
V44     V76    10.0   .     S
V45     V46    10.0   .     S
V45     V50    10.0   .     S
V46     V47    10.0   1_545     S
V46     V67    10.0   .     S
V47     V46    10.0   1_565     S
V47     V48    10.0   .     S
V47     V39    10.0   1_455     S
V48     V88    10.0   .     S
V49     V50    10.0   .     S
V49     V73    10.0   .     S
V50     V54    10.0   .     S
V51     V52    10.0   .     S
V51     V55    10.0   1_556     S
V51     V81    10.0   .     S
V52     V54    10.0   .     S
V53     V54    10.0   .     S
V53     V85    10.0   .     S
V55     V51    10.0   1_554     S
V55     V56    10.0   .     S
V55     V65    10.0   .     S
V56     V58    10.0   .     S
V56     V75    10.0   .     S
V57     V58    10.0   .     S
V57     V28    10.0   1_554     S
V57     V93    10.0   .     S
V58     V70    10.0   .     S
V59     V60    10.0   .     S
V59     V84    10.0   1_554     S
V59     V76    10.0   1_565     S
V60     V95    10.0   .     S
V60     V72    10.0   .     S
V61     V62    10.0   .     S
V61     V69    10.0   1_655     S
V62     V64    10.0   .     S
V63     V64    10.0   .     S
V64     V66    10.0   .     S
V65     V66    10.0   .     S
V65     V92    10.0   .     S
V67     V68    10.0   .     S
V67     V2    10.0   1_455     S
V68     V74    10.0   .     S
V68     V70    10.0   .     S
V69     V70    10.0   .     S
V69     V61    10.0   1_455     S
V71     V72    10.0   .     S
V71     V73    10.0   1_565     S
V73     V71    10.0   1_545     S
V73     V74    10.0   .     S
V74     V75    10.0   .     S
V75     V76    10.0   .     S
V76     V59    10.0   1_545     S
V77     V78    10.0   .     S
V77     V89    10.0   1_556     S
V78     V80    10.0   .     S
V79     V80    10.0   .     S
V79     V81    10.0   .     S
V79     V92    10.0   1_556     S
V81     V82    10.0   .     S
V82     V83    10.0   .     S
V82     V86    10.0   .     S
V83     V84    10.0   .     S
V83     V88    10.0   .     S
V84     V59    10.0   1_556     S
V85     V86    10.0   .     S
V87     V30    10.0   1_565     S
V87     V88    10.0   .     S
V87     V96    10.0   1_556     S
V89     V90    10.0   .     S
V89     V93    10.0   1_655     S
V89     V77    10.0   1_554     S
V90     V91    10.0   .     S
V91     V92    10.0   .     S
V92     V79    10.0   1_554     S
V93     V94    10.0   .     S
V93     V89    10.0   1_455     S
V94     V95    10.0   .     S
V95     V96    10.0   .     S
V96     V5    10.0   1_455     S
V96     V87    10.0   1_554     S
