data_pbgl
_audit_creation_date              2020-02-04
_audit_creation_method            'Pymatgen'
_symmetry_space_group_name_H-M    'P1'
_symmetry_Int_Tables_number       1
loop_
_symmetry_equiv_pos_as_xyz
  x,y,z
_cell_length_a                    112.4901
_cell_length_b                    112.4901
_cell_length_c                    112.4901
_cell_angle_alpha                 90.0
_cell_angle_beta                 90.0
_cell_angle_gamma                 90.0
loop_
_atom_site_label
_atom_site_type_symbol
_atom_site_fract_x
_atom_site_fract_y
_atom_site_fract_z
V1     V     0.5077   0.569   0.9448
V2     V     0.2423   0.3052   0.819
V3     V     0.0077   0.431   0.9448
V4     V     0.819   0.2423   0.3052
V5     V     0.9448   0.5077   0.569
V6     V     0.7423   0.6948   0.819
V7     V     0.569   0.9448   0.5077
V8     V     0.819   0.7423   0.6948
V9     V     0.3052   0.819   0.2423
V10     V     0.6948   0.819   0.7423
V11     V     0.569   0.0552   0.9923
V12     V     0.0552   0.9923   0.569
V13     V     0.9923   0.569   0.0552
V14     V     0.4448   0.4923   0.569
V15     V     0.5552   0.0077   0.569
V16     V     0.569   0.4448   0.4923
V17     V     0.569   0.5552   0.0077
V18     V     0.4923   0.569   0.4448
V19     V     0.819   0.7577   0.1948
V20     V     0.0077   0.569   0.5552
V21     V     0.4923   0.431   0.0552
V22     V     0.7577   0.1948   0.819
V23     V     0.1948   0.819   0.7577
V24     V     0.9448   0.0077   0.431
V25     V     0.7577   0.3052   0.319
V26     V     0.4923   0.069   0.5552
V27     V     0.0077   0.069   0.4448
V28     V     0.2577   0.8052   0.819
V29     V     0.9448   0.9923   0.069
V30     V     0.069   0.9448   0.9923
V31     V     0.9923   0.069   0.9448
V32     V     0.181   0.7577   0.6948
V33     V     0.8052   0.819   0.2577
V34     V     0.819   0.2577   0.8052
V35     V     0.0552   0.4923   0.431
V36     V     0.2577   0.3052   0.181
V37     V     0.431   0.0552   0.4923
V38     V     0.3052   0.181   0.2577
V39     V     0.181   0.2577   0.3052
V40     V     0.4448   0.9923   0.431
V41     V     0.431   0.4448   0.9923
V42     V     0.9923   0.431   0.4448
V43     V     0.5552   0.5077   0.431
V44     V     0.431   0.5552   0.5077
V45     V     0.5077   0.431   0.5552
V46     V     0.069   0.0552   0.5077
V47     V     0.5077   0.069   0.0552
V48     V     0.319   0.7577   0.3052
V49     V     0.5552   0.4923   0.069
V50     V     0.0552   0.5077   0.069
V51     V     0.4448   0.0077   0.069
V52     V     0.7577   0.6948   0.181
V53     V     0.7423   0.3052   0.681
V54     V     0.3052   0.319   0.7577
V55     V     0.069   0.4448   0.0077
V56     V     0.3052   0.681   0.7423
V57     V     0.2577   0.6948   0.319
V58     V     0.6948   0.681   0.2423
V59     V     0.6948   0.319   0.2577
V60     V     0.681   0.2423   0.6948
V61     V     0.9448   0.4923   0.931
V62     V     0.6948   0.181   0.7577
V63     V     0.931   0.9448   0.4923
V64     V     0.681   0.7423   0.3052
V65     V     0.4923   0.931   0.9448
V66     V     0.2423   0.6948   0.681
V67     V     0.431   0.9448   0.0077
V68     V     0.319   0.2577   0.6948
V69     V     0.7423   0.1948   0.181
V70     V     0.1948   0.181   0.7423
V71     V     0.181   0.7423   0.1948
V72     V     0.2423   0.1948   0.319
V73     V     0.1948   0.681   0.2577
V74     V     0.1948   0.319   0.2423
V75     V     0.319   0.2423   0.1948
V76     V     0.2577   0.1948   0.681
V77     V     0.0077   0.931   0.0552
V78     V     0.681   0.2577   0.1948
V79     V     0.0552   0.0077   0.931
V80     V     0.931   0.0552   0.0077
V81     V     0.5552   0.9923   0.931
V82     V     0.931   0.5552   0.9923
V83     V     0.931   0.4448   0.5077
V84     V     0.4448   0.5077   0.931
V85     V     0.5077   0.931   0.4448
V86     V     0.9923   0.931   0.5552
V87     V     0.069   0.5552   0.4923
V88     V     0.181   0.2423   0.8052
V89     V     0.2423   0.8052   0.181
V90     V     0.8052   0.181   0.2423
V91     V     0.7577   0.8052   0.681
V92     V     0.8052   0.681   0.7577
V93     V     0.681   0.7577   0.8052
V94     V     0.8052   0.319   0.7423
V95     V     0.7423   0.8052   0.319
V96     V     0.319   0.7423   0.8052
Er97     Er     0.7607   0.8549   0.6074
Er98     Er     0.9893   0.8574   0.6049
Ti99     Ti     0.9098   0.8177   0.6068
Ti100     Ti     0.8402   0.8568   0.5677
Er101     Er     0.7607   0.3549   0.3926
Er102     Er     0.9893   0.3574   0.3951
Ti103     Ti     0.8402   0.3568   0.4323
Ti104     Ti     0.9098   0.3177   0.3932
Er105     Er     0.6074   0.7607   0.8549
Er106     Er     0.6049   0.9893   0.8574
Ti107     Ti     0.6068   0.9098   0.8177
Ti108     Ti     0.5677   0.8402   0.8568
Er109     Er     0.1074   0.2393   0.8549
Er110     Er     0.1049   0.0107   0.8574
Ti111     Ti     0.1068   0.0902   0.8177
Ti112     Ti     0.0677   0.1598   0.8568
Er113     Er     0.1451   0.8926   0.7607
Er114     Er     0.1426   0.8951   0.9893
Ti115     Ti     0.1823   0.8932   0.9098
Ti116     Ti     0.1432   0.9323   0.8402
Er117     Er     0.7607   0.6451   0.1074
Er118     Er     0.9893   0.6426   0.1049
Ti119     Ti     0.8402   0.6432   0.0677
Ti120     Ti     0.9098   0.6823   0.1068
Er121     Er     0.6451   0.1074   0.7607
Er122     Er     0.6426   0.1049   0.9893
Ti123     Ti     0.6432   0.0677   0.8402
Ti124     Ti     0.6823   0.1068   0.9098
Er125     Er     0.6426   0.3951   0.4893
Er126     Er     0.6451   0.3926   0.2607
Ti127     Ti     0.6823   0.3932   0.4098
Ti128     Ti     0.6432   0.4323   0.3402
Er129     Er     0.7393   0.1451   0.1074
Er130     Er     0.5107   0.1426   0.1049
Ti131     Ti     0.5902   0.1823   0.1068
Ti132     Ti     0.6598   0.1432   0.0677
Er133     Er     0.6074   0.2607   0.1451
Er134     Er     0.6049   0.4893   0.1426
Ti135     Ti     0.6068   0.4098   0.1823
Ti136     Ti     0.5677   0.3402   0.1432
Er137     Er     0.3549   0.3926   0.7607
Er138     Er     0.3574   0.3951   0.9893
Ti139     Ti     0.3568   0.4323   0.8402
Ti140     Ti     0.3177   0.3932   0.9098
Er141     Er     0.1074   0.7607   0.6451
Er142     Er     0.1049   0.9893   0.6426
Ti143     Ti     0.0677   0.8402   0.6432
Ti144     Ti     0.1068   0.9098   0.6823
Er145     Er     0.7393   0.8549   0.3926
Er146     Er     0.5107   0.8574   0.3951
Ti147     Ti     0.6598   0.8568   0.4323
Ti148     Ti     0.5902   0.8177   0.3932
Er149     Er     0.6049   0.0107   0.6426
Er150     Er     0.6074   0.2393   0.6451
Ti151     Ti     0.6068   0.0902   0.6823
Ti152     Ti     0.5677   0.1598   0.6432
Er153     Er     0.6451   0.8926   0.7393
Er154     Er     0.6426   0.8951   0.5107
Ti155     Ti     0.6823   0.8932   0.5902
Ti156     Ti     0.6432   0.9323   0.6598
Er157     Er     0.5107   0.3574   0.6049
Er158     Er     0.7393   0.3549   0.6074
Ti159     Ti     0.5902   0.3177   0.6068
Ti160     Ti     0.6598   0.3568   0.5677
Er161     Er     0.8549   0.3926   0.7393
Er162     Er     0.8574   0.3951   0.5107
Ti163     Ti     0.8177   0.3932   0.5902
Ti164     Ti     0.8568   0.4323   0.6598
Er165     Er     0.1451   0.1074   0.7393
Er166     Er     0.1426   0.1049   0.5107
Ti167     Ti     0.1823   0.1068   0.5902
Ti168     Ti     0.1432   0.0677   0.6598
Er169     Er     0.4893   0.1426   0.6049
Er170     Er     0.2607   0.1451   0.6074
Ti171     Ti     0.4098   0.1823   0.6068
Ti172     Ti     0.3402   0.1432   0.5677
Er173     Er     0.3951   0.4893   0.6426
Er174     Er     0.3926   0.2607   0.6451
Ti175     Ti     0.4323   0.3402   0.6432
Ti176     Ti     0.3932   0.4098   0.6823
Er177     Er     0.8926   0.7393   0.6451
Er178     Er     0.8951   0.5107   0.6426
Ti179     Ti     0.8932   0.5902   0.6823
Ti180     Ti     0.9323   0.6598   0.6432
Er181     Er     0.0107   0.6426   0.6049
Er182     Er     0.2393   0.6451   0.6074
Ti183     Ti     0.0902   0.6823   0.6068
Ti184     Ti     0.1598   0.6432   0.5677
Er185     Er     0.3926   0.7393   0.8549
Er186     Er     0.3951   0.5107   0.8574
Ti187     Ti     0.3932   0.5902   0.8177
Ti188     Ti     0.4323   0.6598   0.8568
Er189     Er     0.3574   0.6049   0.5107
Er190     Er     0.3549   0.6074   0.7393
Ti191     Ti     0.3177   0.6068   0.5902
Ti192     Ti     0.3568   0.5677   0.6598
Er193     Er     0.1049   0.5107   0.1426
Er194     Er     0.1074   0.7393   0.1451
Ti195     Ti     0.1068   0.5902   0.1823
Ti196     Ti     0.0677   0.6598   0.1432
Er197     Er     0.1426   0.6049   0.4893
Er198     Er     0.1451   0.6074   0.2607
Ti199     Ti     0.1823   0.6068   0.4098
Ti200     Ti     0.1432   0.5677   0.3402
Er201     Er     0.4893   0.6426   0.3951
Er202     Er     0.2607   0.6451   0.3926
Ti203     Ti     0.3402   0.6432   0.4323
Ti204     Ti     0.4098   0.6823   0.3932
Er205     Er     0.6049   0.5107   0.3574
Er206     Er     0.6074   0.7393   0.3549
Ti207     Ti     0.6068   0.5902   0.3177
Ti208     Ti     0.5677   0.6598   0.3568
Er209     Er     0.7393   0.6451   0.8926
Er210     Er     0.5107   0.6426   0.8951
Ti211     Ti     0.5902   0.6823   0.8932
Ti212     Ti     0.6598   0.6432   0.9323
Er213     Er     0.6426   0.6049   0.0107
Er214     Er     0.6451   0.6074   0.2393
Ti215     Ti     0.6823   0.6068   0.0902
Ti216     Ti     0.6432   0.5677   0.1598
Er217     Er     0.3926   0.7607   0.3549
Er218     Er     0.3951   0.9893   0.3574
Ti219     Ti     0.4323   0.8402   0.3568
Ti220     Ti     0.3932   0.9098   0.3177
Er221     Er     0.0107   0.1426   0.3951
Er222     Er     0.2393   0.1451   0.3926
Ti223     Ti     0.1598   0.1432   0.4323
Ti224     Ti     0.0902   0.1823   0.3932
Er225     Er     0.8926   0.2393   0.3549
Er226     Er     0.8951   0.0107   0.3574
Ti227     Ti     0.9323   0.1598   0.3568
Ti228     Ti     0.8932   0.0902   0.3177
Er229     Er     0.8549   0.8926   0.2607
Er230     Er     0.8574   0.8951   0.4893
Ti231     Ti     0.8177   0.8932   0.4098
Ti232     Ti     0.8568   0.9323   0.3402
Er233     Er     0.2393   0.8549   0.1074
Er234     Er     0.0107   0.8574   0.1049
Ti235     Ti     0.0902   0.8177   0.1068
Ti236     Ti     0.1598   0.8568   0.0677
Er237     Er     0.8926   0.7607   0.1451
Er238     Er     0.8951   0.9893   0.1426
Ti239     Ti     0.8932   0.9098   0.1823
Ti240     Ti     0.9323   0.8402   0.1432
Er241     Er     0.3574   0.1049   0.4893
Er242     Er     0.3549   0.1074   0.2607
Ti243     Ti     0.3568   0.0677   0.3402
Ti244     Ti     0.3177   0.1068   0.4098
Er245     Er     0.3951   0.0107   0.1426
Er246     Er     0.3926   0.2393   0.1451
Ti247     Ti     0.3932   0.0902   0.1823
Ti248     Ti     0.4323   0.1598   0.1432
Er249     Er     0.2607   0.8549   0.8926
Er250     Er     0.4893   0.8574   0.8951
Ti251     Ti     0.4098   0.8177   0.8932
Ti252     Ti     0.3402   0.8568   0.9323
Er253     Er     0.3549   0.8926   0.2393
Er254     Er     0.3574   0.8951   0.0107
Ti255     Ti     0.3568   0.9323   0.1598
Ti256     Ti     0.3177   0.8932   0.0902
Er257     Er     0.4893   0.3574   0.1049
Er258     Er     0.2607   0.3549   0.1074
Ti259     Ti     0.3402   0.3568   0.0677
Ti260     Ti     0.4098   0.3177   0.1068
Er261     Er     0.1049   0.4893   0.3574
Er262     Er     0.1074   0.2607   0.3549
Ti263     Ti     0.0677   0.3402   0.3568
Ti264     Ti     0.1068   0.4098   0.3177
Er265     Er     0.8549   0.6074   0.7607
Er266     Er     0.8574   0.6049   0.9893
Ti267     Ti     0.8177   0.6068   0.9098
Ti268     Ti     0.8568   0.5677   0.8402
Er269     Er     0.1426   0.3951   0.0107
Er270     Er     0.1451   0.3926   0.2393
Ti271     Ti     0.1432   0.4323   0.1598
Ti272     Ti     0.1823   0.3932   0.0902
Er273     Er     0.2393   0.3549   0.8926
Er274     Er     0.0107   0.3574   0.8951
Ti275     Ti     0.1598   0.3568   0.9323
Ti276     Ti     0.0902   0.3177   0.8932
Er277     Er     0.8926   0.2607   0.8549
Er278     Er     0.8951   0.4893   0.8574
Ti279     Ti     0.8932   0.4098   0.8177
Ti280     Ti     0.9323   0.3402   0.8568
Er281     Er     0.7607   0.1451   0.8926
Er282     Er     0.9893   0.1426   0.8951
Ti283     Ti     0.9098   0.1823   0.8932
Ti284     Ti     0.8402   0.1432   0.9323
Er285     Er     0.8574   0.1049   0.0107
Er286     Er     0.8549   0.1074   0.2393
Ti287     Ti     0.8568   0.0677   0.1598
Ti288     Ti     0.8177   0.1068   0.0902
loop_
_geom_bond_atom_site_label_1
_geom_bond_atom_site_label_2
_geom_bond_distance
_geom_bond_site_symmetry_2
_ccdc_geom_bond_type
V1     V84    10.0   .     S
V1     V17    10.0   1_556     S
V1     Er210    10.0   .     S
V2     V54    10.0   .     S
V2     V88    10.0   .     S
V2     Er273    10.0   .     S
V3     V61    10.0   1_455     S
V3     V55    10.0   1_556     S
V3     Er274    10.0   .     S
V4     V25    10.0   .     S
V4     V90    10.0   .     S
V4     Er225    10.0   .     S
V5     V83    10.0   .     S
V5     V20    10.0   1_655     S
V5     Er178    10.0   .     S
V6     V92    10.0   .     S
V6     V93    10.0   .     S
V6     Er209    10.0   .     S
V7     V85    10.0   .     S
V7     V15    10.0   1_565     S
V7     Er154    10.0   .     S
V8     V91    10.0   .     S
V8     V92    10.0   .     S
V8     Er177    10.0   .     S
V9     V48    10.0   .     S
V9     V89    10.0   .     S
V9     Er253    10.0   .     S
V10     V93    10.0   .     S
V10     V91    10.0   .     S
V10     Er153    10.0   .     S
V11     V47    10.0   1_556     S
V11     V81    10.0   1_545     S
V11     Er122    10.0   .     S
V12     V46    10.0   1_565     S
V12     V86    10.0   1_455     S
V12     Er142    10.0   .     S
V13     V50    10.0   1_655     S
V13     V82    10.0   1_554     S
V13     Er118    10.0   .     S
V14     V44    10.0   .     S
V14     V45    10.0   .     S
V14     Er173    10.0   .     S
V15     V7    10.0   1_545     S
V15     V26    10.0   .     S
V15     Er149    10.0   .     S
V16     V45    10.0   .     S
V16     V43    10.0   .     S
V16     Er125    10.0   .     S
V17     V1    10.0   1_554     S
V17     V49    10.0   .     S
V17     Er213    10.0   .     S
V18     V43    10.0   .     S
V18     V44    10.0   .     S
V18     Er201    10.0   .     S
V19     V52    10.0   .     S
V19     V33    10.0   .     S
V19     Er237    10.0   .     S
V20     V5    10.0   1_455     S
V20     V87    10.0   .     S
V20     Er181    10.0   .     S
V21     V49    10.0   .     S
V21     V41    10.0   1_554     S
V21     Er257    10.0   .     S
V22     V62    10.0   .     S
V22     V34    10.0   .     S
V22     Er281    10.0   .     S
V23     V32    10.0   .     S
V23     V28    10.0   .     S
V23     Er113    10.0   .     S
V24     V63    10.0   1_545     S
V24     V27    10.0   1_655     S
V24     Er226    10.0   .     S
V25     V59    10.0   .     S
V25     Er101    10.0   .     S
V26     V37    10.0   .     S
V26     Er169    10.0   .     S
V27     V24    10.0   1_455     S
V27     V46    10.0   .     S
V27     Er221    10.0   .     S
V28     V96    10.0   .     S
V28     Er249    10.0   .     S
V29     V80    10.0   1_565     S
V29     V77    10.0   1_655     S
V29     Er238    10.0   .     S
V30     V77    10.0   1_556     S
V30     V79    10.0   1_565     S
V30     Er114    10.0   .     S
V31     V79    10.0   1_655     S
V31     V80    10.0   1_556     S
V31     Er282    10.0   .     S
V32     V66    10.0   .     S
V32     Er141    10.0   .     S
V33     V95    10.0   .     S
V33     Er229    10.0   .     S
V34     V94    10.0   .     S
V34     Er277    10.0   .     S
V35     V87    10.0   .     S
V35     V42    10.0   1_455     S
V35     Er261    10.0   .     S
V36     V74    10.0   .     S
V36     V75    10.0   .     S
V36     Er258    10.0   .     S
V37     V40    10.0   1_545     S
V37     Er241    10.0   .     S
V38     V75    10.0   .     S
V38     V72    10.0   .     S
V38     Er242    10.0   .     S
V39     V72    10.0   .     S
V39     V74    10.0   .     S
V39     Er262    10.0   .     S
V40     V37    10.0   1_565     S
V40     V85    10.0   .     S
V40     Er218    10.0   .     S
V41     V21    10.0   1_556     S
V41     V84    10.0   .     S
V41     Er138    10.0   .     S
V42     V35    10.0   1_655     S
V42     V83    10.0   .     S
V42     Er102    10.0   .     S
V43     Er205    10.0   .     S
V44     Er189    10.0   .     S
V45     Er157    10.0   .     S
V46     V12    10.0   1_545     S
V46     Er166    10.0   .     S
V47     V11    10.0   1_554     S
V47     V51    10.0   .     S
V47     Er130    10.0   .     S
V48     V57    10.0   .     S
V48     Er217    10.0   .     S
V49     Er134    10.0   .     S
V50     V13    10.0   1_455     S
V50     V55    10.0   .     S
V50     Er193    10.0   .     S
V51     V67    10.0   1_545     S
V51     Er245    10.0   .     S
V52     V58    10.0   .     S
V52     Er117    10.0   .     S
V53     V94    10.0   .     S
V53     V60    10.0   .     S
V53     Er158    10.0   .     S
V54     V68    10.0   .     S
V54     Er137    10.0   .     S
V55     V3    10.0   1_554     S
V55     Er269    10.0   .     S
V56     V96    10.0   .     S
V56     V66    10.0   .     S
V56     Er190    10.0   .     S
V57     V73    10.0   .     S
V57     Er202    10.0   .     S
V58     V64    10.0   .     S
V58     Er214    10.0   .     S
V59     V78    10.0   .     S
V59     Er126    10.0   .     S
V60     V62    10.0   .     S
V60     Er150    10.0   .     S
V61     V3    10.0   1_655     S
V61     V82    10.0   .     S
V61     Er278    10.0   .     S
V62     Er121    10.0   .     S
V63     V24    10.0   1_565     S
V63     V86    10.0   .     S
V63     Er230    10.0   .     S
V64     V95    10.0   .     S
V64     Er206    10.0   .     S
V65     V81    10.0   .     S
V65     V67    10.0   1_556     S
V65     Er250    10.0   .     S
V66     Er182    10.0   .     S
V67     V51    10.0   1_565     S
V67     V65    10.0   1_554     S
V67     Er254    10.0   .     S
V68     V76    10.0   .     S
V68     Er174    10.0   .     S
V69     V90    10.0   .     S
V69     V78    10.0   .     S
V69     Er129    10.0   .     S
V70     V88    10.0   .     S
V70     V76    10.0   .     S
V70     Er165    10.0   .     S
V71     V89    10.0   .     S
V71     V73    10.0   .     S
V71     Er194    10.0   .     S
V72     Er222    10.0   .     S
V73     Er198    10.0   .     S
V74     Er270    10.0   .     S
V75     Er246    10.0   .     S
V76     Er170    10.0   .     S
V77     V30    10.0   1_554     S
V77     V29    10.0   1_455     S
V77     Er234    10.0   .     S
V78     Er133    10.0   .     S
V79     V31    10.0   1_455     S
V79     V30    10.0   1_545     S
V79     Er110    10.0   .     S
V80     V29    10.0   1_545     S
V80     V31    10.0   1_554     S
V80     Er285    10.0   .     S
V81     V11    10.0   1_565     S
V81     Er106    10.0   .     S
V82     V13    10.0   1_556     S
V82     Er266    10.0   .     S
V83     Er162    10.0   .     S
V84     Er186    10.0   .     S
V85     Er146    10.0   .     S
V86     V12    10.0   1_655     S
V86     Er98    10.0   .     S
V87     Er197    10.0   .     S
V88     Er109    10.0   .     S
V89     Er233    10.0   .     S
V90     Er286    10.0   .     S
V91     Er97    10.0   .     S
V92     Er265    10.0   .     S
V93     Er105    10.0   .     S
V94     Er161    10.0   .     S
V95     Er145    10.0   .     S
V96     Er185    10.0   .     S
Er97     Ti100    10.0   .     S
Er97     Ti155    10.001   .     S
Er98     Ti99    10.0   .     S
Er98     Ti143    10.001   1_655     S
Ti99     Ti100    9.999   .     S
Ti99     Er177    10.001   .     S
Ti100     Er230    10.001   .     S
Er101     Ti103    10.0   .     S
Er101     Ti127    10.001   .     S
Er102     Ti104    10.0   .     S
Er102     Ti263    10.001   1_655     S
Ti103     Ti104    9.999   .     S
Ti103     Er162    10.001   .     S
Ti104     Er225    10.001   .     S
Er105     Ti108    10.0   .     S
Er105     Ti211    10.001   .     S
Er106     Ti107    10.0   .     S
Er106     Ti123    10.001   1_565     S
Ti107     Ti108    9.999   .     S
Ti107     Er153    10.001   .     S
Ti108     Er250    10.001   .     S
Er109     Ti112    10.0   .     S
Er109     Ti276    10.001   .     S
Er110     Ti111    10.0   .     S
Er110     Ti116    10.001   1_545     S
Ti111     Ti112    9.999   .     S
Ti111     Er165    10.001   .     S
Ti112     Er282    10.001   1_455     S
Er113     Ti116    10.0   .     S
Er113     Ti144    10.001   .     S
Er114     Ti115    10.0   .     S
Er114     Ti236    10.001   1_556     S
Ti115     Ti116    9.999   .     S
Ti115     Er249    10.001   .     S
Ti116     Er110    10.001   1_565     S
Er117     Ti119    10.0   .     S
Er117     Ti215    10.001   .     S
Er118     Ti120    10.0   .     S
Er118     Ti196    10.001   1_655     S
Ti119     Ti120    9.999   .     S
Ti119     Er266    10.001   1_554     S
Ti120     Er237    10.001   .     S
Er121     Ti123    10.0   .     S
Er121     Ti151    10.001   .     S
Er122     Ti124    10.0   .     S
Er122     Ti132    10.001   1_556     S
Ti123     Ti124    9.999   .     S
Ti123     Er106    10.001   1_545     S
Ti124     Er281    10.001   .     S
Er125     Ti127    10.0   .     S
Er125     Ti160    10.001   .     S
Er126     Ti128    10.0   .     S
Er126     Ti135    10.001   .     S
Ti127     Ti128    9.999   .     S
Ti128     Er205    10.001   .     S
Er129     Ti132    10.0   .     S
Er129     Ti288    10.001   .     S
Er130     Ti131    10.0   .     S
Er130     Ti248    10.001   .     S
Ti131     Ti132    9.999   .     S
Ti131     Er133    10.001   .     S
Ti132     Er122    10.001   1_554     S
Er133     Ti136    10.0   .     S
Er134     Ti135    10.0   .     S
Er134     Ti216    10.001   .     S
Ti135     Ti136    9.999   .     S
Ti136     Er257    10.001   .     S
Er137     Ti139    10.0   .     S
Er137     Ti176    10.001   .     S
Er138     Ti140    10.0   .     S
Er138     Ti259    10.001   1_556     S
Ti139     Ti140    9.999   .     S
Ti139     Er186    10.001   .     S
Ti140     Er273    10.001   .     S
Er141     Ti143    10.0   .     S
Er141     Ti183    10.001   .     S
Er142     Ti144    10.0   .     S
Er142     Ti168    10.001   1_565     S
Ti143     Ti144    9.999   .     S
Ti143     Er98    10.001   1_455     S
Er145     Ti147    10.0   .     S
Er145     Ti231    10.001   .     S
Er146     Ti148    10.0   .     S
Er146     Ti219    10.001   .     S
Ti147     Ti148    9.999   .     S
Ti147     Er154    10.001   .     S
Ti148     Er206    10.001   .     S
Er149     Ti151    10.0   .     S
Er149     Ti156    10.001   1_545     S
Er150     Ti152    10.0   .     S
Er150     Ti159    10.001   .     S
Ti151     Ti152    9.999   .     S
Ti152     Er169    10.001   .     S
Er153     Ti156    10.0   .     S
Er154     Ti155    10.0   .     S
Ti155     Ti156    9.999   .     S
Ti156     Er149    10.001   1_565     S
Er157     Ti159    10.0   .     S
Er157     Ti175    10.001   .     S
Er158     Ti160    10.0   .     S
Er158     Ti163    10.001   .     S
Ti159     Ti160    9.999   .     S
Er161     Ti164    10.0   .     S
Er161     Ti279    10.001   .     S
Er162     Ti163    10.0   .     S
Ti163     Ti164    9.999   .     S
Ti164     Er178    10.001   .     S
Er165     Ti168    10.0   .     S
Er166     Ti167    10.0   .     S
Er166     Ti223    10.001   .     S
Ti167     Ti168    9.999   .     S
Ti167     Er170    10.001   .     S
Ti168     Er142    10.001   1_545     S
Er169     Ti171    10.0   .     S
Er170     Ti172    10.0   .     S
Ti171     Ti172    9.999   .     S
Ti171     Er174    10.001   .     S
Ti172     Er241    10.001   .     S
Er173     Ti176    10.0   .     S
Er173     Ti192    10.001   .     S
Er174     Ti175    10.0   .     S
Ti175     Ti176    9.999   .     S
Er177     Ti180    10.0   .     S
Er178     Ti179    10.0   .     S
Ti179     Ti180    9.999   .     S
Ti179     Er265    10.001   .     S
Ti180     Er181    10.001   1_655     S
Er181     Ti180    10.001   1_455     S
Er181     Ti183    10.0   .     S
Er182     Ti184    10.0   .     S
Er182     Ti191    10.001   .     S
Ti183     Ti184    9.999   .     S
Ti184     Er197    10.001   .     S
Er185     Ti188    10.0   .     S
Er185     Ti251    10.001   .     S
Er186     Ti187    10.0   .     S
Ti187     Ti188    9.999   .     S
Ti187     Er190    10.001   .     S
Ti188     Er210    10.001   .     S
Er189     Ti191    10.0   .     S
Er189     Ti203    10.001   .     S
Er190     Ti192    10.0   .     S
Ti191     Ti192    9.999   .     S
Er193     Ti195    10.0   .     S
Er193     Ti271    10.001   .     S
Er194     Ti196    10.0   .     S
Er194     Ti235    10.001   .     S
Ti195     Ti196    9.999   .     S
Ti195     Er198    10.001   .     S
Ti196     Er118    10.001   1_455     S
Er197     Ti199    10.0   .     S
Er198     Ti200    10.0   .     S
Ti199     Ti200    9.999   .     S
Ti199     Er202    10.001   .     S
Ti200     Er261    10.001   .     S
Er201     Ti204    10.0   .     S
Er201     Ti208    10.001   .     S
Er202     Ti203    10.0   .     S
Ti203     Ti204    9.999   .     S
Ti204     Er217    10.001   .     S
Er205     Ti207    10.0   .     S
Er206     Ti208    10.0   .     S
Ti207     Ti208    9.999   .     S
Ti207     Er214    10.001   .     S
Er209     Ti212    10.0   .     S
Er209     Ti267    10.001   .     S
Er210     Ti211    10.0   .     S
Ti211     Ti212    9.999   .     S
Ti212     Er213    10.001   1_556     S
Er213     Ti212    10.001   1_554     S
Er213     Ti215    10.0   .     S
Er214     Ti216    10.0   .     S
Ti215     Ti216    9.999   .     S
Er217     Ti219    10.0   .     S
Er218     Ti220    10.0   .     S
Er218     Ti243    10.001   1_565     S
Ti219     Ti220    9.999   .     S
Ti220     Er253    10.001   .     S
Er221     Ti224    10.0   .     S
Er221     Ti227    10.001   1_455     S
Er222     Ti223    10.0   .     S
Er222     Ti244    10.001   .     S
Ti223     Ti224    9.999   .     S
Ti224     Er262    10.001   .     S
Er225     Ti227    10.0   .     S
Er226     Ti228    10.0   .     S
Er226     Ti232    10.001   1_545     S
Ti227     Ti228    9.999   .     S
Ti227     Er221    10.001   1_655     S
Ti228     Er286    10.001   .     S
Er229     Ti232    10.0   .     S
Er229     Ti239    10.001   .     S
Er230     Ti231    10.0   .     S
Ti231     Ti232    9.999   .     S
Ti232     Er226    10.001   1_565     S
Er233     Ti236    10.0   .     S
Er233     Ti256    10.001   .     S
Er234     Ti235    10.0   .     S
Er234     Ti240    10.001   1_455     S
Ti235     Ti236    9.999   .     S
Ti236     Er114    10.001   1_554     S
Er237     Ti240    10.0   .     S
Er238     Ti239    10.0   .     S
Er238     Ti287    10.001   1_565     S
Ti239     Ti240    9.999   .     S
Ti240     Er234    10.001   1_655     S
Er241     Ti244    10.0   .     S
Er242     Ti243    10.0   .     S
Er242     Ti247    10.001   .     S
Ti243     Ti244    9.999   .     S
Ti243     Er218    10.001   1_545     S
Er245     Ti247    10.0   .     S
Er245     Ti255    10.001   1_545     S
Er246     Ti248    10.0   .     S
Er246     Ti260    10.001   .     S
Ti247     Ti248    9.999   .     S
Er249     Ti252    10.0   .     S
Er250     Ti251    10.0   .     S
Ti251     Ti252    9.999   .     S
Ti252     Er254    10.001   1_556     S
Er253     Ti255    10.0   .     S
Er254     Ti252    10.001   1_554     S
Er254     Ti256    10.0   .     S
Ti255     Ti256    9.999   .     S
Ti255     Er245    10.001   1_565     S
Er257     Ti260    10.0   .     S
Er258     Ti259    10.0   .     S
Er258     Ti272    10.001   .     S
Ti259     Ti260    9.999   .     S
Ti259     Er138    10.001   1_554     S
Er261     Ti264    10.0   .     S
Er262     Ti263    10.0   .     S
Ti263     Ti264    9.999   .     S
Ti263     Er102    10.001   1_455     S
Ti264     Er270    10.001   .     S
Er265     Ti268    10.0   .     S
Er266     Ti119    10.001   1_556     S
Er266     Ti267    10.0   .     S
Ti267     Ti268    9.999   .     S
Ti268     Er278    10.001   .     S
Er269     Ti272    10.0   .     S
Er269     Ti275    10.001   1_554     S
Er270     Ti271    10.0   .     S
Ti271     Ti272    9.999   .     S
Er273     Ti275    10.0   .     S
Er274     Ti276    10.0   .     S
Er274     Ti280    10.001   1_455     S
Ti275     Ti276    9.999   .     S
Ti275     Er269    10.001   1_556     S
Er277     Ti280    10.0   .     S
Er277     Ti283    10.001   .     S
Er278     Ti279    10.0   .     S
Ti279     Ti280    9.999   .     S
Ti280     Er274    10.001   1_655     S
Er281     Ti284    10.0   .     S
Er282     Ti112    10.001   1_655     S
Er282     Ti283    10.0   .     S
Ti283     Ti284    9.999   .     S
Ti284     Er285    10.001   1_556     S
Er285     Ti284    10.001   1_554     S
Er285     Ti288    10.0   .     S
Er286     Ti287    10.0   .     S
Ti287     Ti288    9.999   .     S
Ti287     Er238    10.001   1_545     S
