data_pbp
_audit_creation_date              2020-02-04
_audit_creation_method            'Pymatgen'
_symmetry_space_group_name_H-M    'P1'
_symmetry_Int_Tables_number       1
loop_
_symmetry_equiv_pos_as_xyz
  x,y,z
_cell_length_a                    54.641
_cell_length_b                    54.641
_cell_length_c                    54.641
_cell_angle_alpha                 90.0
_cell_angle_beta                 90.0
_cell_angle_gamma                 90.0
loop_
_atom_site_label
_atom_site_type_symbol
_atom_site_fract_x
_atom_site_fract_y
_atom_site_fract_z
V1     V     0.6972   0.0915   0.6972
V2     V     0.5915   0.1972   0.8028
V3     V     0.8028   0.1972   0.5915
V4     V     0.6972   0.3028   0.9085
V5     V     0.9085   0.3028   0.6972
V6     V     0.8028   0.4085   0.8028
V7     V     0.6972   0.6972   0.9085
V8     V     0.6972   0.9085   0.6972
V9     V     0.9085   0.6972   0.6972
V10     V     0.8028   0.5915   0.8028
V11     V     0.8028   0.8028   0.5915
V12     V     0.5915   0.8028   0.8028
V13     V     0.3028   0.6972   0.9085
V14     V     0.3028   0.9085   0.6972
V15     V     0.4085   0.8028   0.8028
V16     V     0.0915   0.6972   0.6972
V17     V     0.1972   0.5915   0.8028
V18     V     0.1972   0.8028   0.5915
V19     V     0.0915   0.3028   0.6972
V20     V     0.1972   0.4085   0.8028
V21     V     0.3028   0.0915   0.6972
V22     V     0.4085   0.1972   0.8028
V23     V     0.3028   0.3028   0.9085
V24     V     0.1972   0.1972   0.5915
V25     V     0.0915   0.6972   0.3028
V26     V     0.1972   0.8028   0.4085
V27     V     0.1972   0.5915   0.1972
V28     V     0.3028   0.6972   0.0915
V29     V     0.4085   0.8028   0.1972
V30     V     0.3028   0.9085   0.3028
V31     V     0.6972   0.6972   0.0915
V32     V     0.6972   0.9085   0.3028
V33     V     0.8028   0.8028   0.4085
V34     V     0.9085   0.6972   0.3028
V35     V     0.5915   0.8028   0.1972
V36     V     0.8028   0.5915   0.1972
V37     V     0.0915   0.3028   0.3028
V38     V     0.1972   0.1972   0.4085
V39     V     0.3028   0.0915   0.3028
V40     V     0.4085   0.1972   0.1972
V41     V     0.1972   0.4085   0.1972
V42     V     0.3028   0.3028   0.0915
V43     V     0.6972   0.3028   0.0915
V44     V     0.8028   0.4085   0.1972
V45     V     0.9085   0.3028   0.3028
V46     V     0.6972   0.0915   0.3028
V47     V     0.8028   0.1972   0.4085
V48     V     0.5915   0.1972   0.1972
loop_
_geom_bond_atom_site_label_1
_geom_bond_atom_site_label_2
_geom_bond_distance
_geom_bond_site_symmetry_2
_ccdc_geom_bond_type
V1     V2    10.0   .     S
V1     V3    10.0   .     S
V1     V8    10.0   1_545     S
V2     V4    10.0   .     S
V2     V22    10.0   .     S
V3     V5    10.0   .     S
V3     V47    10.0   .     S
V4     V6    10.0   .     S
V4     V43    10.0   1_556     S
V5     V6    10.0   .     S
V5     V19    10.0   1_655     S
V6     V10    10.0   .     S
V7     V12    10.0   .     S
V7     V10    10.0   .     S
V7     V31    10.0   1_556     S
V8     V12    10.0   .     S
V8     V11    10.0   .     S
V8     V1    10.0   1_565     S
V9     V10    10.0   .     S
V9     V11    10.0   .     S
V9     V16    10.0   1_655     S
V11     V33    10.0   .     S
V12     V15    10.0   .     S
V13     V15    10.0   .     S
V13     V17    10.0   .     S
V13     V28    10.0   1_556     S
V14     V15    10.0   .     S
V14     V18    10.0   .     S
V14     V21    10.0   1_565     S
V16     V9    10.0   1_455     S
V16     V17    10.0   .     S
V16     V18    10.0   .     S
V17     V20    10.0   .     S
V18     V26    10.0   .     S
V19     V5    10.0   1_455     S
V19     V20    10.0   .     S
V19     V24    10.0   .     S
V20     V23    10.0   .     S
V21     V14    10.0   1_545     S
V21     V22    10.0   .     S
V21     V24    10.0   .     S
V22     V23    10.0   .     S
V23     V42    10.0   1_556     S
V24     V38    10.0   .     S
V25     V26    10.0   .     S
V25     V27    10.0   .     S
V25     V34    10.0   1_455     S
V26     V30    10.0   .     S
V27     V28    10.0   .     S
V27     V41    10.0   .     S
V28     V13    10.0   1_554     S
V28     V29    10.0   .     S
V29     V30    10.0   .     S
V29     V35    10.0   .     S
V30     V39    10.0   1_565     S
V31     V7    10.0   1_554     S
V31     V36    10.0   .     S
V31     V35    10.0   .     S
V32     V33    10.0   .     S
V32     V35    10.0   .     S
V32     V46    10.0   1_565     S
V33     V34    10.0   .     S
V34     V36    10.0   .     S
V34     V25    10.0   1_655     S
V36     V44    10.0   .     S
V37     V38    10.0   .     S
V37     V41    10.0   .     S
V37     V45    10.0   1_455     S
V38     V39    10.0   .     S
V39     V30    10.0   1_545     S
V39     V40    10.0   .     S
V40     V42    10.0   .     S
V40     V48    10.0   .     S
V41     V42    10.0   .     S
V42     V23    10.0   1_554     S
V43     V4    10.0   1_554     S
V43     V44    10.0   .     S
V43     V48    10.0   .     S
V44     V45    10.0   .     S
V45     V47    10.0   .     S
V45     V37    10.0   1_655     S
V46     V32    10.0   1_545     S
V46     V47    10.0   .     S
V46     V48    10.0   .     S
