data_pbzm
_audit_creation_date              2020-02-04
_audit_creation_method            'Pymatgen'
_symmetry_space_group_name_H-M    'P1'
_symmetry_Int_Tables_number       1
loop_
_symmetry_equiv_pos_as_xyz
  x,y,z
_cell_length_a                    81.949
_cell_length_b                    81.949
_cell_length_c                    81.949
_cell_angle_alpha                 90.0
_cell_angle_beta                 90.0
_cell_angle_gamma                 90.0
loop_
_atom_site_label
_atom_site_type_symbol
_atom_site_fract_x
_atom_site_fract_y
_atom_site_fract_z
Ti1     Ti     0.3926   0.7266   0.1937
Ti2     Ti     0.3063   0.7266   0.1074
Ti3     Ti     0.1074   0.7734   0.1937
Ti4     Ti     0.1937   0.7734   0.1074
Ti5     Ti     0.1937   0.7266   0.3926
Ti6     Ti     0.1074   0.7266   0.3063
Ti7     Ti     0.3063   0.7734   0.3926
Ti8     Ti     0.3926   0.7734   0.3063
V9     V     0.4137   0.9137   0.5
Er10     Er     0.3274   0.8274   0.5
V11     V     0.5   0.9137   0.4137
Er12     Er     0.5   0.8274   0.3274
Er13     Er     0.6726   0.0   0.3274
V14     V     0.5863   0.0   0.4137
Er15     Er     0.3274   0.0   0.6726
V16     V     0.4137   0.0   0.5863
Er17     Er     0.5   0.1726   0.6726
V18     V     0.5   0.0863   0.5863
V19     V     0.5863   0.0863   0.5
Er20     Er     0.6726   0.1726   0.5
Ti21     Ti     0.1074   0.1937   0.7734
Ti22     Ti     0.1937   0.1074   0.7734
Ti23     Ti     0.1937   0.3926   0.7266
Ti24     Ti     0.1074   0.3063   0.7266
Ti25     Ti     0.3926   0.1937   0.7266
Ti26     Ti     0.3063   0.1074   0.7266
Ti27     Ti     0.3926   0.3063   0.7734
Ti28     Ti     0.3063   0.3926   0.7734
Er29     Er     0.3274   0.6726   0.0
V30     V     0.4137   0.5863   0.0
V31     V     0.4137   0.5   0.9137
Er32     Er     0.3274   0.5   0.8274
V33     V     0.5   0.4137   0.9137
Er34     Er     0.5   0.3274   0.8274
Er35     Er     0.6726   0.3274   0.0
V36     V     0.5863   0.4137   0.0
V37     V     0.5863   0.5   0.0863
Er38     Er     0.6726   0.5   0.1726
V39     V     0.5   0.5863   0.0863
Er40     Er     0.5   0.6726   0.1726
Ti41     Ti     0.6074   0.2266   0.6937
Ti42     Ti     0.6937   0.2266   0.6074
Ti43     Ti     0.6074   0.2734   0.8063
Ti44     Ti     0.6937   0.2734   0.8926
Ti45     Ti     0.8063   0.2734   0.6074
Ti46     Ti     0.8926   0.2734   0.6937
Ti47     Ti     0.8063   0.2266   0.8926
Ti48     Ti     0.8926   0.2266   0.8063
Ti49     Ti     0.6937   0.6074   0.2266
Ti50     Ti     0.6074   0.6937   0.2266
Ti51     Ti     0.8063   0.6074   0.2734
Ti52     Ti     0.8926   0.6937   0.2734
Ti53     Ti     0.6074   0.8063   0.2734
Ti54     Ti     0.6937   0.8926   0.2734
Ti55     Ti     0.8926   0.8063   0.2266
Ti56     Ti     0.8063   0.8926   0.2266
Ti57     Ti     0.2734   0.6074   0.8063
Ti58     Ti     0.2734   0.6937   0.8926
Ti59     Ti     0.2266   0.8926   0.8063
Ti60     Ti     0.2266   0.8063   0.8926
Ti61     Ti     0.2734   0.8063   0.6074
Ti62     Ti     0.2734   0.8926   0.6937
Ti63     Ti     0.2266   0.6074   0.6937
Ti64     Ti     0.2266   0.6937   0.6074
V65     V     0.0   0.9137   0.0863
Er66     Er     0.0   0.8274   0.1726
V67     V     0.0863   0.9137   0.0
Er68     Er     0.1726   0.8274   0.0
V69     V     0.9137   0.0   0.0863
Er70     Er     0.8274   0.0   0.1726
V71     V     0.9137   0.0863   0.0
Er72     Er     0.8274   0.1726   0.0
V73     V     0.0   0.0863   0.9137
Er74     Er     0.0   0.1726   0.8274
V75     V     0.0863   0.0   0.9137
Er76     Er     0.1726   0.0   0.8274
Ti77     Ti     0.7266   0.1937   0.3926
Ti78     Ti     0.7266   0.1074   0.3063
Ti79     Ti     0.7734   0.1937   0.1074
Ti80     Ti     0.7734   0.1074   0.1937
Ti81     Ti     0.7266   0.3926   0.1937
Ti82     Ti     0.7266   0.3063   0.1074
Ti83     Ti     0.7734   0.3926   0.3063
Ti84     Ti     0.7734   0.3063   0.3926
Er85     Er     0.0   0.6726   0.3274
V86     V     0.0   0.5863   0.4137
Er87     Er     0.8274   0.5   0.3274
V88     V     0.9137   0.5   0.4137
V89     V     0.9137   0.4137   0.5
Er90     Er     0.8274   0.3274   0.5
Er91     Er     0.0   0.3274   0.6726
V92     V     0.0   0.4137   0.5863
Er93     Er     0.1726   0.6726   0.5
V94     V     0.0863   0.5863   0.5
Er95     Er     0.1726   0.5   0.6726
V96     V     0.0863   0.5   0.5863
loop_
_geom_bond_atom_site_label_1
_geom_bond_atom_site_label_2
_geom_bond_distance
_geom_bond_site_symmetry_2
_ccdc_geom_bond_type
Ti1     Ti2    9.999   .     S
Ti1     Ti8    10.0   .     S
Ti1     Er40    10.0   .     S
Ti2     Ti4    10.0   .     S
Ti2     Er29    10.0   .     S
Ti3     Ti4    9.999   .     S
Ti3     Ti6    10.0   .     S
Ti3     Er66    10.0   .     S
Ti4     Er68    10.0   .     S
Ti5     Ti6    9.999   .     S
Ti5     Ti7    10.0   .     S
Ti5     Er93    10.0   .     S
Ti6     Er85    10.0   .     S
Ti7     Ti8    9.999   .     S
Ti7     Er10    10.0   .     S
Ti8     Er12    10.0   .     S
V9     Er10    9.999   .     S
V9     V11    10.0   .     S
V9     V16    10.0   1_565     S
Er10     Ti61    10.0   .     S
V11     Er12    9.999   .     S
V11     V14    10.0   1_565     S
Er12     Ti53    10.0   .     S
Er13     V14    9.999   .     S
Er13     Ti54    10.0   1_545     S
Er13     Ti78    10.0   .     S
V14     V11    10.0   1_545     S
V14     V19    10.0   .     S
Er15     V16    9.999   .     S
Er15     Ti62    10.0   1_545     S
Er15     Ti26    10.0   .     S
V16     V9    10.0   1_545     S
V16     V18    10.0   .     S
Er17     V18    9.999   .     S
Er17     Ti41    10.0   .     S
Er17     Ti25    10.0   .     S
V18     V19    10.0   .     S
V19     Er20    9.999   .     S
Er20     Ti77    10.0   .     S
Er20     Ti42    10.0   .     S
Ti21     Ti22    9.999   .     S
Ti21     Ti24    10.0   .     S
Ti21     Er74    10.0   .     S
Ti22     Ti26    10.0   .     S
Ti22     Er76    10.0   .     S
Ti23     Ti24    9.999   .     S
Ti23     Ti28    10.0   .     S
Ti23     Er95    10.0   .     S
Ti24     Er91    10.0   .     S
Ti25     Ti26    9.999   .     S
Ti25     Ti27    10.0   .     S
Ti27     Ti28    9.999   .     S
Ti27     Er34    10.0   .     S
Ti28     Er32    10.0   .     S
Er29     V30    9.999   .     S
Er29     Ti58    10.0   1_554     S
V30     V39    10.0   .     S
V30     V31    10.0   1_554     S
V31     Er32    9.999   .     S
V31     V33    10.0   .     S
V31     V30    10.0   1_556     S
Er32     Ti57    10.0   .     S
V33     Er34    9.999   .     S
V33     V36    10.0   1_556     S
Er34     Ti43    10.0   .     S
Er35     V36    9.999   .     S
Er35     Ti44    10.0   1_554     S
Er35     Ti82    10.0   .     S
V36     V33    10.0   1_554     S
V36     V37    10.0   .     S
V37     Er38    9.999   .     S
V37     V39    10.0   .     S
Er38     Ti81    10.0   .     S
Er38     Ti49    10.0   .     S
V39     Er40    9.999   .     S
Er40     Ti50    10.0   .     S
Ti41     Ti42    9.999   .     S
Ti41     Ti43    10.0   .     S
Ti42     Ti45    10.0   .     S
Ti43     Ti44    9.999   .     S
Ti44     Er35    10.0   1_556     S
Ti44     Ti47    10.0   .     S
Ti45     Ti46    9.999   .     S
Ti45     Er90    10.0   .     S
Ti46     Ti48    10.0   .     S
Ti46     Er91    10.0   1_655     S
Ti47     Ti48    9.999   .     S
Ti47     Er72    10.0   1_556     S
Ti48     Er74    10.0   1_655     S
Ti49     Ti50    9.999   .     S
Ti49     Ti51    10.0   .     S
Ti50     Ti53    10.0   .     S
Ti51     Ti52    9.999   .     S
Ti51     Er87    10.0   .     S
Ti52     Ti55    10.0   .     S
Ti52     Er85    10.0   1_655     S
Ti53     Ti54    9.999   .     S
Ti54     Er13    10.0   1_565     S
Ti54     Ti56    10.0   .     S
Ti55     Ti56    9.999   .     S
Ti55     Er66    10.0   1_655     S
Ti56     Er70    10.0   1_565     S
Ti57     Ti58    9.999   .     S
Ti57     Ti63    10.0   .     S
Ti58     Er29    10.0   1_556     S
Ti58     Ti60    10.0   .     S
Ti59     Ti60    9.999   .     S
Ti59     Ti62    10.0   .     S
Ti59     Er76    10.0   1_565     S
Ti60     Er68    10.0   1_556     S
Ti61     Ti62    9.999   .     S
Ti61     Ti64    10.0   .     S
Ti62     Er15    10.0   1_565     S
Ti63     Ti64    9.999   .     S
Ti63     Er95    10.0   .     S
Ti64     Er93    10.0   .     S
V65     Er66    9.999   .     S
V65     V67    10.0   .     S
V65     V69    10.0   1_465     S
Er66     Ti55    10.0   1_455     S
V67     Er68    9.999   .     S
V67     V75    10.0   1_564     S
Er68     Ti60    10.0   1_554     S
V69     Er70    9.999   .     S
V69     V71    10.0   .     S
V69     V65    10.0   1_645     S
Er70     Ti56    10.0   1_545     S
Er70     Ti80    10.0   .     S
V71     Er72    9.999   .     S
V71     V73    10.0   1_654     S
Er72     Ti47    10.0   1_554     S
Er72     Ti79    10.0   .     S
V73     Er74    9.999   .     S
V73     V75    10.0   .     S
V73     V71    10.0   1_456     S
Er74     Ti48    10.0   1_455     S
V75     Er76    9.999   .     S
V75     V67    10.0   1_546     S
Er76     Ti59    10.0   1_545     S
Ti77     Ti78    9.999   .     S
Ti77     Ti84    10.0   .     S
Ti78     Ti80    10.0   .     S
Ti79     Ti80    9.999   .     S
Ti79     Ti82    10.0   .     S
Ti81     Ti82    9.999   .     S
Ti81     Ti83    10.0   .     S
Ti83     Ti84    9.999   .     S
Ti83     Er87    10.0   .     S
Ti84     Er90    10.0   .     S
Er85     V86    9.999   .     S
Er85     Ti52    10.0   1_455     S
V86     V94    10.0   .     S
V86     V88    10.0   1_455     S
Er87     V88    9.999   .     S
V88     V89    10.0   .     S
V88     V86    10.0   1_655     S
V89     Er90    9.999   .     S
V89     V92    10.0   1_655     S
Er91     V92    9.999   .     S
Er91     Ti46    10.0   1_455     S
V92     V89    10.0   1_455     S
V92     V96    10.0   .     S
Er93     V94    9.999   .     S
V94     V96    10.0   .     S
Er95     V96    9.999   .     S
