data_pcle
_audit_creation_date              2020-02-04
_audit_creation_method            'Pymatgen'
_symmetry_space_group_name_H-M    'P1'
_symmetry_Int_Tables_number       1
loop_
_symmetry_equiv_pos_as_xyz
  x,y,z
_cell_length_a                    38.0896
_cell_length_b                    38.6185
_cell_length_c                    34.2224
_cell_angle_alpha                 90.0
_cell_angle_beta                 90.0
_cell_angle_gamma                 90.0
loop_
_atom_site_label
_atom_site_type_symbol
_atom_site_fract_x
_atom_site_fract_y
_atom_site_fract_z
Ti1     Ti     0.6816   0.0   0.0
Ti2     Ti     0.6816   0.0   0.5
Er3     Er     0.6818   0.8659   0.25
V4     V     0.5   0.8176   0.4537
Er5     Er     0.3182   0.8659   0.25
V6     V     0.5   0.8176   0.0463
Er7     Er     0.1818   0.6341   0.75
Ce8     Ce     0.25   0.75   0.0
Ce9     Ce     0.25   0.75   0.5
V10     V     0.0   0.6824   0.5463
V11     V     0.0   0.6824   0.9537
Er12     Er     0.8182   0.6341   0.75
Ce13     Ce     0.75   0.75   0.0
Ce14     Ce     0.75   0.75   0.5
Ti15     Ti     0.1816   0.5   0.5
Ti16     Ti     0.1816   0.5   0.0
Ti17     Ti     0.8184   0.5   0.0
Ti18     Ti     0.8184   0.5   0.5
Ti19     Ti     0.3184   0.0   0.5
Ti20     Ti     0.3184   0.0   0.0
V21     V     0.5   0.1824   0.9537
Er22     Er     0.6818   0.1341   0.75
Er23     Er     0.3182   0.1341   0.75
V24     V     0.5   0.1824   0.5463
V25     V     0.0   0.3176   0.4537
Er26     Er     0.1818   0.3659   0.25
V27     V     0.0   0.3176   0.0463
Er28     Er     0.8182   0.3659   0.25
Ce29     Ce     0.75   0.25   0.5
Ce30     Ce     0.75   0.25   0.0
Ce31     Ce     0.25   0.25   0.0
Ce32     Ce     0.25   0.25   0.5
loop_
_geom_bond_atom_site_label_1
_geom_bond_atom_site_label_2
_geom_bond_distance
_geom_bond_site_symmetry_2
_ccdc_geom_bond_type
Ti1     V6    10.0   1_545     S
Ti1     Er3    10.0   1_545     S
Ti1     Ce13    10.0   1_545     S
Ti1     V21    10.0   1_554     S
Ti1     Er22    10.0   1_554     S
Ti1     Ce30    10.0   .     S
Ti2     V4    10.0   1_545     S
Ti2     Er3    10.0   1_545     S
Ti2     Ce14    10.0   1_545     S
Ti2     V24    10.0   .     S
Ti2     Er22    10.0   .     S
Ti2     Ce29    10.0   .     S
Er3     Ti1    10.0   1_565     S
Er3     Ti2    10.0   1_565     S
Er3     Ce13    10.0   .     S
Er3     Ce14    10.0   .     S
Er3     V4    10.0   .     S
Er3     V6    10.0   .     S
V4     Ti2    10.0   1_565     S
V4     Ce14    10.0   .     S
V4     Er5    10.0   .     S
V4     Ce9    10.0   .     S
V4     Ti19    10.0   1_565     S
Er5     Ce8    10.0   .     S
Er5     Ce9    10.0   .     S
Er5     V6    10.0   .     S
Er5     Ti19    10.0   1_565     S
Er5     Ti20    10.0   1_565     S
V6     Ti1    10.0   1_565     S
V6     Ce13    10.0   .     S
V6     Ce8    10.0   .     S
V6     Ti20    10.0   1_565     S
Er7     Ti16    10.0   1_556     S
Er7     Ce8    10.0   1_556     S
Er7     Ce9    10.0   .     S
Er7     V10    10.0   .     S
Er7     V11    10.0   .     S
Er7     Ti15    10.0   .     S
Ce8     Ti16    10.0   .     S
Ce8     Er7    10.0   1_554     S
Ce8     V11    10.0   1_554     S
Ce8     Ti20    10.0   1_565     S
Ce9     V10    10.0   .     S
Ce9     Ti15    10.0   .     S
Ce9     Ti19    10.0   1_565     S
V10     Ti18    10.0   1_455     S
V10     Er12    10.0   1_455     S
V10     Ce14    10.0   1_455     S
V10     Ti15    10.0   .     S
V11     Ti17    10.0   1_456     S
V11     Ti16    10.0   1_556     S
V11     Ce8    10.0   1_556     S
V11     Er12    10.0   1_455     S
V11     Ce13    10.0   1_456     S
Er12     Ti18    10.0   .     S
Er12     Ti17    10.0   1_556     S
Er12     V10    10.0   1_655     S
Er12     V11    10.0   1_655     S
Er12     Ce13    10.0   1_556     S
Er12     Ce14    10.0   .     S
Ce13     Ti1    10.0   1_565     S
Ce13     Ti17    10.0   .     S
Ce13     Er12    10.0   1_554     S
Ce13     V11    10.0   1_654     S
Ce14     Ti2    10.0   1_565     S
Ce14     Ti18    10.0   .     S
Ce14     V10    10.0   1_655     S
Ti15     V25    10.0   .     S
Ti15     Er26    10.0   .     S
Ti15     Ce32    10.0   .     S
Ti16     V27    10.0   .     S
Ti16     Er26    10.0   .     S
Ti16     Ce31    10.0   .     S
Ti16     V11    10.0   1_554     S
Ti16     Er7    10.0   1_554     S
Ti17     V27    10.0   1_655     S
Ti17     Er28    10.0   .     S
Ti17     Ce30    10.0   .     S
Ti17     V11    10.0   1_654     S
Ti17     Er12    10.0   1_554     S
Ti18     V25    10.0   1_655     S
Ti18     Er28    10.0   .     S
Ti18     Ce29    10.0   .     S
Ti18     V10    10.0   1_655     S
Ti19     V4    10.0   1_545     S
Ti19     Er5    10.0   1_545     S
Ti19     Ce9    10.0   1_545     S
Ti19     V24    10.0   .     S
Ti19     Er23    10.0   .     S
Ti19     Ce32    10.0   .     S
Ti20     V6    10.0   1_545     S
Ti20     Er5    10.0   1_545     S
Ti20     Ce8    10.0   1_545     S
Ti20     V21    10.0   1_554     S
Ti20     Er23    10.0   1_554     S
Ti20     Ce31    10.0   .     S
V21     Ti1    10.0   1_556     S
V21     Er22    10.0   .     S
V21     Er23    10.0   .     S
V21     Ce30    10.0   1_556     S
V21     Ce31    10.0   1_556     S
V21     Ti20    10.0   1_556     S
Er22     Ti1    10.0   1_556     S
Er22     Ce30    10.0   1_556     S
Er22     Ce29    10.0   .     S
Er22     V24    10.0   .     S
Er23     Ce31    10.0   1_556     S
Er23     Ce32    10.0   .     S
Er23     V24    10.0   .     S
Er23     Ti20    10.0   1_556     S
V24     Ce29    10.0   .     S
V24     Ce32    10.0   .     S
V25     Ti18    10.0   1_455     S
V25     Er28    10.0   1_455     S
V25     Er26    10.0   .     S
V25     Ce32    10.0   .     S
V25     Ce29    10.0   1_455     S
Er26     Ce31    10.0   .     S
Er26     Ce32    10.0   .     S
Er26     V27    10.0   .     S
V27     Ti17    10.0   1_455     S
V27     Ce31    10.0   .     S
V27     Er28    10.0   1_455     S
V27     Ce30    10.0   1_455     S
Er28     V25    10.0   1_655     S
Er28     V27    10.0   1_655     S
Er28     Ce30    10.0   .     S
Er28     Ce29    10.0   .     S
Ce29     V25    10.0   1_655     S
Ce30     Er22    10.0   1_554     S
Ce30     V21    10.0   1_554     S
Ce30     V27    10.0   1_655     S
Ce31     Er23    10.0   1_554     S
Ce31     V21    10.0   1_554     S
