data_pcug
_audit_creation_date              2020-02-04
_audit_creation_method            'Pymatgen'
_symmetry_space_group_name_H-M    'P1'
_symmetry_Int_Tables_number       1
loop_
_symmetry_equiv_pos_as_xyz
  x,y,z
_cell_length_a                    53.373
_cell_length_b                    53.373
_cell_length_c                    53.373
_cell_angle_alpha                 90.0
_cell_angle_beta                 90.0
_cell_angle_gamma                 90.0
loop_
_atom_site_label
_atom_site_type_symbol
_atom_site_fract_x
_atom_site_fract_y
_atom_site_fract_z
V1     V     0.9801   0.1585   0.9306
V2     V     0.8415   0.0694   0.0199
V3     V     0.1585   0.9306   0.9801
V4     V     0.0694   0.0199   0.8415
V5     V     0.9306   0.9801   0.1585
V6     V     0.0199   0.8415   0.0694
V7     V     0.9306   0.5199   0.6585
V8     V     0.0694   0.4801   0.3415
V9     V     0.0199   0.6585   0.5694
V10     V     0.1585   0.5694   0.4801
V11     V     0.9801   0.3415   0.4306
V12     V     0.8415   0.4306   0.5199
V13     V     0.0199   0.3415   0.9306
V14     V     0.9306   0.4801   0.8415
V15     V     0.9801   0.6585   0.0694
V16     V     0.8415   0.5694   0.9801
V17     V     0.1585   0.4306   0.0199
V18     V     0.0694   0.5199   0.1585
V19     V     0.4306   0.5199   0.8415
V20     V     0.3415   0.4306   0.9801
V21     V     0.5199   0.6585   0.9306
V22     V     0.4801   0.3415   0.0694
V23     V     0.6585   0.5694   0.0199
V24     V     0.5694   0.4801   0.1585
V25     V     0.3415   0.9306   0.0199
V26     V     0.4801   0.8415   0.9306
V27     V     0.6585   0.0694   0.9801
V28     V     0.5694   0.9801   0.8415
V29     V     0.4306   0.0199   0.1585
V30     V     0.5199   0.1585   0.0694
V31     V     0.8415   0.9306   0.4801
V32     V     0.0694   0.9801   0.6585
V33     V     0.9801   0.8415   0.5694
V34     V     0.9306   0.0199   0.3415
V35     V     0.0199   0.1585   0.4306
V36     V     0.1585   0.0694   0.5199
V37     V     0.6585   0.4306   0.4801
V38     V     0.5694   0.5199   0.3415
V39     V     0.4801   0.6585   0.4306
V40     V     0.3415   0.5694   0.5199
V41     V     0.5199   0.3415   0.5694
V42     V     0.4306   0.4801   0.6585
V43     V     0.5694   0.0199   0.6585
V44     V     0.4801   0.1585   0.5694
V45     V     0.6585   0.9306   0.5199
V46     V     0.3415   0.0694   0.4801
V47     V     0.4306   0.9801   0.3415
V48     V     0.5199   0.8415   0.4306
loop_
_geom_bond_atom_site_label_1
_geom_bond_atom_site_label_2
_geom_bond_distance
_geom_bond_site_symmetry_2
_ccdc_geom_bond_type
V1     V4    10.0   1_655     S
V1     V2    10.0   1_556     S
V1     V13    10.0   1_655     S
V2     V1    10.0   1_554     S
V2     V5    10.0   1_545     S
V2     V27    10.0   1_554     S
V3     V6    10.0   1_556     S
V3     V4    10.0   1_565     S
V3     V25    10.0   1_556     S
V4     V1    10.0   1_455     S
V4     V3    10.0   1_545     S
V4     V32    10.0   1_545     S
V5     V2    10.0   1_565     S
V5     V6    10.0   1_655     S
V5     V34    10.0   1_565     S
V6     V3    10.0   1_554     S
V6     V5    10.0   1_455     S
V6     V15    10.0   1_455     S
V7     V12    10.0   .     S
V7     V9    10.0   1_655     S
V7     V14    10.0   .     S
V8     V10    10.0   .     S
V8     V11    10.0   1_455     S
V8     V18    10.0   .     S
V9     V7    10.0   1_455     S
V9     V10    10.0   .     S
V9     V33    10.0   1_455     S
V10     V40    10.0   .     S
V11     V8    10.0   1_655     S
V11     V12    10.0   .     S
V11     V35    10.0   1_655     S
V12     V37    10.0   .     S
V13     V14    10.0   1_455     S
V13     V17    10.0   1_556     S
V13     V1    10.0   1_455     S
V14     V13    10.0   1_655     S
V14     V16    10.0   .     S
V15     V6    10.0   1_655     S
V15     V18    10.0   1_655     S
V15     V16    10.0   1_554     S
V16     V15    10.0   1_556     S
V16     V23    10.0   1_556     S
V17     V13    10.0   1_554     S
V17     V18    10.0   .     S
V17     V20    10.0   1_554     S
V18     V15    10.0   1_455     S
V19     V20    10.0   .     S
V19     V21    10.0   .     S
V19     V42    10.0   .     S
V20     V22    10.0   1_556     S
V20     V17    10.0   1_556     S
V21     V23    10.0   1_556     S
V21     V26    10.0   .     S
V22     V20    10.0   1_554     S
V22     V24    10.0   .     S
V22     V30    10.0   .     S
V23     V16    10.0   1_554     S
V23     V21    10.0   1_554     S
V23     V24    10.0   .     S
V24     V38    10.0   .     S
V25     V26    10.0   1_554     S
V25     V29    10.0   1_565     S
V25     V3    10.0   1_554     S
V26     V25    10.0   1_556     S
V26     V28    10.0   .     S
V27     V2    10.0   1_556     S
V27     V30    10.0   1_556     S
V27     V28    10.0   1_545     S
V28     V27    10.0   1_565     S
V28     V43    10.0   1_565     S
V29     V25    10.0   1_545     S
V29     V30    10.0   .     S
V29     V47    10.0   1_545     S
V30     V27    10.0   1_554     S
V31     V33    10.0   .     S
V31     V34    10.0   1_565     S
V31     V45    10.0   .     S
V32     V4    10.0   1_565     S
V32     V36    10.0   1_565     S
V32     V33    10.0   1_455     S
V33     V32    10.0   1_655     S
V33     V9    10.0   1_655     S
V34     V31    10.0   1_545     S
V34     V35    10.0   1_655     S
V34     V5    10.0   1_545     S
V35     V11    10.0   1_455     S
V35     V34    10.0   1_455     S
V35     V36    10.0   .     S
V36     V32    10.0   1_545     S
V36     V46    10.0   .     S
V37     V41    10.0   .     S
V37     V38    10.0   .     S
V38     V39    10.0   .     S
V39     V40    10.0   .     S
V39     V48    10.0   .     S
V40     V42    10.0   .     S
V41     V42    10.0   .     S
V41     V44    10.0   .     S
V43     V28    10.0   1_545     S
V43     V45    10.0   1_545     S
V43     V44    10.0   .     S
V44     V46    10.0   .     S
V45     V43    10.0   1_565     S
V45     V48    10.0   .     S
V46     V47    10.0   1_545     S
V47     V46    10.0   1_565     S
V47     V48    10.0   .     S
V47     V29    10.0   1_565     S
