data_pcum
_audit_creation_date              2020-02-04
_audit_creation_method            'Pymatgen'
_symmetry_space_group_name_H-M    'P1'
_symmetry_Int_Tables_number       1
loop_
_symmetry_equiv_pos_as_xyz
  x,y,z
_cell_length_a                    65.7047
_cell_length_b                    65.7047
_cell_length_c                    65.7047
_cell_angle_alpha                 90.0
_cell_angle_beta                 90.0
_cell_angle_gamma                 90.0
loop_
_atom_site_label
_atom_site_type_symbol
_atom_site_fract_x
_atom_site_fract_y
_atom_site_fract_z
V1     V     0.8014   0.5761   0.6554
V2     V     0.6986   0.6554   0.5761
V3     V     0.5761   0.6554   0.8014
V4     V     0.6554   0.5761   0.6986
V5     V     0.5761   0.8014   0.8446
V6     V     0.6554   0.6986   0.9239
V7     V     0.6986   0.5761   0.8446
V8     V     0.8014   0.6554   0.9239
V9     V     0.8446   0.5761   0.8014
V10     V     0.9239   0.6554   0.6986
V11     V     0.5761   0.8446   0.6986
V12     V     0.6554   0.9239   0.8014
V13     V     0.9239   0.6986   0.8446
V14     V     0.8446   0.8014   0.9239
V15     V     0.6986   0.8446   0.9239
V16     V     0.8014   0.9239   0.8446
V17     V     0.8446   0.6986   0.5761
V18     V     0.9239   0.8014   0.6554
V19     V     0.9239   0.8446   0.8014
V20     V     0.8446   0.9239   0.6986
V21     V     0.8014   0.8446   0.5761
V22     V     0.6986   0.9239   0.6554
V23     V     0.6554   0.8014   0.5761
V24     V     0.5761   0.6986   0.6554
V25     V     0.1554   0.0761   0.6986
V26     V     0.0761   0.1554   0.8014
V27     V     0.0761   0.3014   0.8446
V28     V     0.1554   0.1986   0.9239
V29     V     0.3014   0.0761   0.6554
V30     V     0.1986   0.1554   0.5761
V31     V     0.3446   0.0761   0.8014
V32     V     0.4239   0.1554   0.6986
V33     V     0.3446   0.1986   0.5761
V34     V     0.4239   0.3014   0.6554
V35     V     0.1986   0.0761   0.8446
V36     V     0.3014   0.1554   0.9239
V37     V     0.1554   0.3014   0.5761
V38     V     0.0761   0.1986   0.6554
V39     V     0.3446   0.3014   0.9239
V40     V     0.4239   0.1986   0.8446
V41     V     0.4239   0.3446   0.8014
V42     V     0.3446   0.4239   0.6986
V43     V     0.3014   0.3446   0.5761
V44     V     0.1986   0.4239   0.6554
V45     V     0.0761   0.3446   0.6986
V46     V     0.1554   0.4239   0.8014
V47     V     0.1986   0.3446   0.9239
V48     V     0.3014   0.4239   0.8446
V49     V     0.8446   0.3014   0.5761
V50     V     0.9239   0.1986   0.6554
V51     V     0.6986   0.3446   0.5761
V52     V     0.8014   0.4239   0.6554
V53     V     0.5761   0.3446   0.8014
V54     V     0.6554   0.4239   0.6986
V55     V     0.9239   0.3446   0.6986
V56     V     0.8446   0.4239   0.8014
V57     V     0.9239   0.3014   0.8446
V58     V     0.8446   0.1986   0.9239
V59     V     0.8014   0.3446   0.9239
V60     V     0.6986   0.4239   0.8446
V61     V     0.6986   0.1554   0.9239
V62     V     0.8014   0.0761   0.8446
V63     V     0.6554   0.3014   0.9239
V64     V     0.5761   0.1986   0.8446
V65     V     0.5761   0.3014   0.6554
V66     V     0.6554   0.1986   0.5761
V67     V     0.5761   0.1554   0.6986
V68     V     0.6554   0.0761   0.8014
V69     V     0.8014   0.1555   0.5761
V70     V     0.6986   0.0761   0.6554
V71     V     0.9239   0.1555   0.8014
V72     V     0.8446   0.0761   0.6986
V73     V     0.1555   0.5761   0.8014
V74     V     0.0761   0.6554   0.6986
V75     V     0.3014   0.5761   0.8446
V76     V     0.1986   0.6554   0.9239
V77     V     0.3446   0.5761   0.6986
V78     V     0.4239   0.6554   0.8014
V79     V     0.1986   0.5761   0.6554
V80     V     0.3014   0.6554   0.5761
V81     V     0.3446   0.8014   0.5761
V82     V     0.4239   0.6986   0.6554
V83     V     0.3446   0.9239   0.8014
V84     V     0.4239   0.8446   0.6986
V85     V     0.1554   0.8014   0.9239
V86     V     0.0761   0.6986   0.8446
V87     V     0.3446   0.6986   0.9239
V88     V     0.4239   0.8014   0.8446
V89     V     0.3014   0.8446   0.9239
V90     V     0.1986   0.9239   0.8446
V91     V     0.1554   0.6986   0.5761
V92     V     0.0761   0.8014   0.6554
V93     V     0.0761   0.8446   0.8014
V94     V     0.1554   0.9239   0.6986
V95     V     0.3014   0.9239   0.6554
V96     V     0.1986   0.8446   0.5761
V97     V     0.1986   0.5761   0.3446
V98     V     0.3014   0.6554   0.4239
V99     V     0.0761   0.8014   0.3446
V100     V     0.1554   0.6986   0.4239
V101     V     0.0761   0.8446   0.1986
V102     V     0.1554   0.9239   0.3014
V103     V     0.0761   0.6554   0.3014
V104     V     0.1554   0.5761   0.1986
V105     V     0.1986   0.6554   0.0761
V106     V     0.3014   0.5761   0.1554
V107     V     0.0761   0.6986   0.1554
V108     V     0.1554   0.8014   0.0761
V109     V     0.3014   0.8446   0.0761
V110     V     0.1986   0.9239   0.1554
V111     V     0.4239   0.8446   0.3014
V112     V     0.3446   0.9239   0.1986
V113     V     0.3014   0.9239   0.3446
V114     V     0.1986   0.8446   0.4239
V115     V     0.3446   0.8014   0.4239
V116     V     0.4239   0.6986   0.3446
V117     V     0.3446   0.6986   0.0761
V118     V     0.4239   0.8014   0.1554
V119     V     0.3446   0.5761   0.3014
V120     V     0.4239   0.6554   0.1986
V121     V     0.5761   0.8014   0.1554
V122     V     0.6554   0.6986   0.0761
V123     V     0.8014   0.9239   0.1554
V124     V     0.6986   0.8446   0.0761
V125     V     0.5761   0.6554   0.1986
V126     V     0.6554   0.5761   0.3014
V127     V     0.8014   0.5761   0.3446
V128     V     0.6986   0.6554   0.4239
V129     V     0.5761   0.8446   0.3014
V130     V     0.6554   0.9239   0.1986
V131     V     0.8446   0.9239   0.3014
V132     V     0.9239   0.8446   0.1986
V133     V     0.5761   0.6986   0.3446
V134     V     0.6554   0.8014   0.4239
V135     V     0.6986   0.9239   0.3446
V136     V     0.8014   0.8446   0.4239
V137     V     0.9239   0.8014   0.3446
V138     V     0.8446   0.6986   0.4239
V139     V     0.9239   0.6986   0.1554
V140     V     0.8446   0.8014   0.0761
V141     V     0.9239   0.6554   0.3014
V142     V     0.8446   0.5761   0.1986
V143     V     0.6986   0.5761   0.1554
V144     V     0.8014   0.6554   0.0761
V145     V     0.6554   0.4239   0.3014
V146     V     0.5761   0.3446   0.1986
V147     V     0.6554   0.3014   0.0761
V148     V     0.5761   0.1986   0.1554
V149     V     0.8014   0.3446   0.0761
V150     V     0.6986   0.4239   0.1554
V151     V     0.8446   0.3014   0.4239
V152     V     0.9239   0.1986   0.3446
V153     V     0.6986   0.3446   0.4239
V154     V     0.8014   0.4239   0.3446
V155     V     0.9239   0.3446   0.3014
V156     V     0.8446   0.4239   0.1986
V157     V     0.8446   0.1986   0.0761
V158     V     0.9239   0.3014   0.1554
V159     V     0.8014   0.0761   0.1554
V160     V     0.6986   0.1554   0.0761
V161     V     0.8446   0.0761   0.3014
V162     V     0.9239   0.1554   0.1986
V163     V     0.5761   0.1554   0.3014
V164     V     0.6554   0.0761   0.1986
V165     V     0.6986   0.0761   0.3446
V166     V     0.8014   0.1554   0.4239
V167     V     0.6554   0.1986   0.4239
V168     V     0.5761   0.3014   0.3446
V169     V     0.3014   0.0761   0.3446
V170     V     0.1986   0.1554   0.4239
V171     V     0.0761   0.1986   0.3446
V172     V     0.1554   0.3014   0.4239
V173     V     0.4239   0.3014   0.3446
V174     V     0.3446   0.1986   0.4239
V175     V     0.0761   0.3446   0.3014
V176     V     0.1554   0.4239   0.1986
V177     V     0.1986   0.3446   0.0761
V178     V     0.3014   0.4239   0.1554
V179     V     0.3446   0.3014   0.0761
V180     V     0.4239   0.1986   0.1554
V181     V     0.3014   0.3446   0.4239
V182     V     0.1986   0.4239   0.3446
V183     V     0.3446   0.4239   0.3014
V184     V     0.4239   0.3446   0.1986
V185     V     0.0761   0.3014   0.1554
V186     V     0.1554   0.1986   0.0761
V187     V     0.1555   0.0761   0.3014
V188     V     0.0761   0.1554   0.1986
V189     V     0.3446   0.0761   0.1986
V190     V     0.4239   0.1555   0.3014
V191     V     0.3014   0.1555   0.0761
V192     V     0.1986   0.0761   0.1554
loop_
_geom_bond_atom_site_label_1
_geom_bond_atom_site_label_2
_geom_bond_distance
_geom_bond_site_symmetry_2
_ccdc_geom_bond_type
V1     V4    10.0   .     S
V1     V2    9.999   .     S
V1     V9    10.0   .     S
V1     V17    10.0   .     S
V1     V10    10.0   .     S
V1     V52    10.0   .     S
V2     V17    10.0   .     S
V2     V24    10.0   .     S
V2     V4    10.0   .     S
V2     V23    10.0   .     S
V2     V128    10.0   .     S
V3     V24    10.0   .     S
V3     V4    9.999   .     S
V3     V5    10.0   .     S
V3     V7    10.0   .     S
V3     V6    10.0   .     S
V3     V78    10.0   .     S
V4     V24    10.0   .     S
V4     V7    10.0   .     S
V4     V54    10.0   .     S
V5     V6    9.999   .     S
V5     V11    10.0   .     S
V5     V15    10.0   .     S
V5     V12    10.0   .     S
V5     V88    10.0   .     S
V6     V15    10.0   .     S
V6     V7    10.0   .     S
V6     V8    10.0   .     S
V6     V122    10.0   1_556     S
V7     V9    10.0   .     S
V7     V8    9.999   .     S
V7     V60    10.0   .     S
V8     V13    10.0   .     S
V8     V9    10.0   .     S
V8     V14    10.0   .     S
V8     V144    10.0   1_556     S
V9     V13    10.0   .     S
V9     V10    9.999   .     S
V9     V56    10.0   .     S
V10     V13    10.0   .     S
V10     V17    10.0   .     S
V10     V18    10.0   .     S
V10     V74    10.0   1_655     S
V11     V12    9.999   .     S
V11     V22    10.0   .     S
V11     V23    10.0   .     S
V11     V24    10.0   .     S
V11     V84    10.0   .     S
V12     V22    10.0   .     S
V12     V15    10.0   .     S
V12     V16    10.0   .     S
V12     V68    10.0   1_565     S
V13     V19    10.0   .     S
V13     V14    9.999   .     S
V13     V86    10.0   1_655     S
V14     V15    10.0   .     S
V14     V19    10.0   .     S
V14     V16    10.0   .     S
V14     V140    10.0   1_556     S
V15     V16    9.999   .     S
V15     V124    10.0   1_556     S
V16     V19    10.0   .     S
V16     V20    10.0   .     S
V16     V62    10.0   1_565     S
V17     V21    10.0   .     S
V17     V18    9.999   .     S
V17     V138    10.0   .     S
V18     V19    10.0   .     S
V18     V21    10.0   .     S
V18     V20    10.0   .     S
V18     V92    10.0   1_655     S
V19     V20    9.999   .     S
V19     V93    10.0   1_655     S
V20     V21    10.0   .     S
V20     V22    10.0   .     S
V20     V72    10.0   1_565     S
V21     V23    10.0   .     S
V21     V22    9.999   .     S
V21     V136    10.0   .     S
V22     V23    10.0   .     S
V22     V70    10.0   1_565     S
V23     V24    9.999   .     S
V23     V134    10.0   .     S
V24     V82    10.0   .     S
V25     V30    10.0   .     S
V25     V38    10.0   .     S
V25     V35    10.0   .     S
V25     V26    9.999   .     S
V25     V29    10.0   .     S
V25     V94    10.0   1_545     S
V26     V38    10.0   .     S
V26     V28    10.0   .     S
V26     V35    10.0   .     S
V26     V27    10.0   .     S
V26     V71    10.0   1_455     S
V27     V28    9.999   .     S
V27     V45    10.0   .     S
V27     V47    10.0   .     S
V27     V46    10.0   .     S
V27     V57    10.0   1_455     S
V28     V35    10.0   .     S
V28     V47    10.0   .     S
V28     V36    10.0   .     S
V28     V186    10.0   1_556     S
V29     V30    9.999   .     S
V29     V31    10.0   .     S
V29     V32    10.0   .     S
V29     V33    10.0   .     S
V29     V95    10.0   1_545     S
V30     V38    10.0   .     S
V30     V33    10.0   .     S
V30     V37    10.0   .     S
V30     V170    10.0   .     S
V31     V32    9.999   .     S
V31     V40    10.0   .     S
V31     V36    10.0   .     S
V31     V35    10.0   .     S
V31     V83    10.0   1_545     S
V32     V40    10.0   .     S
V32     V33    10.0   .     S
V32     V34    10.0   .     S
V32     V67    10.0   .     S
V33     V43    10.0   .     S
V33     V34    9.999   .     S
V33     V174    10.0   .     S
V34     V41    10.0   .     S
V34     V42    10.0   .     S
V34     V43    10.0   .     S
V34     V65    10.0   .     S
V35     V36    9.999   .     S
V35     V90    10.0   1_545     S
V36     V40    10.0   .     S
V36     V39    10.0   .     S
V36     V191    10.0   1_556     S
V37     V45    10.0   .     S
V37     V44    10.0   .     S
V37     V38    9.999   .     S
V37     V43    10.0   .     S
V37     V172    10.0   .     S
V38     V45    10.0   .     S
V38     V50    10.0   1_455     S
V39     V48    10.0   .     S
V39     V41    10.0   .     S
V39     V40    9.999   .     S
V39     V47    10.0   .     S
V39     V179    10.0   1_556     S
V40     V41    10.0   .     S
V40     V64    10.0   .     S
V41     V48    10.0   .     S
V41     V42    9.999   .     S
V41     V53    10.0   .     S
V42     V48    10.0   .     S
V42     V43    10.0   .     S
V42     V44    10.0   .     S
V42     V77    10.0   .     S
V43     V44    9.999   .     S
V43     V181    10.0   .     S
V44     V45    10.0   .     S
V44     V46    10.0   .     S
V44     V79    10.0   .     S
V45     V46    9.999   .     S
V45     V55    10.0   1_455     S
V46     V47    10.0   .     S
V46     V48    10.0   .     S
V46     V73    10.0   .     S
V47     V48    9.999   .     S
V47     V177    10.0   1_556     S
V48     V75    10.0   .     S
V49     V69    10.0   .     S
V49     V50    9.999   .     S
V49     V52    10.0   .     S
V49     V55    10.0   .     S
V49     V51    10.0   .     S
V49     V151    10.0   .     S
V50     V55    10.0   .     S
V50     V69    10.0   .     S
V50     V72    10.0   .     S
V50     V71    10.0   .     S
V50     V38    10.0   1_655     S
V51     V52    9.999   .     S
V51     V54    10.0   .     S
V51     V65    10.0   .     S
V51     V66    10.0   .     S
V51     V153    10.0   .     S
V52     V55    10.0   .     S
V52     V54    10.0   .     S
V52     V56    10.0   .     S
V53     V65    10.0   .     S
V53     V54    9.999   .     S
V53     V60    10.0   .     S
V53     V63    10.0   .     S
V53     V64    10.0   .     S
V54     V65    10.0   .     S
V54     V60    10.0   .     S
V55     V57    10.0   .     S
V55     V56    9.999   .     S
V55     V45    10.0   1_655     S
V56     V59    10.0   .     S
V56     V57    10.0   .     S
V56     V60    10.0   .     S
V57     V71    10.0   .     S
V57     V58    9.999   .     S
V57     V59    10.0   .     S
V57     V27    10.0   1_655     S
V58     V59    10.0   .     S
V58     V71    10.0   .     S
V58     V62    10.0   .     S
V58     V61    10.0   .     S
V58     V157    10.0   1_556     S
V59     V63    10.0   .     S
V59     V60    9.999   .     S
V59     V149    10.0   1_556     S
V60     V63    10.0   .     S
V61     V62    9.999   .     S
V61     V63    10.0   .     S
V61     V68    10.0   .     S
V61     V64    10.0   .     S
V61     V160    10.0   1_556     S
V62     V71    10.0   .     S
V62     V68    10.0   .     S
V62     V72    10.0   .     S
V62     V16    10.0   1_545     S
V63     V64    9.999   .     S
V63     V147    10.0   1_556     S
V64     V68    10.0   .     S
V64     V67    10.0   .     S
V65     V67    10.0   .     S
V65     V66    9.999   .     S
V66     V70    10.0   .     S
V66     V67    10.0   .     S
V66     V69    10.0   .     S
V66     V167    10.0   .     S
V67     V68    9.999   .     S
V67     V70    10.0   .     S
V68     V70    10.0   .     S
V68     V12    10.0   1_545     S
V69     V70    9.999   .     S
V69     V72    10.0   .     S
V69     V166    10.0   .     S
V70     V72    10.0   .     S
V70     V22    10.0   1_545     S
V71     V72    9.999   .     S
V71     V26    10.0   1_655     S
V72     V20    10.0   1_545     S
V73     V79    10.0   .     S
V73     V74    9.999   .     S
V73     V75    10.0   .     S
V73     V76    10.0   .     S
V73     V86    10.0   .     S
V74     V86    10.0   .     S
V74     V91    10.0   .     S
V74     V79    10.0   .     S
V74     V92    10.0   .     S
V74     V10    10.0   1_455     S
V75     V76    9.999   .     S
V75     V78    10.0   .     S
V75     V87    10.0   .     S
V75     V77    10.0   .     S
V76     V87    10.0   .     S
V76     V86    10.0   .     S
V76     V85    10.0   .     S
V76     V105    10.0   1_556     S
V77     V78    9.999   .     S
V77     V79    10.0   .     S
V77     V82    10.0   .     S
V77     V80    10.0   .     S
V78     V87    10.0   .     S
V78     V82    10.0   .     S
V78     V88    10.0   .     S
V79     V91    10.0   .     S
V79     V80    9.999   .     S
V80     V91    10.0   .     S
V80     V82    10.0   .     S
V80     V81    10.0   .     S
V80     V98    10.0   .     S
V81     V82    9.999   .     S
V81     V84    10.0   .     S
V81     V95    10.0   .     S
V81     V96    10.0   .     S
V81     V115    10.0   .     S
V82     V84    10.0   .     S
V83     V95    10.0   .     S
V83     V84    9.999   .     S
V83     V88    10.0   .     S
V83     V89    10.0   .     S
V83     V90    10.0   .     S
V83     V31    10.0   1_565     S
V84     V95    10.0   .     S
V84     V88    10.0   .     S
V85     V86    9.999   .     S
V85     V93    10.0   .     S
V85     V90    10.0   .     S
V85     V89    10.0   .     S
V85     V108    10.0   1_556     S
V86     V93    10.0   .     S
V86     V13    10.0   1_455     S
V87     V89    10.0   .     S
V87     V88    9.999   .     S
V87     V117    10.0   1_556     S
V88     V89    10.0   .     S
V89     V90    9.999   .     S
V89     V109    10.0   1_556     S
V90     V93    10.0   .     S
V90     V94    10.0   .     S
V90     V35    10.0   1_565     S
V91     V96    10.0   .     S
V91     V92    9.999   .     S
V91     V100    10.0   .     S
V92     V93    10.0   .     S
V92     V96    10.0   .     S
V92     V94    10.0   .     S
V92     V18    10.0   1_455     S
V93     V94    9.999   .     S
V93     V19    10.0   1_455     S
V94     V96    10.0   .     S
V94     V95    10.0   .     S
V94     V25    10.0   1_565     S
V95     V96    9.999   .     S
V95     V29    10.0   1_565     S
V96     V114    10.0   .     S
V97     V100    10.0   .     S
V97     V103    10.0   .     S
V97     V119    10.0   .     S
V97     V98    9.999   .     S
V97     V104    10.0   .     S
V97     V182    10.0   .     S
V98     V100    10.0   .     S
V98     V116    10.0   .     S
V98     V119    10.0   .     S
V98     V115    10.0   .     S
V99     V103    10.0   .     S
V99     V100    9.999   .     S
V99     V102    10.0   .     S
V99     V114    10.0   .     S
V99     V101    10.0   .     S
V99     V137    10.0   1_455     S
V100     V103    10.0   .     S
V100     V114    10.0   .     S
V101     V102    9.999   .     S
V101     V107    10.0   .     S
V101     V108    10.0   .     S
V101     V110    10.0   .     S
V101     V132    10.0   1_455     S
V102     V114    10.0   .     S
V102     V110    10.0   .     S
V102     V113    10.0   .     S
V102     V187    10.0   1_565     S
V103     V107    10.0   .     S
V103     V104    9.999   .     S
V103     V141    10.0   1_455     S
V104     V106    10.0   .     S
V104     V107    10.0   .     S
V104     V105    10.0   .     S
V104     V176    10.0   .     S
V105     V117    10.0   .     S
V105     V106    9.999   .     S
V105     V107    10.0   .     S
V105     V108    10.0   .     S
V105     V76    10.0   1_554     S
V106     V117    10.0   .     S
V106     V120    10.0   .     S
V106     V119    10.0   .     S
V106     V178    10.0   .     S
V107     V108    9.999   .     S
V107     V139    10.0   1_455     S
V108     V110    10.0   .     S
V108     V109    10.0   .     S
V108     V85    10.0   1_554     S
V109     V110    9.999   .     S
V109     V112    10.0   .     S
V109     V118    10.0   .     S
V109     V117    10.0   .     S
V109     V89    10.0   1_554     S
V110     V112    10.0   .     S
V110     V192    10.0   1_565     S
V111     V118    10.0   .     S
V111     V112    9.999   .     S
V111     V115    10.0   .     S
V111     V113    10.0   .     S
V111     V116    10.0   .     S
V111     V129    10.0   .     S
V112     V118    10.0   .     S
V112     V113    10.0   .     S
V112     V189    10.0   1_565     S
V113     V115    10.0   .     S
V113     V114    9.999   .     S
V113     V169    10.0   1_565     S
V114     V115    10.0   .     S
V115     V116    9.999   .     S
V116     V119    10.0   .     S
V116     V120    10.0   .     S
V116     V133    10.0   .     S
V117     V118    9.999   .     S
V117     V120    10.0   .     S
V117     V87    10.0   1_554     S
V118     V120    10.0   .     S
V118     V121    10.0   .     S
V119     V120    9.999   .     S
V119     V183    10.0   .     S
V120     V125    10.0   .     S
V121     V125    10.0   .     S
V121     V122    9.999   .     S
V121     V124    10.0   .     S
V121     V130    10.0   .     S
V121     V129    10.0   .     S
V122     V125    10.0   .     S
V122     V143    10.0   .     S
V122     V124    10.0   .     S
V122     V144    10.0   .     S
V122     V6    10.0   1_554     S
V123     V130    10.0   .     S
V123     V124    9.999   .     S
V123     V140    10.0   .     S
V123     V132    10.0   .     S
V123     V131    10.0   .     S
V123     V159    10.0   1_565     S
V124     V130    10.0   .     S
V124     V140    10.0   .     S
V124     V15    10.0   1_554     S
V125     V143    10.0   .     S
V125     V133    10.0   .     S
V125     V126    9.999   .     S
V126     V143    10.0   .     S
V126     V128    10.0   .     S
V126     V133    10.0   .     S
V126     V127    10.0   .     S
V126     V145    10.0   .     S
V127     V128    9.999   .     S
V127     V138    10.0   .     S
V127     V141    10.0   .     S
V127     V142    10.0   .     S
V127     V154    10.0   .     S
V128     V133    10.0   .     S
V128     V138    10.0   .     S
V128     V134    10.0   .     S
V129     V130    9.999   .     S
V129     V133    10.0   .     S
V129     V134    10.0   .     S
V129     V135    10.0   .     S
V130     V135    10.0   .     S
V130     V164    10.0   1_565     S
V131     V132    9.999   .     S
V131     V135    10.0   .     S
V131     V136    10.0   .     S
V131     V137    10.0   .     S
V131     V161    10.0   1_565     S
V132     V140    10.0   .     S
V132     V137    10.0   .     S
V132     V139    10.0   .     S
V132     V101    10.0   1_655     S
V133     V134    9.999   .     S
V134     V135    10.0   .     S
V134     V136    10.0   .     S
V135     V136    9.999   .     S
V135     V165    10.0   1_565     S
V136     V137    10.0   .     S
V136     V138    10.0   .     S
V137     V141    10.0   .     S
V137     V138    9.999   .     S
V137     V99    10.0   1_655     S
V138     V141    10.0   .     S
V139     V140    9.999   .     S
V139     V141    10.0   .     S
V139     V144    10.0   .     S
V139     V142    10.0   .     S
V139     V107    10.0   1_655     S
V140     V144    10.0   .     S
V140     V14    10.0   1_554     S
V141     V142    9.999   .     S
V141     V103    10.0   1_655     S
V142     V144    10.0   .     S
V142     V143    10.0   .     S
V142     V156    10.0   .     S
V143     V144    9.999   .     S
V143     V150    10.0   .     S
V144     V8    10.0   1_554     S
V145     V153    10.0   .     S
V145     V168    10.0   .     S
V145     V150    10.0   .     S
V145     V146    9.999   .     S
V145     V154    10.0   .     S
V146     V168    10.0   .     S
V146     V150    10.0   .     S
V146     V147    10.0   .     S
V146     V148    10.0   .     S
V146     V184    10.0   .     S
V147     V150    10.0   .     S
V147     V160    10.0   .     S
V147     V148    9.999   .     S
V147     V149    10.0   .     S
V147     V63    10.0   1_554     S
V148     V160    10.0   .     S
V148     V164    10.0   .     S
V148     V163    10.0   .     S
V148     V180    10.0   .     S
V149     V150    9.999   .     S
V149     V158    10.0   .     S
V149     V156    10.0   .     S
V149     V157    10.0   .     S
V149     V59    10.0   1_554     S
V150     V156    10.0   .     S
V151     V166    10.0   .     S
V151     V152    9.999   .     S
V151     V153    10.0   .     S
V151     V155    10.0   .     S
V151     V154    10.0   .     S
V152     V166    10.0   .     S
V152     V161    10.0   .     S
V152     V155    10.0   .     S
V152     V162    10.0   .     S
V152     V171    10.0   1_655     S
V153     V168    10.0   .     S
V153     V154    9.999   .     S
V153     V167    10.0   .     S
V154     V155    10.0   .     S
V154     V156    10.0   .     S
V155     V158    10.0   .     S
V155     V156    9.999   .     S
V155     V175    10.0   1_655     S
V156     V158    10.0   .     S
V157     V158    9.999   .     S
V157     V160    10.0   .     S
V157     V162    10.0   .     S
V157     V159    10.0   .     S
V157     V58    10.0   1_554     S
V158     V162    10.0   .     S
V158     V185    10.0   1_655     S
V159     V164    10.0   .     S
V159     V160    9.999   .     S
V159     V162    10.0   .     S
V159     V161    10.0   .     S
V159     V123    10.0   1_545     S
V160     V164    10.0   .     S
V160     V61    10.0   1_554     S
V161     V166    10.0   .     S
V161     V162    9.999   .     S
V161     V165    10.0   .     S
V161     V131    10.0   1_545     S
V162     V188    10.0   1_655     S
V163     V164    9.999   .     S
V163     V165    10.0   .     S
V163     V167    10.0   .     S
V163     V168    10.0   .     S
V163     V190    10.0   .     S
V164     V165    10.0   .     S
V164     V130    10.0   1_545     S
V165     V166    9.999   .     S
V165     V167    10.0   .     S
V165     V135    10.0   1_545     S
V166     V167    10.0   .     S
V167     V168    9.999   .     S
V168     V173    10.0   .     S
V169     V190    10.0   .     S
V169     V174    10.0   .     S
V169     V187    10.0   .     S
V169     V170    9.999   .     S
V169     V189    10.0   .     S
V169     V113    10.0   1_545     S
V170     V174    10.0   .     S
V170     V187    10.0   .     S
V170     V171    10.0   .     S
V170     V172    10.0   .     S
V171     V187    10.0   .     S
V171     V175    10.0   .     S
V171     V172    9.999   .     S
V171     V188    10.0   .     S
V171     V152    10.0   1_455     S
V172     V182    10.0   .     S
V172     V175    10.0   .     S
V172     V181    10.0   .     S
V173     V190    10.0   .     S
V173     V174    9.999   .     S
V173     V181    10.0   .     S
V173     V183    10.0   .     S
V173     V184    10.0   .     S
V174     V190    10.0   .     S
V174     V181    10.0   .     S
V175     V182    10.0   .     S
V175     V185    10.0   .     S
V175     V176    9.999   .     S
V175     V155    10.0   1_455     S
V176     V182    10.0   .     S
V176     V185    10.0   .     S
V176     V177    10.0   .     S
V176     V178    10.0   .     S
V177     V185    10.0   .     S
V177     V179    10.0   .     S
V177     V178    9.999   .     S
V177     V186    10.0   .     S
V177     V47    10.0   1_554     S
V178     V179    10.0   .     S
V178     V184    10.0   .     S
V178     V183    10.0   .     S
V179     V191    10.0   .     S
V179     V180    9.999   .     S
V179     V184    10.0   .     S
V179     V39    10.0   1_554     S
V180     V184    10.0   .     S
V180     V190    10.0   .     S
V180     V191    10.0   .     S
V180     V189    10.0   .     S
V181     V182    9.999   .     S
V181     V183    10.0   .     S
V182     V183    10.0   .     S
V183     V184    9.999   .     S
V185     V188    10.0   .     S
V185     V186    9.999   .     S
V185     V158    10.0   1_455     S
V186     V188    10.0   .     S
V186     V192    10.0   .     S
V186     V191    10.0   .     S
V186     V28    10.0   1_554     S
V187     V192    10.0   .     S
V187     V188    9.999   .     S
V187     V102    10.0   1_545     S
V188     V192    10.0   .     S
V188     V162    10.0   1_455     S
V189     V190    9.999   .     S
V189     V191    10.0   .     S
V189     V192    10.0   .     S
V189     V112    10.0   1_545     S
V191     V192    9.999   .     S
V191     V36    10.0   1_554     S
V192     V110    10.0   1_545     S
