data_pdb
_audit_creation_date              2020-02-04
_audit_creation_method            'Pymatgen'
_symmetry_space_group_name_H-M    'P1'
_symmetry_Int_Tables_number       1
loop_
_symmetry_equiv_pos_as_xyz
  x,y,z
_cell_length_a                    41.4694
_cell_length_b                    41.4694
_cell_length_c                    41.4694
_cell_angle_alpha                 90.0
_cell_angle_beta                 90.0
_cell_angle_gamma                 90.0
loop_
_atom_site_label
_atom_site_type_symbol
_atom_site_fract_x
_atom_site_fract_y
_atom_site_fract_z
Er1     Er     0.2219   0.5   0.2219
Er2     Er     0.2219   0.5   0.7781
V3     V     0.3123   0.5   0.0
Er4     Er     0.7781   0.5   0.7781
V5     V     0.6877   0.5   0.0
V6     V     0.0   0.5   0.6877
Er7     Er     0.7781   0.5   0.2219
V8     V     0.0   0.5   0.3123
Er9     Er     0.5   0.2219   0.2219
Er10     Er     0.5   0.2219   0.7781
V11     V     0.5   0.3123   0.0
Er12     Er     0.5   0.7781   0.7781
V13     V     0.5   0.6877   0.0
V14     V     0.5   0.0   0.6877
Er15     Er     0.5   0.7781   0.2219
V16     V     0.5   0.0   0.3123
Er17     Er     0.2219   0.2219   0.5
Er18     Er     0.2219   0.7781   0.5
V19     V     0.3123   0.0   0.5
Er20     Er     0.7781   0.7781   0.5
V21     V     0.6877   0.0   0.5
V22     V     0.0   0.6877   0.5
Er23     Er     0.7781   0.2219   0.5
V24     V     0.0   0.3123   0.5
Ti25     Ti     0.1214   0.2926   0.2926
Ti26     Ti     0.2926   0.1214   0.2926
Ti27     Ti     0.2926   0.2926   0.1214
Ti28     Ti     0.7073   0.1214   0.2926
Ti29     Ti     0.2926   0.8786   0.2926
Ti30     Ti     0.2926   0.1214   0.7073
Ti31     Ti     0.8786   0.2926   0.2926
Ti32     Ti     0.1214   0.7073   0.2926
Ti33     Ti     0.1214   0.2926   0.7073
Ti34     Ti     0.2926   0.2926   0.8786
Ti35     Ti     0.2926   0.7073   0.1214
Ti36     Ti     0.7073   0.2926   0.1214
Ti37     Ti     0.8786   0.7073   0.2926
Ti38     Ti     0.8786   0.2926   0.7073
Ti39     Ti     0.7073   0.8786   0.2926
Ti40     Ti     0.2926   0.8786   0.7073
Ti41     Ti     0.2926   0.7073   0.8786
Ti42     Ti     0.7073   0.2926   0.8786
Ti43     Ti     0.1214   0.7073   0.7073
Ti44     Ti     0.7073   0.1214   0.7073
Ti45     Ti     0.7073   0.7073   0.1214
Ti46     Ti     0.7073   0.8786   0.7073
Ti47     Ti     0.8786   0.7073   0.7073
Ti48     Ti     0.7073   0.7073   0.8786
loop_
_geom_bond_atom_site_label_1
_geom_bond_atom_site_label_2
_geom_bond_distance
_geom_bond_site_symmetry_2
_ccdc_geom_bond_type
Er1     V8    9.936   .     S
Er1     V3    9.936   .     S
Er1     Ti25    9.996   .     S
Er1     Ti27    9.996   .     S
Er1     Ti35    9.996   .     S
Er1     Ti32    9.996   .     S
Er2     V6    9.936   .     S
Er2     V3    9.936   1_556     S
Er2     Ti34    9.996   .     S
Er2     Ti41    9.996   .     S
Er2     Ti33    9.996   .     S
Er2     Ti43    9.996   .     S
V3     Er2    9.936   1_554     S
V3     Ti34    9.997   1_554     S
V3     Ti27    9.997   .     S
V3     Ti41    9.997   1_554     S
V3     Ti35    9.997   .     S
Er4     V5    9.936   1_556     S
Er4     V6    9.936   1_655     S
Er4     Ti38    9.996   .     S
Er4     Ti42    9.996   .     S
Er4     Ti48    9.996   .     S
Er4     Ti47    9.996   .     S
V5     Er4    9.936   1_554     S
V5     Er7    9.936   .     S
V5     Ti42    9.997   1_554     S
V5     Ti36    9.997   .     S
V5     Ti48    9.997   1_554     S
V5     Ti45    9.997   .     S
V6     Er4    9.936   1_455     S
V6     Ti38    9.997   1_455     S
V6     Ti33    9.997   .     S
V6     Ti47    9.997   1_455     S
V6     Ti43    9.997   .     S
Er7     V8    9.936   1_655     S
Er7     Ti31    9.996   .     S
Er7     Ti37    9.996   .     S
Er7     Ti36    9.996   .     S
Er7     Ti45    9.996   .     S
V8     Er7    9.936   1_455     S
V8     Ti31    9.997   1_455     S
V8     Ti25    9.997   .     S
V8     Ti37    9.997   1_455     S
V8     Ti32    9.997   .     S
Er9     V16    9.936   .     S
Er9     V11    9.936   .     S
Er9     Ti27    9.996   .     S
Er9     Ti26    9.996   .     S
Er9     Ti28    9.996   .     S
Er9     Ti36    9.996   .     S
Er10     V14    9.936   .     S
Er10     V11    9.936   1_556     S
Er10     Ti34    9.996   .     S
Er10     Ti42    9.996   .     S
Er10     Ti30    9.996   .     S
Er10     Ti44    9.996   .     S
V11     Er10    9.936   1_554     S
V11     Ti34    9.997   1_554     S
V11     Ti27    9.997   .     S
V11     Ti42    9.997   1_554     S
V11     Ti36    9.997   .     S
Er12     V13    9.936   1_556     S
Er12     V14    9.936   1_565     S
Er12     Ti41    9.996   .     S
Er12     Ti40    9.996   .     S
Er12     Ti46    9.996   .     S
Er12     Ti48    9.996   .     S
V13     Er12    9.936   1_554     S
V13     Er15    9.936   .     S
V13     Ti41    9.997   1_554     S
V13     Ti35    9.997   .     S
V13     Ti48    9.997   1_554     S
V13     Ti45    9.997   .     S
V14     Er12    9.936   1_545     S
V14     Ti40    9.997   1_545     S
V14     Ti30    9.997   .     S
V14     Ti46    9.997   1_545     S
V14     Ti44    9.997   .     S
Er15     V16    9.936   1_565     S
Er15     Ti29    9.996   .     S
Er15     Ti39    9.996   .     S
Er15     Ti35    9.996   .     S
Er15     Ti45    9.996   .     S
V16     Er15    9.936   1_545     S
V16     Ti29    9.997   1_545     S
V16     Ti26    9.997   .     S
V16     Ti39    9.997   1_545     S
V16     Ti28    9.997   .     S
Er17     V24    9.936   .     S
Er17     V19    9.936   .     S
Er17     Ti26    9.996   .     S
Er17     Ti25    9.996   .     S
Er17     Ti33    9.996   .     S
Er17     Ti30    9.996   .     S
Er18     V22    9.936   .     S
Er18     V19    9.936   1_565     S
Er18     Ti29    9.996   .     S
Er18     Ti40    9.996   .     S
Er18     Ti32    9.996   .     S
Er18     Ti43    9.996   .     S
V19     Er18    9.936   1_545     S
V19     Ti29    9.997   1_545     S
V19     Ti26    9.997   .     S
V19     Ti40    9.997   1_545     S
V19     Ti30    9.997   .     S
Er20     V21    9.936   1_565     S
Er20     V22    9.936   1_655     S
Er20     Ti39    9.996   .     S
Er20     Ti37    9.996   .     S
Er20     Ti47    9.996   .     S
Er20     Ti46    9.996   .     S
V21     Er20    9.936   1_545     S
V21     Er23    9.936   .     S
V21     Ti39    9.997   1_545     S
V21     Ti28    9.997   .     S
V21     Ti46    9.997   1_545     S
V21     Ti44    9.997   .     S
V22     Er20    9.936   1_455     S
V22     Ti37    9.997   1_455     S
V22     Ti32    9.997   .     S
V22     Ti47    9.997   1_455     S
V22     Ti43    9.997   .     S
Er23     V24    9.936   1_655     S
Er23     Ti31    9.996   .     S
Er23     Ti38    9.996   .     S
Er23     Ti28    9.996   .     S
Er23     Ti44    9.996   .     S
V24     Er23    9.936   1_455     S
V24     Ti31    9.997   1_455     S
V24     Ti25    9.997   .     S
V24     Ti38    9.997   1_455     S
V24     Ti33    9.997   .     S
Ti25     Ti31    10.07   1_455     S
Ti25     Ti27    10.043   .     S
Ti25     Ti26    10.043   .     S
Ti26     Ti29    10.07   1_545     S
Ti26     Ti27    10.043   .     S
Ti27     Ti34    10.07   1_554     S
Ti28     Ti39    10.07   1_545     S
Ti28     Ti31    10.043   .     S
Ti28     Ti36    10.043   .     S
Ti29     Ti26    10.07   1_565     S
Ti29     V16    9.997   1_565     S
Ti29     V19    9.997   1_565     S
Ti29     Ti35    10.043   .     S
Ti29     Ti32    10.043   .     S
Ti30     Ti40    10.07   1_545     S
Ti30     Ti34    10.043   .     S
Ti30     Ti33    10.043   .     S
Ti31     Ti25    10.07   1_655     S
Ti31     V8    9.997   1_655     S
Ti31     V24    9.997   1_655     S
Ti31     Ti36    10.043   .     S
Ti32     Ti37    10.07   1_455     S
Ti32     Ti35    10.043   .     S
Ti33     Ti38    10.07   1_455     S
Ti33     Ti34    10.043   .     S
Ti34     Ti27    10.07   1_556     S
Ti34     V3    9.997   1_556     S
Ti34     V11    9.997   1_556     S
Ti35     Ti41    10.07   1_554     S
Ti36     Ti42    10.07   1_554     S
Ti37     Ti32    10.07   1_655     S
Ti37     V8    9.997   1_655     S
Ti37     V22    9.997   1_655     S
Ti37     Ti39    10.043   .     S
Ti37     Ti45    10.043   .     S
Ti38     Ti33    10.07   1_655     S
Ti38     V6    9.997   1_655     S
Ti38     V24    9.997   1_655     S
Ti38     Ti42    10.043   .     S
Ti38     Ti44    10.043   .     S
Ti39     Ti28    10.07   1_565     S
Ti39     V16    9.997   1_565     S
Ti39     V21    9.997   1_565     S
Ti39     Ti45    10.043   .     S
Ti40     Ti30    10.07   1_565     S
Ti40     V14    9.997   1_565     S
Ti40     V19    9.997   1_565     S
Ti40     Ti41    10.043   .     S
Ti40     Ti43    10.043   .     S
Ti41     Ti35    10.07   1_556     S
Ti41     V3    9.997   1_556     S
Ti41     V13    9.997   1_556     S
Ti41     Ti43    10.043   .     S
Ti42     Ti36    10.07   1_556     S
Ti42     V5    9.997   1_556     S
Ti42     V11    9.997   1_556     S
Ti42     Ti44    10.043   .     S
Ti43     Ti47    10.07   1_455     S
Ti44     Ti46    10.07   1_545     S
Ti45     Ti48    10.07   1_554     S
Ti46     Ti44    10.07   1_565     S
Ti46     V14    9.997   1_565     S
Ti46     V21    9.997   1_565     S
Ti46     Ti48    10.043   .     S
Ti46     Ti47    10.043   .     S
Ti47     Ti43    10.07   1_655     S
Ti47     V6    9.997   1_655     S
Ti47     V22    9.997   1_655     S
Ti47     Ti48    10.043   .     S
Ti48     Ti45    10.07   1_556     S
Ti48     V5    9.997   1_556     S
Ti48     V13    9.997   1_556     S
