data_phi
_audit_creation_date              2020-02-04
_audit_creation_method            'Pymatgen'
_symmetry_space_group_name_H-M    'P1'
_symmetry_Int_Tables_number       1
loop_
_symmetry_equiv_pos_as_xyz
  x,y,z
_cell_length_a                    33.3722
_cell_length_b                    44.5833
_cell_length_c                    44.528
_cell_angle_alpha                 90.0
_cell_angle_beta                 90.0
_cell_angle_gamma                 90.0
loop_
_atom_site_label
_atom_site_type_symbol
_atom_site_fract_x
_atom_site_fract_y
_atom_site_fract_z
Er1     Er     0.6498   0.2227   0.1377
Er2     Er     0.6498   0.7773   0.8623
V3     V     0.8502   0.1113   0.0134
V4     V     0.8502   0.8887   0.9866
Er5     Er     0.6498   0.2227   0.3623
Er6     Er     0.6498   0.7773   0.6377
V7     V     0.8502   0.8887   0.5134
V8     V     0.8502   0.1113   0.4866
Er9     Er     0.3502   0.2227   0.1377
Er10     Er     0.3502   0.7773   0.8623
V11     V     0.1498   0.1113   0.0134
V12     V     0.1498   0.8887   0.9866
Er13     Er     0.3502   0.2227   0.3623
Er14     Er     0.3502   0.7773   0.6377
V15     V     0.1498   0.1113   0.4866
V16     V     0.1498   0.8887   0.5134
Er17     Er     0.1498   0.2773   0.6377
Er18     Er     0.1498   0.7227   0.3623
V19     V     0.3502   0.3887   0.5134
V20     V     0.3502   0.6113   0.4866
Er21     Er     0.1498   0.2773   0.8623
Er22     Er     0.1498   0.7227   0.1377
V23     V     0.3502   0.6113   0.0134
V24     V     0.3502   0.3887   0.9866
Er25     Er     0.8502   0.2773   0.8623
Er26     Er     0.8502   0.7227   0.1377
V27     V     0.6498   0.3887   0.9866
V28     V     0.6498   0.6113   0.0134
Er29     Er     0.8502   0.2773   0.6377
Er30     Er     0.8502   0.7227   0.3623
V31     V     0.6498   0.6113   0.4866
V32     V     0.6498   0.3887   0.5134
loop_
_geom_bond_atom_site_label_1
_geom_bond_atom_site_label_2
_geom_bond_distance
_geom_bond_site_symmetry_2
_ccdc_geom_bond_type
Er1     V3    10.0   .     S
Er1     Er5    10.0   .     S
Er1     Er9    10.0   .     S
Er1     V27    10.0   1_554     S
Er2     V4    10.0   .     S
Er2     Er6    10.0   .     S
Er2     Er10    10.0   .     S
Er2     V28    10.0   1_556     S
V3     V4    9.999   1_544     S
V3     Er25    10.0   1_554     S
V3     V11    10.0   1_655     S
V4     V3    9.999   1_566     S
V4     Er26    10.0   1_556     S
V4     V12    10.0   1_655     S
Er5     V8    10.0   .     S
Er5     Er13    10.0   .     S
Er5     V32    10.0   .     S
Er6     V7    10.0   .     S
Er6     Er14    10.0   .     S
Er6     V31    10.0   .     S
V7     V8    9.999   1_565     S
V7     Er30    10.0   .     S
V7     V16    10.0   1_655     S
V8     V7    9.999   1_545     S
V8     Er29    10.0   .     S
V8     V15    10.0   1_655     S
Er9     V11    10.0   .     S
Er9     Er13    10.0   .     S
Er9     V24    10.0   1_554     S
Er10     V12    10.0   .     S
Er10     Er14    10.0   .     S
Er10     V23    10.0   1_556     S
V11     V12    9.999   1_544     S
V11     Er21    10.0   1_554     S
V11     V3    10.0   1_455     S
V12     V11    9.999   1_566     S
V12     Er22    10.0   1_556     S
V12     V4    10.0   1_455     S
Er13     V15    10.0   .     S
Er13     V19    10.0   .     S
Er14     V16    10.0   .     S
Er14     V20    10.0   .     S
V15     V16    9.999   1_545     S
V15     Er17    10.0   .     S
V15     V8    10.0   1_455     S
V16     V15    9.999   1_565     S
V16     Er18    10.0   .     S
V16     V7    10.0   1_455     S
Er17     V19    10.0   .     S
Er17     Er21    10.0   .     S
Er17     Er29    10.0   1_455     S
Er18     V20    10.0   .     S
Er18     Er22    10.0   .     S
Er18     Er30    10.0   1_455     S
V19     V20    9.999   .     S
V19     V32    10.0   .     S
V20     V31    10.0   .     S
Er21     V11    10.0   1_556     S
Er21     V24    10.0   .     S
Er21     Er25    10.0   1_455     S
Er22     V12    10.0   1_554     S
Er22     V23    10.0   .     S
Er22     Er26    10.0   1_455     S
V23     V24    9.999   1_554     S
V23     Er10    10.0   1_554     S
V23     V28    10.0   .     S
V24     V23    9.999   1_556     S
V24     Er9    10.0   1_556     S
V24     V27    10.0   .     S
Er25     V3    10.0   1_556     S
Er25     Er21    10.0   1_655     S
Er25     V27    10.0   .     S
Er25     Er29    10.0   .     S
Er26     V4    10.0   1_554     S
Er26     Er22    10.0   1_655     S
Er26     V28    10.0   .     S
Er26     Er30    10.0   .     S
V27     V28    9.999   1_556     S
V27     Er1    10.0   1_556     S
V28     V27    9.999   1_554     S
V28     Er2    10.0   1_554     S
Er29     Er17    10.0   1_655     S
Er29     V32    10.0   .     S
Er30     Er18    10.0   1_655     S
Er30     V31    10.0   .     S
V31     V32    9.999   .     S
