data_ptra
_audit_creation_date              2020-02-04
_audit_creation_method            'Pymatgen'
_symmetry_space_group_name_H-M    'P1'
_symmetry_Int_Tables_number       1
loop_
_symmetry_equiv_pos_as_xyz
  x,y,z
_cell_length_a                    110.4176
_cell_length_b                    110.4176
_cell_length_c                    82.9264
_cell_angle_alpha                 90.0
_cell_angle_beta                 90.0
_cell_angle_gamma                 120.0
loop_
_atom_site_label
_atom_site_type_symbol
_atom_site_fract_x
_atom_site_fract_y
_atom_site_fract_z
Ti1     Ti     0.2684   0.3175   0.7759
Ti2     Ti     0.2842   0.3491   0.8908
Ce3     Ce     0.3154   0.2835   0.8515
Ce4     Ce     0.3652   0.3832   0.8151
V5     V     0.4564   0.4531   0.6411
V6     V     0.5469   0.5436   0.6411
Er7     Er     0.4478   0.4616   0.7601
Er8     Er     0.5384   0.5522   0.7601
Ti9     Ti     0.6825   0.7316   0.7759
Ti10     Ti     0.6509   0.7158   0.8908
Ce11     Ce     0.7165   0.6846   0.8515
Ce12     Ce     0.6168   0.6348   0.8151
V13     V     0.877   0.6634   0.0255
V14     V     0.7864   0.6634   0.0255
Er15     Er     0.8855   0.6804   0.9066
Er16     Er     0.7949   0.6804   0.9066
Ti17     Ti     0.2842   0.935   0.8908
Ti18     Ti     0.2684   0.9508   0.7759
Ce19     Ce     0.3652   0.9821   0.8151
Ce20     Ce     0.3154   0.0319   0.8515
V21     V     0.3366   0.2136   0.0255
V22     V     0.3366   0.123   0.0255
Er23     Er     0.3196   0.2051   0.9066
Er24     Er     0.3196   0.1145   0.9066
V25     V     0.877   0.2136   0.0255
V26     V     0.7864   0.123   0.0255
Er27     Er     0.8855   0.2051   0.9066
Er28     Er     0.7949   0.1145   0.9066
Ti29     Ti     0.6509   0.935   0.8908
Ti30     Ti     0.6825   0.9508   0.7759
Ce31     Ce     0.7165   0.0319   0.8515
Ce32     Ce     0.6168   0.9821   0.8151
V33     V     0.5469   0.0033   0.6411
V34     V     0.4564   0.0033   0.6411
Er35     Er     0.4478   0.9862   0.7601
Er36     Er     0.5384   0.9862   0.7601
Ti37     Ti     0.0649   0.7158   0.8908
Ti38     Ti     0.0492   0.7316   0.7759
Ce39     Ce     0.9681   0.6846   0.8515
Ce40     Ce     0.0179   0.6348   0.8151
Ti41     Ti     0.0649   0.3491   0.8908
Ti42     Ti     0.0492   0.3175   0.7759
Ce43     Ce     0.9681   0.2835   0.8515
Ce44     Ce     0.0179   0.3832   0.8151
V45     V     0.9967   0.5436   0.6411
V46     V     0.9967   0.4531   0.6411
Er47     Er     0.0138   0.5522   0.7601
Er48     Er     0.0138   0.4616   0.7601
V49     V     0.2136   0.877   0.9745
V50     V     0.123   0.7864   0.9745
Er51     Er     0.1145   0.7949   0.0934
Er52     Er     0.2051   0.8855   0.0934
Ti53     Ti     0.3491   0.0649   0.1092
Ti54     Ti     0.3175   0.0492   0.2241
Ce55     Ce     0.3832   0.0179   0.1849
Ce56     Ce     0.2835   0.9681   0.1485
V57     V     0.4531   0.9967   0.3589
V58     V     0.5436   0.9967   0.3589
Er59     Er     0.4616   0.0138   0.2399
Er60     Er     0.5522   0.0138   0.2399
Ti61     Ti     0.935   0.6509   0.1092
Ti62     Ti     0.9508   0.6825   0.2241
Ce63     Ce     0.9821   0.6168   0.1849
Ce64     Ce     0.0319   0.7165   0.1485
V65     V     0.0033   0.4564   0.3589
V66     V     0.0033   0.5469   0.3589
Er67     Er     0.9862   0.4478   0.2399
Er68     Er     0.9862   0.5384   0.2399
Ti69     Ti     0.7158   0.0649   0.1092
Ti70     Ti     0.7316   0.0492   0.2241
Ce71     Ce     0.6846   0.9681   0.1485
Ce72     Ce     0.6348   0.0179   0.1849
Ti73     Ti     0.935   0.2842   0.1092
Ti74     Ti     0.9508   0.2684   0.2241
Ce75     Ce     0.9821   0.3652   0.1849
Ce76     Ce     0.0319   0.3154   0.1485
V77     V     0.2136   0.3366   0.9745
V78     V     0.123   0.3366   0.9745
Er79     Er     0.2051   0.3196   0.0934
Er80     Er     0.1145   0.3196   0.0934
Ti81     Ti     0.7316   0.6825   0.2241
Ti82     Ti     0.7158   0.6509   0.1092
Ce83     Ce     0.6348   0.6168   0.1849
Ce84     Ce     0.6846   0.7165   0.1485
V85     V     0.6634   0.7864   0.9745
V86     V     0.6634   0.877   0.9745
Er87     Er     0.6804   0.7949   0.0934
Er88     Er     0.6804   0.8855   0.0934
Ti89     Ti     0.3175   0.2684   0.2241
Ti90     Ti     0.3491   0.2842   0.1092
Ce91     Ce     0.2835   0.3154   0.1485
Ce92     Ce     0.3832   0.3652   0.1849
V93     V     0.4531   0.4564   0.3589
V94     V     0.5436   0.5469   0.3589
Er95     Er     0.4616   0.4478   0.2399
Er96     Er     0.5522   0.5384   0.2399
Ti97     Ti     0.6175   0.6017   0.5575
Ti98     Ti     0.6017   0.6175   0.4425
Ce99     Ce     0.6487   0.6986   0.5182
Ce100     Ce     0.6986   0.6487   0.4818
V101     V     0.8803   0.6699   0.3078
V102     V     0.7897   0.6699   0.3078
Er103     Er     0.8717   0.6529   0.4268
Er104     Er     0.7812   0.6529   0.4268
V105     V     0.8803   0.2103   0.3078
V106     V     0.7897   0.1197   0.3078
Er107     Er     0.8717   0.2188   0.4268
Er108     Er     0.7812   0.1283   0.4268
Ti109     Ti     0.6175   0.0158   0.5575
Ti110     Ti     0.6017   0.9842   0.4425
Ce111     Ce     0.6487   0.9501   0.5182
Ce112     Ce     0.6986   0.0499   0.4818
V113     V     0.6699   0.7897   0.6922
V114     V     0.6699   0.8803   0.6922
Er115     Er     0.6529   0.8717   0.5732
Er116     Er     0.6529   0.7812   0.5732
Ti117     Ti     0.0158   0.6175   0.4425
Ti118     Ti     0.9842   0.6017   0.5575
Ce119     Ce     0.9501   0.6487   0.4818
Ce120     Ce     0.0499   0.6986   0.5182
Ti121     Ti     0.9842   0.3825   0.5575
Ti122     Ti     0.0158   0.3983   0.4425
Ce123     Ce     0.9501   0.3014   0.4818
Ce124     Ce     0.0499   0.3513   0.5182
V125     V     0.1197   0.3301   0.6922
V126     V     0.2103   0.3301   0.6922
Er127     Er     0.2188   0.3471   0.5732
Er128     Er     0.1283   0.3471   0.5732
Ti129     Ti     0.3983   0.3825   0.5575
Ti130     Ti     0.3825   0.3983   0.4425
Ce131     Ce     0.3513   0.3014   0.4818
Ce132     Ce     0.3014   0.3513   0.5182
V133     V     0.3301   0.2103   0.3078
V134     V     0.3301   0.1197   0.3078
Er135     Er     0.3471   0.2188   0.4268
Er136     Er     0.3471   0.1283   0.4268
Ti137     Ti     0.3825   0.9842   0.4425
Ti138     Ti     0.3983   0.0158   0.5575
Ce139     Ce     0.3014   0.9501   0.5182
Ce140     Ce     0.3513   0.0499   0.4818
V141     V     0.1197   0.7897   0.6922
V142     V     0.2103   0.8803   0.6922
Er143     Er     0.2188   0.8717   0.5732
Er144     Er     0.1283   0.7812   0.5732
loop_
_geom_bond_atom_site_label_1
_geom_bond_atom_site_label_2
_geom_bond_distance
_geom_bond_site_symmetry_2
_ccdc_geom_bond_type
Ti1     Ti2    9.999   .     S
Ti1     Ce3    10.0   .     S
Ti1     Ce4    10.0   .     S
Ti1     V126    10.0   .     S
Ti2     Ce4    10.0   .     S
Ti2     Ce3    10.0   .     S
Ti2     V77    10.0   .     S
Ce3     Ce4    10.001   .     S
Ce3     Er23    10.0   .     S
Ce4     Er7    10.0   .     S
V5     Ti129    10.0   .     S
V5     V6    10.001   .     S
V5     Er7    10.0   .     S
V6     Ti97    10.0   .     S
V6     Er8    10.0   .     S
Er7     Er8    9.999   .     S
Er8     Ce12    10.0   .     S
Ti9     Ti10    9.999   .     S
Ti9     Ce11    10.0   .     S
Ti9     Ce12    10.0   .     S
Ti9     V113    10.0   .     S
Ti10     Ce12    10.0   .     S
Ti10     Ce11    10.0   .     S
Ti10     V85    10.0   .     S
Ce11     Ce12    10.001   .     S
Ce11     Er16    10.0   .     S
V13     Ti61    10.0   .     S
V13     V14    10.001   .     S
V13     Er15    10.0   1_554     S
V14     Ti82    10.0   .     S
V14     Er16    10.0   1_554     S
Er15     Ce39    10.0   .     S
Er15     Er16    9.999   .     S
Er15     V13    10.0   1_556     S
Er16     V14    10.0   1_556     S
Ti17     Ti18    9.999   .     S
Ti17     Ce19    10.0   .     S
Ti17     Ce20    10.0   1_565     S
Ti17     V49    10.0   .     S
Ti18     Ce20    10.0   1_565     S
Ti18     Ce19    10.0   .     S
Ti18     V142    10.0   .     S
Ce19     Ce20    10.001   1_565     S
Ce19     Er35    10.0   .     S
Ce20     Ti18    10.0   1_545     S
Ce20     Ce19    10.001   1_545     S
Ce20     Ti17    10.0   1_545     S
Ce20     Er24    10.0   .     S
V21     Ti90    10.0   .     S
V21     V22    10.001   .     S
V21     Er23    10.0   1_554     S
V22     Ti53    10.0   .     S
V22     Er24    10.0   1_554     S
Er23     Er24    9.999   .     S
Er23     V21    10.0   1_556     S
Er24     V22    10.0   1_556     S
V25     Ti73    10.0   .     S
V25     V26    10.001   .     S
V25     Er27    10.0   1_554     S
V26     Ti69    10.0   .     S
V26     Er28    10.0   1_554     S
Er27     Ce43    10.0   .     S
Er27     Er28    9.999   .     S
Er27     V25    10.0   1_556     S
Er28     Ce31    10.0   .     S
Er28     V26    10.0   1_556     S
Ti29     Ti30    9.999   .     S
Ti29     Ce32    10.0   .     S
Ti29     Ce31    10.0   1_565     S
Ti29     V86    10.0   .     S
Ti30     Ce31    10.0   1_565     S
Ti30     Ce32    10.0   .     S
Ti30     V114    10.0   .     S
Ce31     Ti30    10.0   1_545     S
Ce31     Ce32    10.001   1_545     S
Ce31     Ti29    10.0   1_545     S
Ce32     Ce31    10.001   1_565     S
Ce32     Er36    10.0   .     S
V33     Ti109    10.0   .     S
V33     V34    10.001   .     S
V33     Er36    10.0   1_545     S
V34     Ti138    10.0   .     S
V34     Er35    10.0   1_545     S
Er35     Er36    9.999   .     S
Er35     V34    10.0   1_565     S
Er36     V33    10.0   1_565     S
Ti37     Ti38    9.999   .     S
Ti37     Ce40    10.0   .     S
Ti37     Ce39    10.0   1_455     S
Ti37     V50    10.0   .     S
Ti38     Ce39    10.0   1_455     S
Ti38     Ce40    10.0   .     S
Ti38     V141    10.0   .     S
Ce39     Ti38    10.0   1_655     S
Ce39     Ce40    10.001   1_655     S
Ce39     Ti37    10.0   1_655     S
Ce40     Ce39    10.001   1_455     S
Ce40     Er47    10.0   .     S
Ti41     Ti42    9.999   .     S
Ti41     Ce44    10.0   .     S
Ti41     Ce43    10.0   1_455     S
Ti41     V78    10.0   .     S
Ti42     Ce43    10.0   1_455     S
Ti42     Ce44    10.0   .     S
Ti42     V125    10.0   .     S
Ce43     Ti42    10.0   1_655     S
Ce43     Ce44    10.001   1_655     S
Ce43     Ti41    10.0   1_655     S
Ce44     Ce43    10.001   1_455     S
Ce44     Er48    10.0   .     S
V45     Ti118    10.0   .     S
V45     V46    10.001   .     S
V45     Er47    10.0   1_655     S
V46     Ti121    10.0   .     S
V46     Er48    10.0   1_655     S
Er47     Er48    9.999   .     S
Er47     V45    10.0   1_455     S
Er48     V46    10.0   1_455     S
V49     V50    10.001   .     S
V49     Er52    10.0   1_556     S
V50     Er51    10.0   1_556     S
Er51     Ce64    10.0   .     S
Er51     Er52    9.999   .     S
Er51     V50    10.0   1_554     S
Er52     Ce56    10.0   .     S
Er52     V49    10.0   1_554     S
Ti53     Ce56    10.0   1_545     S
Ti53     Ti54    9.999   .     S
Ti53     Ce55    10.0   .     S
Ti54     Ce55    10.0   .     S
Ti54     Ce56    10.0   1_545     S
Ti54     V134    10.0   .     S
Ce55     Ce56    10.001   1_545     S
Ce55     Er59    10.0   .     S
Ce56     Ce55    10.001   1_565     S
Ce56     Ti53    10.0   1_565     S
Ce56     Ti54    10.0   1_565     S
V57     Ti137    10.0   .     S
V57     V58    10.001   .     S
V57     Er59    10.0   1_565     S
V58     Ti110    10.0   .     S
V58     Er60    10.0   1_565     S
Er59     Er60    9.999   .     S
Er59     V57    10.0   1_545     S
Er60     Ce72    10.0   .     S
Er60     V58    10.0   1_545     S
Ti61     Ti62    9.999   .     S
Ti61     Ce63    10.0   .     S
Ti61     Ce64    10.0   1_655     S
Ti62     Ce64    10.0   1_655     S
Ti62     Ce63    10.0   .     S
Ti62     V101    10.0   .     S
Ce63     Ce64    10.001   1_655     S
Ce63     Er68    10.0   .     S
Ce64     Ti62    10.0   1_455     S
Ce64     Ce63    10.001   1_455     S
Ce64     Ti61    10.0   1_455     S
V65     Ti122    10.0   .     S
V65     V66    10.001   .     S
V65     Er67    10.0   1_455     S
V66     Ti117    10.0   .     S
V66     Er68    10.0   1_455     S
Er67     Ce75    10.0   .     S
Er67     Er68    9.999   .     S
Er67     V65    10.0   1_655     S
Er68     V66    10.0   1_655     S
Ti69     Ce71    10.0   1_545     S
Ti69     Ti70    9.999   .     S
Ti69     Ce72    10.0   .     S
Ti70     Ce72    10.0   .     S
Ti70     Ce71    10.0   1_545     S
Ti70     V106    10.0   .     S
Ce71     Ce72    10.001   1_565     S
Ce71     Ti69    10.0   1_565     S
Ce71     Ti70    10.0   1_565     S
Ce71     Er88    10.0   .     S
Ce72     Ce71    10.001   1_545     S
Ti73     Ti74    9.999   .     S
Ti73     Ce75    10.0   .     S
Ti73     Ce76    10.0   1_655     S
Ti74     Ce76    10.0   1_655     S
Ti74     Ce75    10.0   .     S
Ti74     V105    10.0   .     S
Ce75     Ce76    10.001   1_655     S
Ce76     Ti74    10.0   1_455     S
Ce76     Ce75    10.001   1_455     S
Ce76     Ti73    10.0   1_455     S
Ce76     Er80    10.0   .     S
V77     V78    10.001   .     S
V77     Er79    10.0   1_556     S
V78     Er80    10.0   1_556     S
Er79     Ce91    10.0   .     S
Er79     Er80    9.999   .     S
Er79     V77    10.0   1_554     S
Er80     V78    10.0   1_554     S
Ti81     Ce83    10.0   .     S
Ti81     Ti82    9.999   .     S
Ti81     Ce84    10.0   .     S
Ti81     V102    10.0   .     S
Ti82     Ce84    10.0   .     S
Ti82     Ce83    10.0   .     S
Ce83     Ce84    10.001   .     S
Ce83     Er96    10.0   .     S
Ce84     Er87    10.0   .     S
V85     V86    10.001   .     S
V85     Er87    10.0   1_556     S
V86     Er88    10.0   1_556     S
Er87     Er88    9.999   .     S
Er87     V85    10.0   1_554     S
Er88     V86    10.0   1_554     S
Ti89     Ce92    10.0   .     S
Ti89     Ti90    9.999   .     S
Ti89     Ce91    10.0   .     S
Ti89     V133    10.0   .     S
Ti90     Ce91    10.0   .     S
Ti90     Ce92    10.0   .     S
Ce91     Ce92    10.001   .     S
Ce92     Er95    10.0   .     S
V93     Ti130    10.0   .     S
V93     V94    10.001   .     S
V93     Er95    10.0   .     S
V94     Ti98    10.0   .     S
V94     Er96    10.0   .     S
Er95     Er96    9.999   .     S
Ti97     Ce99    10.0   .     S
Ti97     Ti98    9.999   .     S
Ti97     Ce100    10.0   .     S
Ti98     Ce100    10.0   .     S
Ti98     Ce99    10.0   .     S
Ce99     Ce100    10.001   .     S
Ce99     Er116    10.0   .     S
Ce100     Er104    10.0   .     S
V101     V102    10.001   .     S
V101     Er103    10.0   .     S
V102     Er104    10.0   .     S
Er103     Ce119    10.0   .     S
Er103     Er104    9.999   .     S
V105     V106    10.001   .     S
V105     Er107    10.0   .     S
V106     Er108    10.0   .     S
Er107     Ce123    10.0   .     S
Er107     Er108    9.999   .     S
Er108     Ce112    10.0   .     S
Ti109     Ce111    10.0   1_545     S
Ti109     Ti110    9.999   1_545     S
Ti109     Ce112    10.0   .     S
Ti110     Ce112    10.0   1_565     S
Ti110     Ti109    9.999   1_565     S
Ti110     Ce111    10.0   .     S
Ce111     Ce112    10.001   1_565     S
Ce111     Ti109    10.0   1_565     S
Ce111     Er115    10.0   .     S
Ce112     Ce111    10.001   1_545     S
Ce112     Ti110    10.0   1_545     S
V113     V114    10.001   .     S
V113     Er116    10.0   .     S
V114     Er115    10.0   .     S
Er115     Er116    9.999   .     S
Ti117     Ce119    10.0   1_455     S
Ti117     Ti118    9.999   1_455     S
Ti117     Ce120    10.0   .     S
Ti118     Ce120    10.0   1_655     S
Ti118     Ti117    9.999   1_655     S
Ti118     Ce119    10.0   .     S
Ce119     Ce120    10.001   1_655     S
Ce119     Ti117    10.0   1_655     S
Ce120     Ce119    10.001   1_455     S
Ce120     Ti118    10.0   1_455     S
Ce120     Er144    10.0   .     S
Ti121     Ce124    10.0   1_655     S
Ti121     Ti122    9.999   1_655     S
Ti121     Ce123    10.0   .     S
Ti122     Ce123    10.0   1_455     S
Ti122     Ti121    9.999   1_455     S
Ti122     Ce124    10.0   .     S
Ce123     Ce124    10.001   1_655     S
Ce123     Ti122    10.0   1_655     S
Ce124     Ce123    10.001   1_455     S
Ce124     Ti121    10.0   1_455     S
Ce124     Er128    10.0   .     S
V125     V126    10.001   .     S
V125     Er128    10.0   .     S
V126     Er127    10.0   .     S
Er127     Ce132    10.0   .     S
Er127     Er128    9.999   .     S
Ti129     Ce132    10.0   .     S
Ti129     Ti130    9.999   .     S
Ti129     Ce131    10.0   .     S
Ti130     Ce131    10.0   .     S
Ti130     Ce132    10.0   .     S
Ce131     Ce132    10.001   .     S
Ce131     Er135    10.0   .     S
V133     V134    10.001   .     S
V133     Er135    10.0   .     S
V134     Er136    10.0   .     S
Er135     Er136    9.999   .     S
Er136     Ce140    10.0   .     S
Ti137     Ti138    9.999   1_565     S
Ti137     Ce139    10.0   .     S
Ti137     Ce140    10.0   1_565     S
Ti138     Ti137    9.999   1_545     S
Ti138     Ce140    10.0   .     S
Ti138     Ce139    10.0   1_545     S
Ce139     Ce140    10.001   1_565     S
Ce139     Ti138    10.0   1_565     S
Ce139     Er143    10.0   .     S
Ce140     Ce139    10.001   1_545     S
Ce140     Ti137    10.0   1_545     S
V141     V142    10.001   .     S
V141     Er144    10.0   .     S
V142     Er143    10.0   .     S
Er143     Er144    9.999   .     S
