data_ptta
_audit_creation_date              2020-02-04
_audit_creation_method            'Pymatgen'
_symmetry_space_group_name_H-M    'P1'
_symmetry_Int_Tables_number       1
loop_
_symmetry_equiv_pos_as_xyz
  x,y,z
_cell_length_a                    34.733
_cell_length_b                    109.2354
_cell_length_c                    69.901
_cell_angle_alpha                 90.0
_cell_angle_beta                 90.0
_cell_angle_gamma                 90.0
loop_
_atom_site_label
_atom_site_type_symbol
_atom_site_fract_x
_atom_site_fract_y
_atom_site_fract_z
V1     V     0.8608   0.3948   0.268
V2     V     0.1392   0.3948   0.232
Er3     Er     0.0365   0.3301   0.3192
Er4     Er     0.9635   0.3301   0.1808
Ti5     Ti     0.6436   0.4543   0.2549
Ti6     Ti     0.3564   0.4543   0.2451
Ti7     Ti     0.6436   0.5457   0.2451
Ti8     Ti     0.3564   0.5457   0.2549
V9     V     0.8608   0.6052   0.232
V10     V     0.1392   0.6052   0.268
Er11     Er     0.0365   0.6699   0.1808
Er12     Er     0.9635   0.6699   0.3192
Ce13     Ce     0.3437   0.2152   0.5716
Ce14     Ce     0.1563   0.2848   0.5716
Ce15     Ce     0.1563   0.2848   0.4284
Ce16     Ce     0.3437   0.2152   0.4284
Ce17     Ce     0.1563   0.7152   0.9284
Ce18     Ce     0.3437   0.7848   0.9284
Ce19     Ce     0.1563   0.7152   0.0716
Ce20     Ce     0.3437   0.7848   0.0716
V21     V     0.6392   0.1052   0.268
V22     V     0.3608   0.1052   0.232
Er23     Er     0.5365   0.1699   0.1808
Er24     Er     0.4635   0.1699   0.3192
Ti25     Ti     0.8564   0.9543   0.2451
Ti26     Ti     0.1436   0.9543   0.2549
Ti27     Ti     0.8564   0.0457   0.2549
Ti28     Ti     0.1436   0.0457   0.2451
V29     V     0.6392   0.8948   0.232
V30     V     0.3608   0.8948   0.268
Er31     Er     0.4635   0.8301   0.1808
Er32     Er     0.5365   0.8301   0.3192
V33     V     0.1392   0.3948   0.768
V34     V     0.8608   0.3948   0.732
Er35     Er     0.0365   0.3301   0.6808
Er36     Er     0.9635   0.3301   0.8192
Ti37     Ti     0.6436   0.4543   0.7451
Ti38     Ti     0.3564   0.4543   0.7549
Ti39     Ti     0.6436   0.5457   0.7549
Ti40     Ti     0.3564   0.5457   0.7451
V41     V     0.8608   0.6052   0.768
V42     V     0.1392   0.6052   0.732
Er43     Er     0.0365   0.6699   0.8192
Er44     Er     0.9635   0.6699   0.6808
Ce45     Ce     0.8437   0.7152   0.5716
Ce46     Ce     0.6563   0.7848   0.5716
Ce47     Ce     0.8437   0.7152   0.4284
Ce48     Ce     0.6563   0.7848   0.4284
Ce49     Ce     0.8437   0.2848   0.9284
Ce50     Ce     0.6563   0.2152   0.9284
Ce51     Ce     0.6563   0.2152   0.0716
Ce52     Ce     0.8437   0.2848   0.0716
V53     V     0.3608   0.1052   0.768
V54     V     0.6392   0.1052   0.732
Er55     Er     0.5365   0.1699   0.8192
Er56     Er     0.4635   0.1699   0.6808
Ti57     Ti     0.8564   0.9543   0.7549
Ti58     Ti     0.1436   0.9543   0.7451
Ti59     Ti     0.8564   0.0457   0.7451
Ti60     Ti     0.1436   0.0457   0.7549
V61     V     0.6392   0.8948   0.768
V62     V     0.3608   0.8948   0.732
Er63     Er     0.5365   0.8301   0.6808
Er64     Er     0.4635   0.8301   0.8192
loop_
_geom_bond_atom_site_label_1
_geom_bond_atom_site_label_2
_geom_bond_distance
_geom_bond_site_symmetry_2
_ccdc_geom_bond_type
V1     Er4    9.992   .     S
V1     V2    9.992   1_655     S
V1     Er3    10.0   1_655     S
V1     Ti5    10.003   .     S
V2     Er3    9.992   .     S
V2     V1    9.992   1_455     S
V2     Er4    10.0   1_455     S
V2     Ti6    10.003   .     S
Er3     V1    10.0   1_455     S
Er3     Er4    9.998   1_455     S
Er3     Ce15    10.008   .     S
Er4     V2    10.0   1_655     S
Er4     Er3    9.998   1_655     S
Er4     Ce52    10.008   .     S
Ti5     Ti6    9.999   .     S
Ti5     Ti7    9.999   .     S
Ti6     Ti8    9.999   .     S
Ti7     Ti8    9.999   .     S
Ti7     V9    10.003   .     S
Ti8     V10    10.003   .     S
V9     Er12    9.992   .     S
V9     V10    9.992   1_655     S
V9     Er11    10.0   1_655     S
V10     Er11    9.992   .     S
V10     V9    9.992   1_455     S
V10     Er12    10.0   1_455     S
Er11     V9    10.0   1_455     S
Er11     Er12    9.998   1_455     S
Er11     Ce19    10.008   .     S
Er12     V10    10.0   1_655     S
Er12     Er11    9.998   1_655     S
Er12     Ce47    10.008   .     S
Ce13     Ce14    10.002   .     S
Ce13     Ce16    10.003   .     S
Ce13     Er56    10.008   .     S
Ce14     Ce15    10.003   .     S
Ce14     Er35    10.008   .     S
Ce15     Ce16    10.002   .     S
Ce16     Er24    10.008   .     S
Ce17     Ce18    10.002   .     S
Ce17     Ce19    10.003   1_556     S
Ce17     Er43    10.008   .     S
Ce18     Ce20    10.003   1_556     S
Ce18     Er64    10.008   .     S
Ce19     Ce20    10.002   .     S
Ce19     Ce17    10.003   1_554     S
Ce20     Ce18    10.003   1_554     S
Ce20     Er31    10.008   .     S
V21     Er23    9.992   .     S
V21     V22    9.992   .     S
V21     Er24    10.0   .     S
V21     Ti27    10.003   .     S
V22     Er24    9.992   .     S
V22     Er23    10.0   .     S
V22     Ti28    10.003   .     S
Er23     Er24    9.998   .     S
Er23     Ce51    10.008   .     S
Ti25     Ti26    9.999   1_655     S
Ti25     Ti27    9.999   1_565     S
Ti25     V29    10.003   .     S
Ti26     Ti25    9.999   1_455     S
Ti26     Ti28    9.999   1_565     S
Ti26     V30    10.003   .     S
Ti27     Ti28    9.999   1_655     S
Ti27     Ti25    9.999   1_545     S
Ti28     Ti27    9.999   1_455     S
Ti28     Ti26    9.999   1_545     S
V29     Er32    9.992   .     S
V29     V30    9.992   .     S
V29     Er31    10.0   .     S
V30     Er31    9.992   .     S
V30     Er32    10.0   .     S
Er31     Er32    9.998   .     S
Er32     Ce48    10.008   .     S
V33     Er35    9.992   .     S
V33     V34    9.992   1_455     S
V33     Er36    10.0   1_455     S
V33     Ti38    10.003   .     S
V34     Er36    9.992   .     S
V34     V33    9.992   1_655     S
V34     Er35    10.0   1_655     S
V34     Ti37    10.003   .     S
Er35     V34    10.0   1_455     S
Er35     Er36    9.998   1_455     S
Er36     V33    10.0   1_655     S
Er36     Er35    9.998   1_655     S
Er36     Ce49    10.008   .     S
Ti37     Ti38    9.999   .     S
Ti37     Ti39    9.999   .     S
Ti38     Ti40    9.999   .     S
Ti39     Ti40    9.999   .     S
Ti39     V41    10.003   .     S
Ti40     V42    10.003   .     S
V41     Er44    9.992   .     S
V41     V42    9.992   1_655     S
V41     Er43    10.0   1_655     S
V42     Er43    9.992   .     S
V42     V41    9.992   1_455     S
V42     Er44    10.0   1_455     S
Er43     V41    10.0   1_455     S
Er43     Er44    9.998   1_455     S
Er44     V42    10.0   1_655     S
Er44     Er43    9.998   1_655     S
Er44     Ce45    10.008   .     S
Ce45     Ce46    10.002   .     S
Ce45     Ce47    10.003   .     S
Ce46     Ce48    10.003   .     S
Ce46     Er63    10.008   .     S
Ce47     Ce48    10.002   .     S
Ce49     Ce50    10.002   .     S
Ce49     Ce52    10.003   1_556     S
Ce50     Ce51    10.003   1_556     S
Ce50     Er55    10.008   .     S
Ce51     Ce52    10.002   .     S
Ce51     Ce50    10.003   1_554     S
Ce52     Ce49    10.003   1_554     S
V53     Er56    9.992   .     S
V53     V54    9.992   .     S
V53     Er55    10.0   .     S
V53     Ti60    10.003   .     S
V54     Er55    9.992   .     S
V54     Er56    10.0   .     S
V54     Ti59    10.003   .     S
Er55     Er56    9.998   .     S
Ti57     Ti58    9.999   1_655     S
Ti57     Ti59    9.999   1_565     S
Ti57     V61    10.003   .     S
Ti58     Ti57    9.999   1_455     S
Ti58     Ti60    9.999   1_565     S
Ti58     V62    10.003   .     S
Ti59     Ti60    9.999   1_655     S
Ti59     Ti57    9.999   1_545     S
Ti60     Ti59    9.999   1_455     S
Ti60     Ti58    9.999   1_545     S
V61     Er63    9.992   .     S
V61     V62    9.992   .     S
V61     Er64    10.0   .     S
V62     Er64    9.992   .     S
V62     Er63    10.0   .     S
Er63     Er64    9.998   .     S
