data_pyoa
_audit_creation_date              2020-02-04
_audit_creation_method            'Pymatgen'
_symmetry_space_group_name_H-M    'P1'
_symmetry_Int_Tables_number       1
loop_
_symmetry_equiv_pos_as_xyz
  x,y,z
_cell_length_a                    88.6971
_cell_length_b                    88.6971
_cell_length_c                    88.6971
_cell_angle_alpha                 90.0
_cell_angle_beta                 90.0
_cell_angle_gamma                 90.0
loop_
_atom_site_label
_atom_site_type_symbol
_atom_site_fract_x
_atom_site_fract_y
_atom_site_fract_z
Ti1     Ti     0.375   0.7508   0.9992
Ce2     Ce     0.375   0.671   0.079
Ti3     Ti     0.2492   0.4992   0.125
Ce4     Ce     0.329   0.579   0.125
Ti5     Ti     0.5008   0.625   0.2507
Ce6     Ce     0.421   0.625   0.171
Ti7     Ti     0.9992   0.375   0.7508
Ce8     Ce     0.079   0.375   0.671
Ti9     Ti     0.125   0.2492   0.4992
Ce10     Ce     0.125   0.329   0.579
Ti11     Ti     0.2507   0.5008   0.625
Ce12     Ce     0.171   0.421   0.625
Ti13     Ti     0.7508   0.9992   0.375
Ce14     Ce     0.671   0.079   0.375
Ti15     Ti     0.4992   0.125   0.2492
Ce16     Ce     0.579   0.125   0.329
Ti17     Ti     0.625   0.2507   0.5008
Ce18     Ce     0.625   0.171   0.421
Ti19     Ti     0.7492   0.0008   0.875
Ce20     Ce     0.829   0.921   0.875
Ti21     Ti     0.875   0.7492   0.0008
Ce22     Ce     0.875   0.829   0.921
Ti23     Ti     0.0008   0.875   0.7492
Ce24     Ce     0.921   0.875   0.829
V25     V     0.51   0.5295   0.4418
Er26     Er     0.5378   0.5914   0.3518
V27     V     0.5295   0.4418   0.51
Er28     Er     0.5914   0.3518   0.5378
V29     V     0.4418   0.51   0.5295
Er30     Er     0.3518   0.5378   0.5914
V31     V     0.8082   0.2795   0.76
Er32     Er     0.8982   0.3414   0.7878
V33     V     0.74   0.1918   0.7795
Er34     Er     0.7122   0.1018   0.8414
V35     V     0.7205   0.26   0.6918
Er36     Er     0.6586   0.2878   0.6018
V37     V     0.4705   0.9418   0.99
Er38     Er     0.4086   0.8518   0.9622
V39     V     0.5582   0.01   0.9705
Er40     Er     0.6482   0.0378   0.9086
V41     V     0.49   0.0295   0.0582
Er42     Er     0.4622   0.0914   0.1482
V43     V     0.2795   0.76   0.8082
Er44     Er     0.3414   0.7878   0.8982
V45     V     0.1918   0.7795   0.74
Er46     Er     0.1018   0.8414   0.7122
V47     V     0.26   0.6918   0.7205
Er48     Er     0.2878   0.6018   0.6586
V49     V     0.76   0.8082   0.2795
Er50     Er     0.7878   0.8982   0.3414
V51     V     0.7795   0.74   0.1918
Er52     Er     0.8414   0.7122   0.1018
V53     V     0.6918   0.7205   0.26
Er54     Er     0.6018   0.6586   0.2878
V55     V     0.99   0.4705   0.9418
Er56     Er     0.9622   0.4086   0.8518
V57     V     0.9705   0.5582   0.01
Er58     Er     0.9086   0.6482   0.0378
V59     V     0.0582   0.49   0.0295
Er60     Er     0.1482   0.4622   0.0914
V61     V     0.24   0.3082   0.2205
Er62     Er     0.2122   0.3982   0.1586
V63     V     0.3082   0.2205   0.24
Er64     Er     0.3982   0.1586   0.2122
V65     V     0.2205   0.24   0.3082
Er66     Er     0.1586   0.2122   0.3982
V67     V     0.9418   0.99   0.4705
Er68     Er     0.8518   0.9622   0.4086
V69     V     0.01   0.9705   0.5582
Er70     Er     0.0378   0.9086   0.6482
V71     V     0.0295   0.0582   0.49
Er72     Er     0.0914   0.1482   0.4622
loop_
_geom_bond_atom_site_label_1
_geom_bond_atom_site_label_2
_geom_bond_distance
_geom_bond_site_symmetry_2
_ccdc_geom_bond_type
Ti1     Er44    10.0   .     S
Ti1     Er38    10.0   .     S
Ti1     Ce2    10.0   1_556     S
Ce2     Ti1    10.0   1_554     S
Ce2     Ce6    10.001   .     S
Ce2     Ce4    10.001   .     S
Ti3     Er60    10.0   .     S
Ti3     Er62    10.0   .     S
Ti3     Ce4    10.0   .     S
Ce4     Ce6    10.001   .     S
Ti5     Er54    10.0   .     S
Ti5     Er26    10.0   .     S
Ti5     Ce6    10.0   .     S
Ti7     Er32    10.0   .     S
Ti7     Er56    10.0   .     S
Ti7     Ce8    10.0   1_655     S
Ce8     Ti7    10.0   1_455     S
Ce8     Ce12    10.001   .     S
Ce8     Ce10    10.001   .     S
Ti9     Er72    10.0   .     S
Ti9     Er66    10.0   .     S
Ti9     Ce10    10.0   .     S
Ce10     Ce12    10.001   .     S
Ti11     Er48    10.0   .     S
Ti11     Er30    10.0   .     S
Ti11     Ce12    10.0   .     S
Ti13     Er50    10.0   .     S
Ti13     Er68    10.0   .     S
Ti13     Ce14    10.0   1_565     S
Ce14     Ti13    10.0   1_545     S
Ce14     Ce18    10.001   .     S
Ce14     Ce16    10.001   .     S
Ti15     Er42    10.0   .     S
Ti15     Er64    10.0   .     S
Ti15     Ce16    10.0   .     S
Ce16     Ce18    10.001   .     S
Ti17     Er36    10.0   .     S
Ti17     Er28    10.0   .     S
Ti17     Ce18    10.0   .     S
Ti19     Er40    10.0   .     S
Ti19     Er34    10.0   .     S
Ti19     Ce20    10.0   1_545     S
Ce20     Ti19    10.0   1_565     S
Ce20     Ce24    10.001   .     S
Ce20     Ce22    10.001   .     S
Ti21     Er58    10.0   .     S
Ti21     Er52    10.0   .     S
Ti21     Ce22    10.0   1_554     S
Ce22     Ti21    10.0   1_556     S
Ce22     Ce24    10.001   .     S
Ti23     Er70    10.0   .     S
Ti23     Er46    10.0   .     S
Ti23     Ce24    10.0   1_455     S
Ce24     Ti23    10.0   1_655     S
V25     V29    10.0   .     S
V25     Er26    10.0   .     S
V25     V27    10.0   .     S
Er26     Er54    10.001   .     S
V27     Er28    10.0   .     S
V27     V29    10.0   .     S
Er28     Er36    10.001   .     S
V29     Er30    10.0   .     S
Er30     Er48    10.001   .     S
V31     V35    10.0   .     S
V31     Er32    10.0   .     S
V31     V33    10.0   .     S
Er32     Er56    10.001   .     S
V33     Er34    10.0   .     S
V33     V35    10.0   .     S
Er34     Er40    10.001   .     S
V35     Er36    10.0   .     S
V37     V41    10.0   1_566     S
V37     Er38    10.0   .     S
V37     V39    10.0   1_565     S
Er38     Er44    10.001   .     S
V39     V37    10.0   1_545     S
V39     Er40    10.0   .     S
V39     V41    10.0   1_556     S
V41     V37    10.0   1_544     S
V41     V39    10.0   1_554     S
V41     Er42    10.0   .     S
Er42     Er64    10.001   .     S
V43     V47    10.0   .     S
V43     Er44    10.0   .     S
V43     V45    10.0   .     S
V45     Er46    10.0   .     S
V45     V47    10.0   .     S
Er46     Er70    10.001   .     S
V47     Er48    10.0   .     S
V49     V53    10.0   .     S
V49     Er50    10.0   .     S
V49     V51    10.0   .     S
Er50     Er68    10.001   .     S
V51     Er52    10.0   .     S
V51     V53    10.0   .     S
Er52     Er58    10.001   .     S
V53     Er54    10.0   .     S
V55     V59    10.0   1_656     S
V55     Er56    10.0   .     S
V55     V57    10.0   1_556     S
V57     V55    10.0   1_554     S
V57     Er58    10.0   .     S
V57     V59    10.0   1_655     S
V59     V55    10.0   1_454     S
V59     V57    10.0   1_455     S
V59     Er60    10.0   .     S
Er60     Er62    10.001   .     S
V61     V63    10.0   .     S
V61     Er62    10.0   .     S
V61     V65    10.0   .     S
V63     V65    10.0   .     S
V63     Er64    10.0   .     S
V65     Er66    10.0   .     S
Er66     Er72    10.001   .     S
V67     V71    10.0   1_665     S
V67     Er68    10.0   .     S
V67     V69    10.0   1_655     S
V69     V67    10.0   1_455     S
V69     Er70    10.0   .     S
V69     V71    10.0   1_565     S
V71     V67    10.0   1_445     S
V71     V69    10.0   1_545     S
V71     Er72    10.0   .     S
