data_pyra
_audit_creation_date              2020-02-04
_audit_creation_method            'Pymatgen'
_symmetry_space_group_name_H-M    'P1'
_symmetry_Int_Tables_number       1
loop_
_symmetry_equiv_pos_as_xyz
  x,y,z
_cell_length_a                    55.7741
_cell_length_b                    55.7741
_cell_length_c                    55.7741
_cell_angle_alpha                 90.0
_cell_angle_beta                 90.0
_cell_angle_gamma                 90.0
loop_
_atom_site_label
_atom_site_type_symbol
_atom_site_fract_x
_atom_site_fract_y
_atom_site_fract_z
Er1     Er     0.6068   0.5573   0.4627
Er2     Er     0.4627   0.6068   0.5573
Er3     Er     0.5573   0.4627   0.6068
Er4     Er     0.3932   0.4427   0.5373
Er5     Er     0.5373   0.3932   0.4427
Er6     Er     0.4427   0.5373   0.3932
V7     V     0.8762   0.8832   0.7531
V8     V     0.8832   0.7531   0.8762
V9     V     0.7531   0.8762   0.8832
V10     V     0.2531   0.8762   0.6168
V11     V     0.3832   0.7531   0.6238
V12     V     0.3762   0.8832   0.7469
V13     V     0.6238   0.1168   0.2531
V14     V     0.7469   0.1238   0.3832
V15     V     0.6168   0.2469   0.3762
Er16     Er     0.6068   0.9427   0.9627
Er17     Er     0.4627   0.8932   0.0573
Er18     Er     0.5573   0.0373   0.1068
Er19     Er     0.5373   0.1068   0.9427
Er20     Er     0.4427   0.9627   0.8932
Er21     Er     0.3932   0.0573   0.0373
V22     V     0.8762   0.6168   0.2531
V23     V     0.7531   0.6238   0.3832
V24     V     0.8832   0.7469   0.3762
V25     V     0.1168   0.2531   0.6238
V26     V     0.1238   0.3832   0.7469
V27     V     0.2469   0.3762   0.6168
Er28     Er     0.9427   0.9627   0.6068
Er29     Er     0.8932   0.0573   0.4627
Er30     Er     0.0373   0.1068   0.5573
Er31     Er     0.1068   0.9427   0.5373
Er32     Er     0.9627   0.8932   0.4427
Er33     Er     0.0573   0.0373   0.3932
V34     V     0.1238   0.1168   0.2469
V35     V     0.2469   0.1238   0.1168
V36     V     0.1168   0.2469   0.1238
V37     V     0.6168   0.2531   0.8762
V38     V     0.6238   0.3832   0.7531
V39     V     0.7469   0.3762   0.8832
V40     V     0.2531   0.6238   0.1168
V41     V     0.3832   0.7469   0.1238
V42     V     0.3762   0.6168   0.2469
Er43     Er     0.9627   0.6068   0.9427
Er44     Er     0.0573   0.4627   0.8932
Er45     Er     0.1068   0.5573   0.0373
Er46     Er     0.9427   0.5373   0.1068
Er47     Er     0.8932   0.4427   0.9627
Er48     Er     0.0373   0.3932   0.0573
loop_
_geom_bond_atom_site_label_1
_geom_bond_atom_site_label_2
_geom_bond_distance
_geom_bond_site_symmetry_2
_ccdc_geom_bond_type
Er1     Er2    10.0   .     S
Er1     Er6    10.0   .     S
Er1     Er3    10.0   .     S
Er1     Er5    10.0   .     S
Er1     V23    10.001   .     S
Er2     Er3    10.0   .     S
Er2     Er4    10.0   .     S
Er2     Er6    10.0   .     S
Er2     V11    10.001   .     S
Er3     Er5    10.0   .     S
Er3     Er4    10.0   .     S
Er3     V38    10.001   .     S
Er4     Er5    10.0   .     S
Er4     Er6    10.0   .     S
Er4     V27    10.001   .     S
Er5     Er6    10.0   .     S
Er5     V15    10.001   .     S
Er6     V42    10.001   .     S
V7     V8    9.999   .     S
V7     V9    9.999   .     S
V7     Er28    10.001   .     S
V8     V9    9.999   .     S
V8     Er43    10.001   .     S
V9     Er16    10.001   .     S
V10     V12    9.999   .     S
V10     V11    9.999   .     S
V10     Er31    10.001   .     S
V11     V12    9.999   .     S
V12     Er20    10.001   .     S
V13     V15    9.999   .     S
V13     V14    9.999   .     S
V13     Er18    10.001   .     S
V14     V15    9.999   .     S
V14     Er29    10.001   .     S
Er16     Er17    10.0   1_556     S
Er16     Er20    10.0   .     S
Er16     Er18    10.0   1_566     S
Er16     Er19    10.0   1_565     S
Er17     Er16    10.0   1_554     S
Er17     Er18    10.0   1_565     S
Er17     Er21    10.0   1_565     S
Er17     Er20    10.0   1_554     S
Er17     V41    10.001   .     S
Er18     Er17    10.0   1_545     S
Er18     Er16    10.0   1_544     S
Er18     Er19    10.0   1_554     S
Er18     Er21    10.0   .     S
Er19     Er18    10.0   1_556     S
Er19     Er20    10.0   1_545     S
Er19     Er16    10.0   1_545     S
Er19     Er21    10.0   1_556     S
Er19     V37    10.001   .     S
Er20     Er19    10.0   1_565     S
Er20     Er21    10.0   1_566     S
Er20     Er17    10.0   1_556     S
Er21     Er17    10.0   1_545     S
Er21     Er20    10.0   1_544     S
Er21     Er19    10.0   1_554     S
Er21     V35    10.001   .     S
V22     V24    9.999   .     S
V22     V23    9.999   .     S
V22     Er46    10.001   .     S
V23     V24    9.999   .     S
V24     Er32    10.001   .     S
V25     V27    9.999   .     S
V25     V26    9.999   .     S
V25     Er30    10.001   .     S
V26     V27    9.999   .     S
V26     Er44    10.001   .     S
Er28     Er29    10.0   1_565     S
Er28     Er32    10.0   .     S
Er28     Er30    10.0   1_665     S
Er28     Er31    10.0   1_655     S
Er29     Er28    10.0   1_545     S
Er29     Er30    10.0   1_655     S
Er29     Er33    10.0   1_655     S
Er29     Er32    10.0   1_545     S
Er30     Er29    10.0   1_455     S
Er30     Er28    10.0   1_445     S
Er30     Er31    10.0   1_545     S
Er30     Er33    10.0   .     S
Er31     Er30    10.0   1_565     S
Er31     Er32    10.0   1_455     S
Er31     Er28    10.0   1_455     S
Er31     Er33    10.0   1_565     S
Er32     Er31    10.0   1_655     S
Er32     Er33    10.0   1_665     S
Er32     Er29    10.0   1_565     S
Er33     Er29    10.0   1_455     S
Er33     Er32    10.0   1_445     S
Er33     Er31    10.0   1_545     S
Er33     V34    10.001   .     S
V34     V36    9.999   .     S
V34     V35    9.999   .     S
V35     V36    9.999   .     S
V36     Er48    10.001   .     S
V37     V39    9.999   .     S
V37     V38    9.999   .     S
V38     V39    9.999   .     S
V39     Er47    10.001   .     S
V40     V42    9.999   .     S
V40     V41    9.999   .     S
V40     Er45    10.001   .     S
V41     V42    9.999   .     S
Er43     Er44    10.0   1_655     S
Er43     Er47    10.0   .     S
Er43     Er45    10.0   1_656     S
Er43     Er46    10.0   1_556     S
Er44     Er43    10.0   1_455     S
Er44     Er45    10.0   1_556     S
Er44     Er48    10.0   1_556     S
Er44     Er47    10.0   1_455     S
Er45     Er44    10.0   1_554     S
Er45     Er43    10.0   1_454     S
Er45     Er46    10.0   1_455     S
Er45     Er48    10.0   .     S
Er46     Er45    10.0   1_655     S
Er46     Er47    10.0   1_554     S
Er46     Er43    10.0   1_554     S
Er46     Er48    10.0   1_655     S
Er47     Er46    10.0   1_556     S
Er47     Er48    10.0   1_656     S
Er47     Er44    10.0   1_655     S
Er48     Er44    10.0   1_554     S
Er48     Er47    10.0   1_454     S
Er48     Er46    10.0   1_455     S
