data_pyre
_audit_creation_date              2020-02-04
_audit_creation_method            'Pymatgen'
_symmetry_space_group_name_H-M    'P1'
_symmetry_Int_Tables_number       1
loop_
_symmetry_equiv_pos_as_xyz
  x,y,z
_cell_length_a                    31.2049
_cell_length_b                    31.2049
_cell_length_c                    31.2049
_cell_angle_alpha                 90.0
_cell_angle_beta                 90.0
_cell_angle_gamma                 90.0
loop_
_atom_site_label
_atom_site_type_symbol
_atom_site_fract_x
_atom_site_fract_y
_atom_site_fract_z
V1     V     0.4015   0.9347   0.8067
V2     V     0.4347   0.8067   0.0985
V3     V     0.3067   0.0985   0.0653
V4     V     0.5985   0.0653   0.1933
V5     V     0.5653   0.1933   0.9015
V6     V     0.6933   0.9015   0.9347
V7     V     0.8067   0.4015   0.9347
V8     V     0.0985   0.4347   0.8067
V9     V     0.1933   0.5985   0.0653
V10     V     0.0653   0.3067   0.0985
V11     V     0.9015   0.5653   0.1933
V12     V     0.9347   0.6933   0.9015
V13     V     0.9347   0.8067   0.4015
V14     V     0.8067   0.0985   0.4347
V15     V     0.0985   0.0653   0.3067
V16     V     0.0653   0.1933   0.5985
V17     V     0.1933   0.9015   0.5653
V18     V     0.9015   0.9347   0.6933
V19     V     0.4347   0.6933   0.5985
V20     V     0.4015   0.5653   0.3067
V21     V     0.6933   0.5985   0.4347
V22     V     0.5653   0.3067   0.4015
V23     V     0.3067   0.4015   0.5653
V24     V     0.5985   0.4347   0.6933
loop_
_geom_bond_atom_site_label_1
_geom_bond_atom_site_label_2
_geom_bond_distance
_geom_bond_site_symmetry_2
_ccdc_geom_bond_type
V1     V5    10.0   1_565     S
V1     V3    10.0   1_566     S
V1     V2    10.0   1_556     S
V1     V6    10.0   .     S
V1     V19    10.0   .     S
V1     V17    10.0   .     S
V2     V6    10.0   1_554     S
V2     V4    10.0   1_565     S
V2     V1    10.0   1_554     S
V2     V3    10.0   1_565     S
V2     V9    10.0   .     S
V2     V20    10.0   .     S
V3     V5    10.0   1_554     S
V3     V1    10.0   1_544     S
V3     V2    10.0   1_545     S
V3     V4    10.0   .     S
V3     V15    10.0   .     S
V3     V10    10.0   .     S
V4     V6    10.0   1_544     S
V4     V2    10.0   1_545     S
V4     V5    10.0   1_554     S
V4     V22    10.0   .     S
V4     V14    10.0   .     S
V5     V3    10.0   1_556     S
V5     V1    10.0   1_545     S
V5     V4    10.0   1_556     S
V5     V6    10.0   1_545     S
V5     V7    10.0   .     S
V5     V24    10.0   .     S
V6     V2    10.0   1_556     S
V6     V4    10.0   1_566     S
V6     V5    10.0   1_565     S
V6     V18    10.0   .     S
V6     V12    10.0   .     S
V7     V11    10.0   1_556     S
V7     V10    10.0   1_656     S
V7     V8    10.0   1_655     S
V7     V12    10.0   .     S
V7     V24    10.0   .     S
V8     V12    10.0   1_455     S
V8     V9    10.0   1_556     S
V8     V7    10.0   1_455     S
V8     V10    10.0   1_556     S
V8     V16    10.0   .     S
V8     V23    10.0   .     S
V9     V12    10.0   1_454     S
V9     V8    10.0   1_554     S
V9     V11    10.0   1_455     S
V9     V10    10.0   .     S
V9     V20    10.0   .     S
V10     V11    10.0   1_455     S
V10     V7    10.0   1_454     S
V10     V8    10.0   1_554     S
V10     V15    10.0   .     S
V11     V10    10.0   1_655     S
V11     V7    10.0   1_554     S
V11     V9    10.0   1_655     S
V11     V12    10.0   1_554     S
V11     V13    10.0   .     S
V11     V21    10.0   .     S
V12     V9    10.0   1_656     S
V12     V8    10.0   1_655     S
V12     V11    10.0   1_556     S
V12     V18    10.0   .     S
V13     V17    10.0   1_655     S
V13     V15    10.0   1_665     S
V13     V14    10.0   1_565     S
V13     V18    10.0   .     S
V13     V21    10.0   .     S
V14     V18    10.0   1_545     S
V14     V16    10.0   1_655     S
V14     V13    10.0   1_545     S
V14     V15    10.0   1_655     S
V14     V22    10.0   .     S
V15     V17    10.0   1_545     S
V15     V13    10.0   1_445     S
V15     V14    10.0   1_455     S
V15     V16    10.0   .     S
V16     V18    10.0   1_445     S
V16     V14    10.0   1_455     S
V16     V17    10.0   1_545     S
V16     V23    10.0   .     S
V17     V13    10.0   1_455     S
V17     V15    10.0   1_565     S
V17     V16    10.0   1_565     S
V17     V18    10.0   1_455     S
V17     V19    10.0   .     S
V18     V16    10.0   1_665     S
V18     V14    10.0   1_565     S
V18     V17    10.0   1_655     S
V19     V21    10.0   .     S
V19     V24    10.0   .     S
V19     V23    10.0   .     S
V19     V20    10.0   .     S
V20     V22    10.0   .     S
V20     V23    10.0   .     S
V20     V21    10.0   .     S
V21     V24    10.0   .     S
V21     V22    10.0   .     S
V22     V23    10.0   .     S
V22     V24    10.0   .     S
V23     V24    10.0   .     S
