data_qdlea
_audit_creation_date              2020-02-04
_audit_creation_method            'Pymatgen'
_symmetry_space_group_name_H-M    'P1'
_symmetry_Int_Tables_number       1
loop_
_symmetry_equiv_pos_as_xyz
  x,y,z
_cell_length_a                    36.7402
_cell_length_b                    36.7402
_cell_length_c                    174.6726
_cell_angle_alpha                 90.0
_cell_angle_beta                 90.0
_cell_angle_gamma                 120.0
loop_
_atom_site_label
_atom_site_type_symbol
_atom_site_fract_x
_atom_site_fract_y
_atom_site_fract_z
Ce1     Ce     0.8483   0.9595   0.8536
Ce2     Ce     0.0405   0.1517   0.8131
Ce3     Ce     0.1517   0.0405   0.8536
Ce4     Ce     0.9595   0.8483   0.8131
Er5     Er     0.3654   0.003   0.94
Ti6     Ti     0.3709   0.0131   0.8828
Er7     Er     0.6346   0.997   0.94
Ti8     Ti     0.6291   0.9869   0.8828
Er9     Er     0.3624   0.997   0.06
Ti10     Ti     0.3578   0.9869   0.1172
Er11     Er     0.6376   0.003   0.06
Ti12     Ti     0.6422   0.0131   0.1172
V13     V     0.8637   0.9996   0.9714
V14     V     0.8641   0.0004   0.0286
V15     V     0.1363   0.0004   0.9714
V16     V     0.1359   0.9996   0.0286
Er17     Er     0.003   0.3654   0.7266
Ti18     Ti     0.0131   0.3709   0.7838
Er19     Er     0.997   0.6346   0.7266
Ti20     Ti     0.9869   0.6291   0.7838
V21     V     0.0004   0.8641   0.6381
V22     V     0.9996   0.8637   0.6953
V23     V     0.9996   0.1359   0.6381
V24     V     0.0004   0.1363   0.6953
Er25     Er     0.003   0.6376   0.6067
Ti26     Ti     0.0131   0.6422   0.5495
Er27     Er     0.997   0.3624   0.6067
Ti28     Ti     0.9869   0.3578   0.5495
Ce29     Ce     0.0405   0.8888   0.5202
Ce30     Ce     0.8483   0.8888   0.4798
Ce31     Ce     0.9595   0.1112   0.5202
Ce32     Ce     0.1517   0.1112   0.4798
Er33     Er     0.3654   0.3624   0.3933
Ti34     Ti     0.3709   0.3578   0.4505
Er35     Er     0.6346   0.6376   0.3933
Ti36     Ti     0.6291   0.6422   0.4505
Er37     Er     0.3624   0.3654   0.2734
Ti38     Ti     0.3578   0.3709   0.2162
Er39     Er     0.6376   0.6346   0.2734
Ti40     Ti     0.6422   0.6291   0.2162
V41     V     0.1359   0.1363   0.3047
V42     V     0.1363   0.1359   0.3619
V43     V     0.8641   0.8637   0.3047
V44     V     0.8637   0.8641   0.3619
Ce45     Ce     0.8888   0.8483   0.1869
Ce46     Ce     0.8888   0.0405   0.1464
Ce47     Ce     0.1112   0.1517   0.1869
Ce48     Ce     0.1112   0.9595   0.1464
loop_
_geom_bond_atom_site_label_1
_geom_bond_atom_site_label_2
_geom_bond_distance
_geom_bond_site_symmetry_2
_ccdc_geom_bond_type
Ce1     Ce2    9.991   1_665     S
Ce1     Ce4    10.001   .     S
Ce1     Ce3    9.996   1_665     S
Ce1     Ti8    10.005   .     S
Ce2     Ce1    9.991   1_445     S
Ce2     Ce3    10.001   .     S
Ce2     Ce4    9.996   1_445     S
Ce2     Ti18    10.005   .     S
Ce3     Ce1    9.996   1_445     S
Ce3     Ce4    9.991   1_445     S
Ce3     Ti6    10.005   .     S
Ce4     Ce2    9.996   1_665     S
Ce4     Ce3    9.991   1_665     S
Ce4     Ti20    10.005   .     S
Er5     Ti6    9.998   .     S
Er5     Er7    10.001   1_545     S
Er5     V15    10.004   .     S
Ti6     Ti8    10.003   1_545     S
Er7     Ti8    9.998   .     S
Er7     Er5    10.001   1_565     S
Er7     V13    10.004   .     S
Ti8     Ti6    10.003   1_565     S
Er9     Ti10    9.998   .     S
Er9     Er11    10.001   1_565     S
Er9     V16    10.004   .     S
Ti10     Ti12    10.003   1_565     S
Ti10     Ce48    10.005   .     S
Er11     Ti12    9.998   .     S
Er11     Er9    10.001   1_545     S
Er11     V14    10.004   .     S
Ti12     Ti10    10.003   1_545     S
Ti12     Ce46    10.005   .     S
V13     V14    9.996   1_566     S
V13     V15    10.001   1_665     S
V14     V13    9.996   1_544     S
V14     V16    10.001   1_645     S
V15     V16    9.996   1_546     S
V15     V13    10.001   1_445     S
V16     V15    9.996   1_564     S
V16     V14    10.001   1_465     S
Er17     Ti18    9.998   .     S
Er17     Er19    10.001   1_455     S
Er17     V24    10.004   .     S
Ti18     Ti20    10.003   1_455     S
Er19     Ti20    9.998   .     S
Er19     Er17    10.001   1_655     S
Er19     V22    10.004   .     S
Ti20     Ti18    10.003   1_655     S
V21     V22    9.996   1_455     S
V21     V23    10.001   1_465     S
V21     Er25    10.004   .     S
V22     V21    9.996   1_655     S
V22     V24    10.001   1_665     S
V23     V24    9.996   1_655     S
V23     V21    10.001   1_645     S
V23     Er27    10.004   .     S
V24     V23    9.996   1_455     S
V24     V22    10.001   1_445     S
Er25     Ti26    9.998   .     S
Er25     Er27    10.001   1_455     S
Ti26     Ti28    10.003   1_455     S
Ti26     Ce29    10.005   .     S
Er27     Ti28    9.998   .     S
Er27     Er25    10.001   1_655     S
Ti28     Ti26    10.003   1_655     S
Ti28     Ce31    10.005   .     S
Ce29     Ce30    9.991   1_455     S
Ce29     Ce31    9.996   1_465     S
Ce29     Ce32    10.001   1_565     S
Ce30     Ce29    9.991   1_655     S
Ce30     Ce31    10.001   1_565     S
Ce30     Ce32    9.996   1_665     S
Ce30     Ti36    10.005   .     S
Ce31     Ce30    10.001   1_545     S
Ce31     Ce29    9.996   1_645     S
Ce31     Ce32    9.991   1_655     S
Ce32     Ce29    10.001   1_545     S
Ce32     Ce30    9.996   1_445     S
Ce32     Ce31    9.991   1_455     S
Ce32     Ti34    10.005   .     S
Er33     Ti34    9.998   .     S
Er33     Er35    10.001   .     S
Er33     V42    10.004   .     S
Ti34     Ti36    10.003   .     S
Er35     Ti36    9.998   .     S
Er35     V44    10.004   .     S
Er37     Ti38    9.998   .     S
Er37     Er39    10.001   .     S
Er37     V41    10.004   .     S
Ti38     Ti40    10.003   .     S
Ti38     Ce47    10.005   .     S
Er39     Ti40    9.998   .     S
Er39     V43    10.004   .     S
Ti40     Ce45    10.005   .     S
V41     V42    9.996   .     S
V41     V43    10.001   1_445     S
V42     V44    10.001   1_445     S
V43     V44    9.996   .     S
V43     V41    10.001   1_665     S
V44     V42    10.001   1_665     S
Ce45     Ce46    9.991   1_565     S
Ce45     Ce47    9.996   1_665     S
Ce45     Ce48    10.001   1_655     S
Ce46     Ce45    9.991   1_545     S
Ce46     Ce47    10.001   1_655     S
Ce46     Ce48    9.996   1_645     S
Ce47     Ce48    9.991   1_545     S
Ce47     Ce46    10.001   1_455     S
Ce47     Ce45    9.996   1_445     S
Ce48     Ce47    9.991   1_565     S
Ce48     Ce45    10.001   1_455     S
Ce48     Ce46    9.996   1_465     S
