data_qnaa
_audit_creation_date              2020-02-04
_audit_creation_method            'Pymatgen'
_symmetry_space_group_name_H-M    'P1'
_symmetry_Int_Tables_number       1
loop_
_symmetry_equiv_pos_as_xyz
  x,y,z
_cell_length_a                    97.1123
_cell_length_b                    97.1123
_cell_length_c                    59.0323
_cell_angle_alpha                 90.0
_cell_angle_beta                 90.0
_cell_angle_gamma                 120.0
loop_
_atom_site_label
_atom_site_type_symbol
_atom_site_fract_x
_atom_site_fract_y
_atom_site_fract_z
V1     V     0.0938   0.9062   0.0
V2     V     0.0938   0.1876   0.0
V3     V     0.8124   0.9062   0.0
Er4     Er     0.9313   0.9657   0.0
Er5     Er     0.0343   0.0687   0.0
Er6     Er     0.0343   0.9657   0.0
He7     He     0.7169   0.0514   0.685
He8     He     0.7169   0.0514   0.315
C9     C     0.5206   0.9383   0.4153
N10     N     0.6096   0.9534   0.3139
Ce11     Ce     0.7283   0.9157   0.0847
Ti12     Ti     0.6937   0.9634   0.2063
C13     C     0.5206   0.9383   0.5847
N14     N     0.6096   0.9534   0.6861
Ce15     Ce     0.7283   0.9157   0.9153
Ti16     Ti     0.6937   0.9634   0.7937
He17     He     0.7169   0.6655   0.315
He18     He     0.7169   0.6655   0.685
C19     C     0.5206   0.5824   0.4153
N20     N     0.6096   0.6562   0.3139
Ce21     Ce     0.7283   0.8127   0.0847
Ti22     Ti     0.6937   0.7303   0.2063
C23     C     0.5206   0.5824   0.5847
N24     N     0.6096   0.6562   0.6861
Ce25     Ce     0.7283   0.8127   0.9153
Ti26     Ti     0.6937   0.7303   0.7937
He27     He     0.9486   0.6655   0.315
He28     He     0.9486   0.6655   0.685
C29     C     0.0617   0.5824   0.4153
N30     N     0.0466   0.6562   0.3139
Ce31     Ce     0.0843   0.8127   0.0847
Ti32     Ti     0.0366   0.7303   0.2063
C33     C     0.0617   0.5824   0.5847
N34     N     0.0466   0.6562   0.6861
Ce35     Ce     0.0843   0.8127   0.9153
Ti36     Ti     0.0366   0.7303   0.7937
He37     He     0.9486   0.2831   0.685
He38     He     0.9486   0.2831   0.315
C39     C     0.0617   0.4794   0.4153
N40     N     0.0466   0.3904   0.3139
Ce41     Ce     0.0843   0.2717   0.0847
Ti42     Ti     0.0366   0.3063   0.2063
C43     C     0.0617   0.4794   0.5847
N44     N     0.0466   0.3904   0.6861
Ce45     Ce     0.0843   0.2717   0.9153
Ti46     Ti     0.0366   0.3063   0.7937
B47     B     0.4271   0.5729   0.5
Be48     Be     0.3677   0.6323   0.5
Be49     Be     0.2647   0.6324   0.5
B50     B     0.1458   0.5729   0.5
B51     B     0.4271   0.8542   0.5
Be52     Be     0.3677   0.7353   0.5
He53     He     0.3345   0.0514   0.685
He54     He     0.3345   0.0514   0.315
C55     C     0.4176   0.9383   0.4153
N56     N     0.3438   0.9534   0.3139
Ce57     Ce     0.1873   0.9157   0.0847
Ti58     Ti     0.2697   0.9634   0.2063
C59     C     0.4176   0.9383   0.5847
N60     N     0.3438   0.9534   0.6861
Ce61     Ce     0.1873   0.9157   0.9153
Ti62     Ti     0.2697   0.9634   0.7937
He63     He     0.3345   0.2831   0.315
He64     He     0.3345   0.2831   0.685
C65     C     0.4176   0.4794   0.4153
N66     N     0.3438   0.3904   0.3139
Ce67     Ce     0.1873   0.2717   0.0847
Ti68     Ti     0.2697   0.3063   0.2063
C69     C     0.4176   0.4794   0.5847
N70     N     0.3438   0.3904   0.6861
Ce71     Ce     0.1873   0.2717   0.9153
Ti72     Ti     0.2697   0.3063   0.7937
Li73     Li     0.395   0.249   0.5847
Li74     Li     0.395   0.146   0.5847
Li75     Li     0.395   0.249   0.4153
Li76     Li     0.395   0.146   0.4153
H77     H     0.4791   0.2396   0.5
Li78     Li     0.751   0.605   0.5847
Li79     Li     0.854   0.605   0.5847
Li80     Li     0.751   0.605   0.4153
Li81     Li     0.854   0.605   0.4153
H82     H     0.7604   0.5209   0.5
S83     S     0.598   0.299   0.5
S84     S     0.701   0.402   0.5
S85     S     0.701   0.299   0.5
H86     H     0.7604   0.2396   0.5
Li87     Li     0.854   0.249   0.4153
Li88     Li     0.751   0.146   0.4153
Li89     Li     0.854   0.249   0.5847
Li90     Li     0.751   0.146   0.5847
loop_
_geom_bond_atom_site_label_1
_geom_bond_atom_site_label_2
_geom_bond_distance
_geom_bond_site_symmetry_2
_ccdc_geom_bond_type
V1     Ce35    10.001   1_554     S
V1     Ce31    10.001   .     S
V1     Ce61    10.001   1_554     S
V1     Ce57    10.001   .     S
V1     Er6    10.001   .     S
V2     Ce67    10.001   .     S
V2     Ce71    10.001   1_554     S
V2     Ce41    10.001   .     S
V2     Ce45    10.001   1_554     S
V2     Er5    10.001   .     S
V3     Ce21    10.001   .     S
V3     Ce25    10.001   1_554     S
V3     Ce15    10.001   1_554     S
V3     Ce11    10.001   .     S
V3     Er4    10.001   .     S
Er4     Er5    10.002   1_665     S
Er4     Er6    10.002   1_655     S
Er5     Er4    10.002   1_445     S
Er5     Er6    10.002   1_545     S
Er6     Er4    10.002   1_455     S
Er6     Er5    10.002   1_565     S
He7     Li90    10.001   .     S
He7     N14    10.0   1_545     S
He7     Ti16    10.0   1_545     S
He8     Li88    10.001   .     S
He8     N10    10.0   1_545     S
He8     Ti12    10.0   1_545     S
C9     N10    9.999   .     S
C9     C13    10.0   .     S
C9     B51    10.0   .     S
C9     C55    10.001   .     S
N10     He8    10.0   1_565     S
N10     Ti12    10.0   .     S
Ce11     Ti12    9.999   .     S
Ce11     Ce15    10.0   1_554     S
Ce11     Ce21    10.001   .     S
Ti12     He8    10.0   1_565     S
C13     N14    9.999   .     S
C13     B51    10.0   .     S
C13     C59    10.001   .     S
N14     He7    10.0   1_565     S
N14     Ti16    10.0   .     S
Ce15     V3    10.001   1_556     S
Ce15     Ti16    9.999   .     S
Ce15     Ce11    10.0   1_556     S
Ce15     Ce25    10.001   .     S
Ti16     He7    10.0   1_565     S
He17     Li80    10.001   .     S
He17     N20    10.0   .     S
He17     Ti22    10.0   .     S
He18     Li78    10.001   .     S
He18     N24    10.0   .     S
He18     Ti26    10.0   .     S
C19     N20    9.999   .     S
C19     C23    10.0   .     S
C19     B47    10.0   .     S
C19     C65    10.001   .     S
N20     Ti22    10.0   .     S
Ce21     Ti22    9.999   .     S
Ce21     Ce25    10.0   1_554     S
C23     N24    9.999   .     S
C23     B47    10.0   .     S
C23     C69    10.001   .     S
N24     Ti26    10.0   .     S
Ce25     V3    10.001   1_556     S
Ce25     Ti26    9.999   .     S
Ce25     Ce21    10.0   1_556     S
He27     Li81    10.001   .     S
He27     N30    10.0   1_655     S
He27     Ti32    10.0   1_655     S
He28     Li79    10.001   .     S
He28     N34    10.0   1_655     S
He28     Ti36    10.0   1_655     S
C29     N30    9.999   .     S
C29     C33    10.0   .     S
C29     B50    10.0   .     S
C29     C39    10.001   .     S
N30     He27    10.0   1_455     S
N30     Ti32    10.0   .     S
Ce31     Ti32    9.999   .     S
Ce31     Ce35    10.0   1_554     S
Ce31     Ce57    10.001   .     S
Ti32     He27    10.0   1_455     S
C33     N34    9.999   .     S
C33     B50    10.0   .     S
C33     C43    10.001   .     S
N34     He28    10.0   1_455     S
N34     Ti36    10.0   .     S
Ce35     V1    10.001   1_556     S
Ce35     Ti36    9.999   .     S
Ce35     Ce31    10.0   1_556     S
Ce35     Ce61    10.001   .     S
Ti36     He28    10.0   1_455     S
He37     Li89    10.001   .     S
He37     N44    10.0   1_655     S
He37     Ti46    10.0   1_655     S
He38     Li87    10.001   .     S
He38     N40    10.0   1_655     S
He38     Ti42    10.0   1_655     S
C39     N40    9.999   .     S
C39     C43    10.0   .     S
C39     B50    10.0   .     S
N40     He38    10.0   1_455     S
N40     Ti42    10.0   .     S
Ce41     Ti42    9.999   .     S
Ce41     Ce45    10.0   1_554     S
Ce41     Ce67    10.001   .     S
Ti42     He38    10.0   1_455     S
C43     N44    9.999   .     S
C43     B50    10.0   .     S
N44     He37    10.0   1_455     S
N44     Ti46    10.0   .     S
Ce45     V2    10.001   1_556     S
Ce45     Ti46    9.999   .     S
Ce45     Ce41    10.0   1_556     S
Ce45     Ce71    10.001   .     S
Ti46     He37    10.0   1_455     S
B47     Be48    9.998   .     S
B47     C69    10.0   .     S
B47     C65    10.0   .     S
Be48     Be49    9.999   .     S
Be48     Be52    9.999   .     S
Be49     Be52    9.999   .     S
Be49     B50    9.998   .     S
B51     Be52    9.998   .     S
B51     C59    10.0   .     S
B51     C55    10.0   .     S
He53     Li74    10.001   .     S
He53     N60    10.0   1_545     S
He53     Ti62    10.0   1_545     S
He54     Li76    10.001   .     S
He54     N56    10.0   1_545     S
He54     Ti58    10.0   1_545     S
C55     N56    9.999   .     S
C55     C59    10.0   .     S
N56     He54    10.0   1_565     S
N56     Ti58    10.0   .     S
Ce57     Ti58    9.999   .     S
Ce57     Ce61    10.0   1_554     S
Ti58     He54    10.0   1_565     S
C59     N60    9.999   .     S
N60     He53    10.0   1_565     S
N60     Ti62    10.0   .     S
Ce61     V1    10.001   1_556     S
Ce61     Ti62    9.999   .     S
Ce61     Ce57    10.0   1_556     S
Ti62     He53    10.0   1_565     S
He63     Li75    10.001   .     S
He63     N66    10.0   .     S
He63     Ti68    10.0   .     S
He64     Li73    10.001   .     S
He64     N70    10.0   .     S
He64     Ti72    10.0   .     S
C65     N66    9.999   .     S
C65     C69    10.0   .     S
N66     Ti68    10.0   .     S
Ce67     Ti68    9.999   .     S
Ce67     Ce71    10.0   1_554     S
C69     N70    9.999   .     S
N70     Ti72    10.0   .     S
Ce71     V2    10.001   1_556     S
Ce71     Ti72    9.999   .     S
Ce71     Ce67    10.0   1_556     S
Li73     Li74    10.0   .     S
Li73     H77    10.0   .     S
Li73     Li75    10.0   .     S
Li74     Li76    10.0   .     S
Li74     H77    10.0   .     S
Li75     Li76    10.0   .     S
Li75     H77    10.0   .     S
Li76     H77    10.0   .     S
H77     S83    10.001   .     S
Li78     Li79    10.0   .     S
Li78     Li80    10.0   .     S
Li78     H82    10.0   .     S
Li79     Li81    10.0   .     S
Li79     H82    10.0   .     S
Li80     Li81    10.0   .     S
Li80     H82    10.0   .     S
Li81     H82    10.0   .     S
H82     S84    10.001   .     S
S83     S84    10.0   .     S
S83     S85    10.0   .     S
S84     S85    10.0   .     S
S85     H86    10.001   .     S
H86     Li88    10.0   .     S
H86     Li90    10.0   .     S
H86     Li87    10.0   .     S
H86     Li89    10.0   .     S
Li87     Li88    10.0   .     S
Li87     Li89    10.0   .     S
Li88     Li90    10.0   .     S
Li89     Li90    10.0   .     S
