data_qnba
_audit_creation_date              2020-02-04
_audit_creation_method            'Pymatgen'
_symmetry_space_group_name_H-M    'P1'
_symmetry_Int_Tables_number       1
loop_
_symmetry_equiv_pos_as_xyz
  x,y,z
_cell_length_a                    65.9771
_cell_length_b                    65.9771
_cell_length_c                    67.4246
_cell_angle_alpha                 90.0
_cell_angle_beta                 90.0
_cell_angle_gamma                 120.0
loop_
_atom_site_label
_atom_site_type_symbol
_atom_site_fract_x
_atom_site_fract_y
_atom_site_fract_z
V1     V     0.2428   0.0   0.7115
V2     V     0.7572   0.7572   0.7115
V3     V     0.0   0.2428   0.7115
S4     S     0.8294   0.7419   0.8369
H5     H     0.9125   0.7046   0.9422
Ti6     Ti     0.4172   0.7574   0.9996
Ce7     Ce     0.565   0.9125   0.0
Ce8     Ce     0.6525   0.0875   0.0
Er9     Er     0.7203   0.0   0.0676
Ti10     Ti     0.6598   0.2426   0.9996
S11     S     0.7419   0.8294   0.8369
H12     H     0.7046   0.9125   0.9422
S13     S     0.1706   0.9125   0.8369
H14     H     0.0875   0.7921   0.9422
Ti15     Ti     0.2426   0.6598   0.9996
Ti16     Ti     0.7574   0.4172   0.9996
Ce17     Ce     0.9125   0.565   0.0
Ce18     Ce     0.0875   0.6525   0.0
Er19     Er     0.0   0.7203   0.0676
S20     S     0.2581   0.0875   0.8369
H21     H     0.2954   0.2079   0.9422
S22     S     0.0875   0.2581   0.8369
H23     H     0.2079   0.2954   0.9422
Ti24     Ti     0.5828   0.3402   0.9996
Ti25     Ti     0.3402   0.5828   0.9996
Ce26     Ce     0.435   0.3475   0.0
Ce27     Ce     0.3475   0.435   0.0
Er28     Er     0.2797   0.2797   0.0676
S29     S     0.9125   0.1706   0.8369
H30     H     0.7921   0.0875   0.9422
V31     V     0.7572   0.0   0.2115
V32     V     0.2428   0.2428   0.2115
V33     V     0.0   0.7572   0.2115
S34     S     0.0875   0.8294   0.3369
H35     H     0.2079   0.9125   0.4422
Ti36     Ti     0.5828   0.2426   0.4996
Ti37     Ti     0.3402   0.7574   0.4996
Ce38     Ce     0.3475   0.9125   0.5
Ce39     Ce     0.435   0.0875   0.5
Er40     Er     0.2797   0.0   0.5676
S41     S     0.7419   0.9125   0.3369
H42     H     0.7046   0.7921   0.4422
S43     S     0.9125   0.7419   0.3369
H44     H     0.7921   0.7046   0.4422
Ti45     Ti     0.4172   0.6598   0.4996
Ti46     Ti     0.6598   0.4172   0.4996
Ce47     Ce     0.565   0.6525   0.5
Ce48     Ce     0.6525   0.565   0.5
Er49     Er     0.7203   0.7203   0.5676
S50     S     0.2581   0.1706   0.3369
H51     H     0.2954   0.0875   0.4422
S52     S     0.1706   0.2581   0.3369
H53     H     0.0875   0.2954   0.4422
S54     S     0.8294   0.0875   0.3369
H55     H     0.9125   0.2079   0.4422
Ti56     Ti     0.2426   0.5828   0.4996
Ti57     Ti     0.7574   0.3402   0.4996
Ce58     Ce     0.9125   0.3475   0.5
Ce59     Ce     0.0875   0.435   0.5
Er60     Er     0.0   0.2797   0.5676
loop_
_geom_bond_atom_site_label_1
_geom_bond_atom_site_label_2
_geom_bond_distance
_geom_bond_site_symmetry_2
_ccdc_geom_bond_type
V1     S13    10.0   1_545     S
V1     S20    10.0   .     S
V1     Er40    10.0   .     S
V2     S11    10.0   .     S
V2     S4    10.0   .     S
V2     Er49    10.0   .     S
V3     S22    10.0   .     S
V3     S29    10.0   1_455     S
V3     Er60    10.0   .     S
S4     H5    10.0   .     S
S4     S11    10.0   .     S
H5     Ce17    10.0   1_556     S
H5     Er19    10.0   1_656     S
H5     H14    10.0   1_655     S
Ti6     Ti15    10.0   .     S
Ti6     Ce7    10.0   1_556     S
Ti6     Ti25    10.0   .     S
Ce7     Er9    9.999   1_565     S
Ce7     H12    10.0   1_554     S
Ce7     Ce8    9.999   1_565     S
Ce7     Ti6    10.0   1_554     S
Ce8     Er9    9.999   .     S
Ce8     H30    10.0   1_554     S
Ce8     Ce7    9.999   1_545     S
Ce8     Ti10    10.0   1_554     S
Er9     Ce7    9.999   1_545     S
Er9     H30    10.0   1_554     S
Er9     H12    10.0   1_544     S
Er9     V31    10.0   .     S
Ti10     Ti24    10.0   .     S
Ti10     Ce8    10.0   1_556     S
Ti10     Ti16    10.0   .     S
S11     H12    10.0   .     S
H12     Ce7    10.0   1_556     S
H12     Er9    10.0   1_566     S
H12     H30    10.0   1_565     S
S13     V1    10.0   1_565     S
S13     H14    10.0   .     S
S13     S20    10.0   1_565     S
H14     Ce18    10.0   1_556     S
H14     Er19    10.0   1_556     S
H14     H5    10.0   1_455     S
Ti15     Ti25    10.0   .     S
Ti15     Ce18    10.0   1_556     S
Ti16     Ce17    10.0   1_556     S
Ti16     Ti24    10.0   .     S
Ce17     Er19    9.999   1_655     S
Ce17     H5    10.0   1_554     S
Ce17     Ce18    9.999   1_655     S
Ce17     Ti16    10.0   1_554     S
Ce18     Er19    9.999   .     S
Ce18     H14    10.0   1_554     S
Ce18     Ce17    9.999   1_455     S
Ce18     Ti15    10.0   1_554     S
Er19     Ce17    9.999   1_455     S
Er19     H5    10.0   1_454     S
Er19     H14    10.0   1_554     S
Er19     V33    10.0   .     S
S20     S13    10.0   1_545     S
S20     H21    10.0   .     S
H21     Ce26    10.0   1_556     S
H21     Er28    10.0   1_556     S
H21     H23    10.0   .     S
S22     H23    10.0   .     S
S22     S29    10.0   1_455     S
H23     Ce27    10.0   1_556     S
H23     Er28    10.0   1_556     S
Ti24     Ce26    10.0   1_556     S
Ti25     Ce27    10.0   1_556     S
Ce26     Er28    9.999   .     S
Ce26     H21    10.0   1_554     S
Ce26     Ce27    9.999   .     S
Ce26     Ti24    10.0   1_554     S
Ce27     Er28    9.999   .     S
Ce27     H23    10.0   1_554     S
Ce27     Ti25    10.0   1_554     S
Er28     H21    10.0   1_554     S
Er28     H23    10.0   1_554     S
Er28     V32    10.0   .     S
S29     V3    10.0   1_655     S
S29     H30    10.0   .     S
S29     S22    10.0   1_655     S
H30     Ce8    10.0   1_556     S
H30     Er9    10.0   1_556     S
H30     H12    10.0   1_545     S
V31     S54    10.0   .     S
V31     S41    10.0   1_545     S
V32     S50    10.0   .     S
V32     S52    10.0   .     S
V33     S43    10.0   1_455     S
V33     S34    10.0   .     S
S34     H35    10.0   .     S
S34     S43    10.0   1_455     S
H35     Ce38    10.0   .     S
H35     Er40    10.0   1_565     S
H35     H51    10.0   1_565     S
Ti36     Ti57    10.0   .     S
Ti36     Ce39    10.0   .     S
Ti36     Ti46    10.0   .     S
Ti37     Ti45    10.0   .     S
Ti37     Ce38    10.0   .     S
Ti37     Ti56    10.0   .     S
Ce38     Er40    9.999   1_565     S
Ce38     Ce39    9.999   1_565     S
Ce39     Er40    9.999   .     S
Ce39     H51    10.0   .     S
Ce39     Ce38    9.999   1_545     S
Er40     Ce38    9.999   1_545     S
Er40     H35    10.0   1_545     S
Er40     H51    10.0   .     S
S41     V31    10.0   1_565     S
S41     H42    10.0   .     S
S41     S54    10.0   1_565     S
H42     Ce47    10.0   .     S
H42     Er49    10.0   .     S
H42     H44    10.0   .     S
S43     V33    10.0   1_655     S
S43     H44    10.0   .     S
S43     S34    10.0   1_655     S
H44     Ce48    10.0   .     S
H44     Er49    10.0   .     S
Ti45     Ti56    10.0   .     S
Ti45     Ce47    10.0   .     S
Ti46     Ce48    10.0   .     S
Ti46     Ti57    10.0   .     S
Ce47     Er49    9.999   .     S
Ce47     Ce48    9.999   .     S
Ce48     Er49    9.999   .     S
S50     H51    10.0   .     S
S50     S52    10.0   .     S
H51     H35    10.0   1_545     S
S52     H53    10.0   .     S
H53     Ce59    10.0   .     S
H53     Er60    10.0   .     S
H53     H55    10.0   1_455     S
S54     S41    10.0   1_545     S
S54     H55    10.0   .     S
H55     Ce58    10.0   .     S
H55     Er60    10.0   1_655     S
H55     H53    10.0   1_655     S
Ti56     Ce59    10.0   .     S
Ti57     Ce58    10.0   .     S
Ce58     Er60    9.999   1_655     S
Ce58     Ce59    9.999   1_655     S
Ce59     Er60    9.999   .     S
Ce59     Ce58    9.999   1_455     S
Er60     Ce58    9.999   1_455     S
Er60     H55    10.0   1_455     S
