data_qnca
_audit_creation_date              2020-02-04
_audit_creation_method            'Pymatgen'
_symmetry_space_group_name_H-M    'P1'
_symmetry_Int_Tables_number       1
loop_
_symmetry_equiv_pos_as_xyz
  x,y,z
_cell_length_a                    80.0908
_cell_length_b                    80.0908
_cell_length_c                    80.0908
_cell_angle_alpha                 90.0
_cell_angle_beta                 90.0
_cell_angle_gamma                 90.0
loop_
_atom_site_label
_atom_site_type_symbol
_atom_site_fract_x
_atom_site_fract_y
_atom_site_fract_z
V1     V     0.4376   0.5624   0.0
V2     V     0.4376   0.4376   0.0
V3     V     0.5624   0.4376   0.0
V4     V     0.5624   0.5624   0.0
V5     V     0.4376   0.0   0.5624
V6     V     0.4376   0.0   0.4376
V7     V     0.5624   0.0   0.4376
V8     V     0.5624   0.0   0.5624
V9     V     0.0   0.5624   0.5624
V10     V     0.0   0.5624   0.4376
V11     V     0.0   0.4376   0.5624
V12     V     0.0   0.4376   0.4376
Ti13     Ti     0.669   0.7573   0.0624
Ti14     Ti     0.7573   0.669   0.0624
Ti15     Ti     0.7573   0.669   0.9376
Ti16     Ti     0.669   0.7573   0.9376
Er17     Er     0.6507   0.6507   0.0
Ti18     Ti     0.7573   0.0624   0.669
Ti19     Ti     0.669   0.0624   0.7573
Ti20     Ti     0.669   0.9376   0.7573
Ti21     Ti     0.7573   0.9376   0.669
Er22     Er     0.6507   0.0   0.6507
Ti23     Ti     0.0624   0.669   0.7573
Ti24     Ti     0.0624   0.7573   0.669
Ti25     Ti     0.9376   0.7573   0.669
Ti26     Ti     0.9376   0.669   0.7573
Er27     Er     0.0   0.6507   0.6507
Ti28     Ti     0.331   0.0624   0.7573
Ti29     Ti     0.2427   0.0624   0.669
Ti30     Ti     0.2427   0.9376   0.669
Ti31     Ti     0.331   0.9376   0.7573
Er32     Er     0.3493   0.0   0.6507
Ce33     Ce     0.5624   0.892   0.8037
Ce34     Ce     0.5624   0.8037   0.892
Ce35     Ce     0.4376   0.8037   0.892
Ce36     Ce     0.4376   0.892   0.8037
Ti37     Ti     0.2427   0.669   0.0624
Ti38     Ti     0.331   0.7573   0.0624
Ti39     Ti     0.331   0.7573   0.9376
Ti40     Ti     0.2427   0.669   0.9376
Er41     Er     0.3493   0.6507   0.0
Ti42     Ti     0.0624   0.7573   0.331
Ti43     Ti     0.0624   0.669   0.2427
Ti44     Ti     0.9376   0.669   0.2427
Ti45     Ti     0.9376   0.7573   0.331
Er46     Er     0.0   0.6507   0.3493
Ce47     Ce     0.892   0.8037   0.5624
Ce48     Ce     0.8037   0.892   0.5624
Ce49     Ce     0.8037   0.892   0.4376
Ce50     Ce     0.892   0.8037   0.4376
Ti51     Ti     0.669   0.0624   0.2427
Ti52     Ti     0.7573   0.0624   0.331
Ti53     Ti     0.7573   0.9376   0.331
Ti54     Ti     0.669   0.9376   0.2427
Er55     Er     0.6507   0.0   0.3493
Ti56     Ti     0.0624   0.2427   0.669
Ti57     Ti     0.0624   0.331   0.7573
Ti58     Ti     0.9376   0.2427   0.669
Ti59     Ti     0.9376   0.331   0.7573
Er60     Er     0.0   0.3493   0.6507
Ce61     Ce     0.892   0.4376   0.8037
Ce62     Ce     0.8037   0.4376   0.892
Ce63     Ce     0.892   0.5624   0.8037
Ce64     Ce     0.8037   0.5624   0.892
Ti65     Ti     0.7573   0.331   0.0624
Ti66     Ti     0.669   0.2427   0.0624
Ti67     Ti     0.669   0.2427   0.9376
Ti68     Ti     0.7573   0.331   0.9376
Er69     Er     0.6507   0.3493   0.0
Ce70     Ce     0.108   0.5624   0.8037
Ce71     Ce     0.1963   0.5624   0.892
Ce72     Ce     0.108   0.4376   0.8037
Ce73     Ce     0.1963   0.4376   0.892
Ce74     Ce     0.5624   0.108   0.8037
Ce75     Ce     0.5624   0.1963   0.892
Ce76     Ce     0.4376   0.108   0.8037
Ce77     Ce     0.4376   0.1963   0.892
Ti78     Ti     0.331   0.2427   0.0624
Ti79     Ti     0.2427   0.331   0.0624
Ti80     Ti     0.2427   0.331   0.9376
Ti81     Ti     0.331   0.2427   0.9376
Er82     Er     0.3493   0.3493   0.0
Ce83     Ce     0.108   0.5624   0.1963
Ce84     Ce     0.1963   0.5624   0.108
Ce85     Ce     0.108   0.4376   0.1963
Ce86     Ce     0.1963   0.4376   0.108
Ce87     Ce     0.5624   0.108   0.1963
Ce88     Ce     0.5624   0.1963   0.108
Ce89     Ce     0.4376   0.108   0.1963
Ce90     Ce     0.4376   0.1963   0.108
Ce91     Ce     0.5624   0.8037   0.108
Ce92     Ce     0.5624   0.892   0.1963
Ce93     Ce     0.4376   0.8037   0.108
Ce94     Ce     0.4376   0.892   0.1963
Ce95     Ce     0.108   0.8037   0.5624
Ce96     Ce     0.1963   0.892   0.5624
Ce97     Ce     0.108   0.8037   0.4376
Ce98     Ce     0.1963   0.892   0.4376
Ti99     Ti     0.331   0.0624   0.2427
Ti100     Ti     0.2427   0.0624   0.331
Ti101     Ti     0.331   0.9376   0.2427
Ti102     Ti     0.2427   0.9376   0.331
Er103     Er     0.3493   0.0   0.3493
Ce104     Ce     0.108   0.1963   0.5624
Ce105     Ce     0.1963   0.108   0.5624
Ce106     Ce     0.108   0.1963   0.4376
Ce107     Ce     0.1963   0.108   0.4376
Ce108     Ce     0.8037   0.5624   0.108
Ce109     Ce     0.892   0.5624   0.1963
Ce110     Ce     0.8037   0.4376   0.108
Ce111     Ce     0.892   0.4376   0.1963
Ce112     Ce     0.8037   0.108   0.4376
Ce113     Ce     0.892   0.1963   0.4376
Ce114     Ce     0.8037   0.108   0.5624
Ce115     Ce     0.892   0.1963   0.5624
Ti116     Ti     0.0624   0.331   0.2427
Ti117     Ti     0.0624   0.2427   0.331
Ti118     Ti     0.9376   0.331   0.2427
Ti119     Ti     0.9376   0.2427   0.331
Er120     Er     0.0   0.3493   0.3493
loop_
_geom_bond_atom_site_label_1
_geom_bond_atom_site_label_2
_geom_bond_distance
_geom_bond_site_symmetry_2
_ccdc_geom_bond_type
V1     Er41    10.0   .     S
V1     V2    10.0   .     S
V1     V4    10.0   .     S
V2     Er82    10.0   .     S
V2     V3    10.0   .     S
V3     Er69    10.0   .     S
V3     V4    10.0   .     S
V4     Er17    10.0   .     S
V5     Er32    10.0   .     S
V5     V6    10.0   .     S
V5     V8    10.0   .     S
V6     Er103    10.0   .     S
V6     V7    10.0   .     S
V7     Er55    10.0   .     S
V7     V8    10.0   .     S
V8     Er22    10.0   .     S
V9     Er27    10.0   .     S
V9     V10    10.0   .     S
V9     V11    10.0   .     S
V10     Er46    10.0   .     S
V10     V12    10.0   .     S
V11     Er60    10.0   .     S
V11     V12    10.0   .     S
V12     Er120    10.0   .     S
Ti13     Ce91    10.0   .     S
Ti13     Er17    10.0   .     S
Ti13     Ti16    10.0   1_554     S
Ti13     Ti14    10.0   .     S
Ti14     Ce108    10.0   .     S
Ti14     Er17    10.0   .     S
Ti14     Ti15    10.0   1_554     S
Ti15     Ce64    10.0   .     S
Ti15     Er17    10.0   1_556     S
Ti15     Ti14    10.0   1_556     S
Ti15     Ti16    10.0   .     S
Ti16     Ce34    10.0   .     S
Ti16     Er17    10.0   1_556     S
Ti16     Ti13    10.0   1_556     S
Er17     Ti15    10.0   1_554     S
Er17     Ti16    10.0   1_554     S
Ti18     Ce114    10.0   .     S
Ti18     Er22    10.0   .     S
Ti18     Ti21    10.0   1_545     S
Ti18     Ti19    10.0   .     S
Ti19     Ce74    10.0   .     S
Ti19     Er22    10.0   .     S
Ti19     Ti20    10.0   1_545     S
Ti20     Ce33    10.0   .     S
Ti20     Er22    10.0   1_565     S
Ti20     Ti19    10.0   1_565     S
Ti20     Ti21    10.0   .     S
Ti21     Ce48    10.0   .     S
Ti21     Er22    10.0   1_565     S
Ti21     Ti18    10.0   1_565     S
Er22     Ti21    10.0   1_545     S
Er22     Ti20    10.0   1_545     S
Ti23     Ce70    10.0   .     S
Ti23     Er27    10.0   .     S
Ti23     Ti26    10.0   1_455     S
Ti23     Ti24    10.0   .     S
Ti24     Ce95    10.0   .     S
Ti24     Er27    10.0   .     S
Ti24     Ti25    10.0   1_455     S
Ti25     Ce47    10.0   .     S
Ti25     Er27    10.0   1_655     S
Ti25     Ti24    10.0   1_655     S
Ti25     Ti26    10.0   .     S
Ti26     Ce63    10.0   .     S
Ti26     Er27    10.0   1_655     S
Ti26     Ti23    10.0   1_655     S
Er27     Ti25    10.0   1_455     S
Er27     Ti26    10.0   1_455     S
Ti28     Ce76    10.0   .     S
Ti28     Er32    10.0   .     S
Ti28     Ti31    10.0   1_545     S
Ti28     Ti29    10.0   .     S
Ti29     Ce105    10.0   .     S
Ti29     Er32    10.0   .     S
Ti29     Ti30    10.0   1_545     S
Ti30     Ce96    10.0   .     S
Ti30     Er32    10.0   1_565     S
Ti30     Ti29    10.0   1_565     S
Ti30     Ti31    10.0   .     S
Ti31     Ce36    10.0   .     S
Ti31     Er32    10.0   1_565     S
Ti31     Ti28    10.0   1_565     S
Er32     Ti30    10.0   1_545     S
Er32     Ti31    10.0   1_545     S
Ce33     Ce34    9.999   .     S
Ce33     Ce36    10.0   .     S
Ce34     Ce35    10.0   .     S
Ce35     Ce36    9.999   .     S
Ce35     Ti39    10.0   .     S
Ti37     Ce84    10.0   .     S
Ti37     Er41    10.0   .     S
Ti37     Ti40    10.0   1_554     S
Ti37     Ti38    10.0   .     S
Ti38     Ce93    10.0   .     S
Ti38     Er41    10.0   .     S
Ti38     Ti39    10.0   1_554     S
Ti39     Er41    10.0   1_556     S
Ti39     Ti38    10.0   1_556     S
Ti39     Ti40    10.0   .     S
Ti40     Ce71    10.0   .     S
Ti40     Er41    10.0   1_556     S
Ti40     Ti37    10.0   1_556     S
Er41     Ti40    10.0   1_554     S
Er41     Ti39    10.0   1_554     S
Ti42     Ce97    10.0   .     S
Ti42     Er46    10.0   .     S
Ti42     Ti45    10.0   1_455     S
Ti42     Ti43    10.0   .     S
Ti43     Ce83    10.0   .     S
Ti43     Er46    10.0   .     S
Ti43     Ti44    10.0   1_455     S
Ti44     Ce109    10.0   .     S
Ti44     Er46    10.0   1_655     S
Ti44     Ti43    10.0   1_655     S
Ti44     Ti45    10.0   .     S
Ti45     Ce50    10.0   .     S
Ti45     Er46    10.0   1_655     S
Ti45     Ti42    10.0   1_655     S
Er46     Ti44    10.0   1_455     S
Er46     Ti45    10.0   1_455     S
Ce47     Ce48    9.999   .     S
Ce47     Ce50    10.0   .     S
Ce48     Ce49    10.0   .     S
Ce49     Ce50    9.999   .     S
Ce49     Ti53    10.0   .     S
Ti51     Ce87    10.0   .     S
Ti51     Er55    10.0   .     S
Ti51     Ti54    10.0   1_545     S
Ti51     Ti52    10.0   .     S
Ti52     Ce112    10.0   .     S
Ti52     Er55    10.0   .     S
Ti52     Ti53    10.0   1_545     S
Ti53     Er55    10.0   1_565     S
Ti53     Ti52    10.0   1_565     S
Ti53     Ti54    10.0   .     S
Ti54     Ce92    10.0   .     S
Ti54     Er55    10.0   1_565     S
Ti54     Ti51    10.0   1_565     S
Er55     Ti54    10.0   1_545     S
Er55     Ti53    10.0   1_545     S
Ti56     Ce104    10.0   .     S
Ti56     Er60    10.0   .     S
Ti56     Ti58    10.0   1_455     S
Ti56     Ti57    10.0   .     S
Ti57     Ce72    10.0   .     S
Ti57     Er60    10.0   .     S
Ti57     Ti59    10.0   1_455     S
Ti58     Ce115    10.0   .     S
Ti58     Er60    10.0   1_655     S
Ti58     Ti56    10.0   1_655     S
Ti58     Ti59    10.0   .     S
Ti59     Ce61    10.0   .     S
Ti59     Er60    10.0   1_655     S
Ti59     Ti57    10.0   1_655     S
Er60     Ti58    10.0   1_455     S
Er60     Ti59    10.0   1_455     S
Ce61     Ce62    9.999   .     S
Ce61     Ce63    10.0   .     S
Ce62     Ce64    10.0   .     S
Ce62     Ti68    10.0   .     S
Ce63     Ce64    9.999   .     S
Ti65     Ce110    10.0   .     S
Ti65     Er69    10.0   .     S
Ti65     Ti68    10.0   1_554     S
Ti65     Ti66    10.0   .     S
Ti66     Ce88    10.0   .     S
Ti66     Er69    10.0   .     S
Ti66     Ti67    10.0   1_554     S
Ti67     Ce75    10.0   .     S
Ti67     Er69    10.0   1_556     S
Ti67     Ti66    10.0   1_556     S
Ti67     Ti68    10.0   .     S
Ti68     Er69    10.0   1_556     S
Ti68     Ti65    10.0   1_556     S
Er69     Ti67    10.0   1_554     S
Er69     Ti68    10.0   1_554     S
Ce70     Ce71    9.999   .     S
Ce70     Ce72    10.0   .     S
Ce71     Ce73    10.0   .     S
Ce72     Ce73    9.999   .     S
Ce73     Ti80    10.0   .     S
Ce74     Ce75    9.999   .     S
Ce74     Ce76    10.0   .     S
Ce75     Ce77    10.0   .     S
Ce76     Ce77    9.999   .     S
Ce77     Ti81    10.0   .     S
Ti78     Ce90    10.0   .     S
Ti78     Er82    10.0   .     S
Ti78     Ti81    10.0   1_554     S
Ti78     Ti79    10.0   .     S
Ti79     Ce86    10.0   .     S
Ti79     Er82    10.0   .     S
Ti79     Ti80    10.0   1_554     S
Ti80     Er82    10.0   1_556     S
Ti80     Ti79    10.0   1_556     S
Ti80     Ti81    10.0   .     S
Ti81     Er82    10.0   1_556     S
Ti81     Ti78    10.0   1_556     S
Er82     Ti81    10.0   1_554     S
Er82     Ti80    10.0   1_554     S
Ce83     Ce84    9.999   .     S
Ce83     Ce85    10.0   .     S
Ce84     Ce86    10.0   .     S
Ce85     Ce86    9.999   .     S
Ce85     Ti116    10.0   .     S
Ce87     Ce88    9.999   .     S
Ce87     Ce89    10.0   .     S
Ce88     Ce90    10.0   .     S
Ce89     Ce90    9.999   .     S
Ce89     Ti99    10.0   .     S
Ce91     Ce92    9.999   .     S
Ce91     Ce93    10.0   .     S
Ce92     Ce94    10.0   .     S
Ce93     Ce94    9.999   .     S
Ce94     Ti101    10.0   .     S
Ce95     Ce96    9.999   .     S
Ce95     Ce97    10.0   .     S
Ce96     Ce98    10.0   .     S
Ce97     Ce98    9.999   .     S
Ce98     Ti102    10.0   .     S
Ti99     Er103    10.0   .     S
Ti99     Ti101    10.0   1_545     S
Ti99     Ti100    10.0   .     S
Ti100     Ce107    10.0   .     S
Ti100     Er103    10.0   .     S
Ti100     Ti102    10.0   1_545     S
Ti101     Er103    10.0   1_565     S
Ti101     Ti99    10.0   1_565     S
Ti101     Ti102    10.0   .     S
Ti102     Er103    10.0   1_565     S
Ti102     Ti100    10.0   1_565     S
Er103     Ti101    10.0   1_545     S
Er103     Ti102    10.0   1_545     S
Ce104     Ce105    9.999   .     S
Ce104     Ce106    10.0   .     S
Ce105     Ce107    10.0   .     S
Ce106     Ce107    9.999   .     S
Ce106     Ti117    10.0   .     S
Ce108     Ce109    9.999   .     S
Ce108     Ce110    10.0   .     S
Ce109     Ce111    10.0   .     S
Ce110     Ce111    9.999   .     S
Ce111     Ti118    10.0   .     S
Ce112     Ce113    9.999   .     S
Ce112     Ce114    10.0   .     S
Ce113     Ce115    10.0   .     S
Ce113     Ti119    10.0   .     S
Ce114     Ce115    9.999   .     S
Ti116     Er120    10.0   .     S
Ti116     Ti118    10.0   1_455     S
Ti116     Ti117    10.0   .     S
Ti117     Er120    10.0   .     S
Ti117     Ti119    10.0   1_455     S
Ti118     Er120    10.0   1_655     S
Ti118     Ti116    10.0   1_655     S
Ti118     Ti119    10.0   .     S
Ti119     Er120    10.0   1_655     S
Ti119     Ti117    10.0   1_655     S
Er120     Ti118    10.0   1_455     S
Er120     Ti119    10.0   1_455     S
