data_qnf
_audit_creation_date              2020-02-04
_audit_creation_method            'Pymatgen'
_symmetry_space_group_name_H-M    'P1'
_symmetry_Int_Tables_number       1
loop_
_symmetry_equiv_pos_as_xyz
  x,y,z
_cell_length_a                    28.7383
_cell_length_b                    28.7383
_cell_length_c                    28.7383
_cell_angle_alpha                 90.0
_cell_angle_beta                 90.0
_cell_angle_gamma                 90.0
loop_
_atom_site_label
_atom_site_type_symbol
_atom_site_fract_x
_atom_site_fract_y
_atom_site_fract_z
Ti1     Ti     0.7498   0.5   0.0
Ti2     Ti     0.2502   0.5   0.0
Er3     Er     0.5   0.3347   0.1695
Er4     Er     0.5   0.3347   0.8305
Er5     Er     0.5   0.6653   0.8305
Er6     Er     0.5   0.6653   0.1695
Ti7     Ti     0.0   0.7498   0.5
Ti8     Ti     0.0   0.2502   0.5
Er9     Er     0.1695   0.5   0.3347
Er10     Er     0.8305   0.5   0.3347
Er11     Er     0.1695   0.5   0.6653
Er12     Er     0.8305   0.5   0.6653
Ti13     Ti     0.5   0.0   0.7498
Ti14     Ti     0.5   0.0   0.2502
Er15     Er     0.3347   0.1695   0.5
Er16     Er     0.3347   0.8305   0.5
Er17     Er     0.6653   0.8305   0.5
Er18     Er     0.6653   0.1695   0.5
V19     V     0.7499   0.2501   0.7499
V20     V     0.7499   0.2501   0.2501
V21     V     0.7499   0.7499   0.2501
V22     V     0.2501   0.7499   0.7499
V23     V     0.7499   0.7499   0.7499
V24     V     0.2501   0.2501   0.7499
V25     V     0.2501   0.7499   0.2501
V26     V     0.2501   0.2501   0.2501
loop_
_geom_bond_atom_site_label_1
_geom_bond_atom_site_label_2
_geom_bond_distance
_geom_bond_site_symmetry_2
_ccdc_geom_bond_type
Ti1     V20    10.161   .     S
Ti1     V21    10.161   .     S
Ti1     V23    10.161   1_554     S
Ti1     V19    10.161   1_554     S
Ti1     Er3    9.893   .     S
Ti1     Er6    9.893   .     S
Ti1     Er10    9.893   .     S
Ti1     Er5    9.893   1_554     S
Ti1     Er4    9.893   1_554     S
Ti1     Er12    9.893   1_554     S
Ti2     V25    10.161   .     S
Ti2     V26    10.161   .     S
Ti2     V24    10.161   1_554     S
Ti2     V22    10.161   1_554     S
Ti2     Er6    9.893   .     S
Ti2     Er3    9.893   .     S
Ti2     Er9    9.893   .     S
Ti2     Er4    9.893   1_554     S
Ti2     Er5    9.893   1_554     S
Ti2     Er11    9.893   1_554     S
Er3     Ti14    9.893   .     S
Er4     Ti1    9.893   1_556     S
Er4     Ti2    9.893   1_556     S
Er4     Ti13    9.893   .     S
Er5     Ti1    9.893   1_556     S
Er5     Ti2    9.893   1_556     S
Er5     Ti13    9.893   1_565     S
Er6     Ti14    9.893   1_565     S
Ti7     V25    10.161   .     S
Ti7     V22    10.161   .     S
Ti7     V23    10.161   1_455     S
Ti7     V21    10.161   1_455     S
Ti7     Er9    9.893   .     S
Ti7     Er11    9.893   .     S
Ti7     Er16    9.893   .     S
Ti7     Er12    9.893   1_455     S
Ti7     Er10    9.893   1_455     S
Ti7     Er17    9.893   1_455     S
Ti8     V24    10.161   .     S
Ti8     V26    10.161   .     S
Ti8     V20    10.161   1_455     S
Ti8     V19    10.161   1_455     S
Ti8     Er11    9.893   .     S
Ti8     Er9    9.893   .     S
Ti8     Er15    9.893   .     S
Ti8     Er10    9.893   1_455     S
Ti8     Er12    9.893   1_455     S
Ti8     Er18    9.893   1_455     S
Er10     Ti7    9.893   1_655     S
Er10     Ti8    9.893   1_655     S
Er11     Ti2    9.893   1_556     S
Er12     Ti1    9.893   1_556     S
Er12     Ti7    9.893   1_655     S
Er12     Ti8    9.893   1_655     S
Ti13     V24    10.161   .     S
Ti13     V19    10.161   .     S
Ti13     V23    10.161   1_545     S
Ti13     V22    10.161   1_545     S
Ti13     Er15    9.893   .     S
Ti13     Er18    9.893   .     S
Ti13     Er17    9.893   1_545     S
Ti13     Er16    9.893   1_545     S
Ti13     Er5    9.893   1_545     S
Ti14     V20    10.161   .     S
Ti14     V26    10.161   .     S
Ti14     V25    10.161   1_545     S
Ti14     V21    10.161   1_545     S
Ti14     Er18    9.893   .     S
Ti14     Er15    9.893   .     S
Ti14     Er16    9.893   1_545     S
Ti14     Er17    9.893   1_545     S
Ti14     Er6    9.893   1_545     S
Er16     Ti13    9.893   1_565     S
Er16     Ti14    9.893   1_565     S
Er17     Ti7    9.893   1_655     S
Er17     Ti13    9.893   1_565     S
Er17     Ti14    9.893   1_565     S
Er18     Ti8    9.893   1_655     S
V19     Ti1    10.161   1_556     S
V19     Ti8    10.161   1_655     S
V20     Ti8    10.161   1_655     S
V21     Ti7    10.161   1_655     S
V21     Ti14    10.161   1_565     S
V22     Ti2    10.161   1_556     S
V22     Ti13    10.161   1_565     S
V23     Ti1    10.161   1_556     S
V23     Ti7    10.161   1_655     S
V23     Ti13    10.161   1_565     S
V24     Ti2    10.161   1_556     S
V25     Ti14    10.161   1_565     S
