data_qnfa
_audit_creation_date              2020-02-04
_audit_creation_method            'Pymatgen'
_symmetry_space_group_name_H-M    'P1'
_symmetry_Int_Tables_number       1
loop_
_symmetry_equiv_pos_as_xyz
  x,y,z
_cell_length_a                    73.8413
_cell_length_b                    73.8413
_cell_length_c                    73.8413
_cell_angle_alpha                 90.0
_cell_angle_beta                 90.0
_cell_angle_gamma                 90.0
loop_
_atom_site_label
_atom_site_type_symbol
_atom_site_fract_x
_atom_site_fract_y
_atom_site_fract_z
S1     S     0.2284   0.278   0.1676
S2     S     0.1676   0.2284   0.278
S3     S     0.278   0.1676   0.2284
S4     S     0.7716   0.722   0.8324
S5     S     0.722   0.8324   0.7716
S6     S     0.8324   0.7716   0.722
S7     S     0.278   0.8324   0.7716
S8     S     0.2284   0.722   0.8324
S9     S     0.1676   0.7716   0.722
S10     S     0.278   0.1676   0.7716
S11     S     0.2284   0.278   0.8324
S12     S     0.1676   0.2284   0.722
S13     S     0.1676   0.7716   0.278
S14     S     0.278   0.8324   0.2284
S15     S     0.2284   0.722   0.1676
S16     S     0.7716   0.278   0.1676
S17     S     0.8324   0.2284   0.278
S18     S     0.722   0.1676   0.2284
S19     S     0.7716   0.278   0.8324
S20     S     0.8324   0.2284   0.722
S21     S     0.722   0.1676   0.7716
Ce22     Ce     0.8977   0.2191   0.5
Ce23     Ce     0.1023   0.2191   0.5
Ce24     Ce     0.1023   0.7809   0.5
V25     V     0.3311   0.8878   0.5676
V26     V     0.3311   0.8878   0.4324
Ti27     Ti     0.2258   0.8362   0.5
H28     H     0.3698   0.0678   0.7656
Er29     Er     0.4323   0.9324   0.6456
Er30     Er     0.4323   0.0676   0.6456
H31     H     0.3698   0.9322   0.7656
V32     V     0.3311   0.1122   0.4324
V33     V     0.3311   0.1122   0.5676
Ti34     Ti     0.2258   0.1638   0.5
H35     H     0.3698   0.9322   0.2344
Er36     Er     0.4323   0.9324   0.3544
Er37     Er     0.4323   0.0676   0.3544
H38     H     0.3698   0.0678   0.2344
V39     V     0.6689   0.8878   0.4324
V40     V     0.6689   0.8878   0.5676
Ti41     Ti     0.7742   0.8362   0.5
H42     H     0.6302   0.9322   0.7656
Er43     Er     0.5677   0.9324   0.6456
Er44     Er     0.5677   0.0676   0.6456
H45     H     0.6302   0.0678   0.7656
V46     V     0.6689   0.1122   0.4324
V47     V     0.6689   0.1122   0.5676
Ti48     Ti     0.7742   0.1638   0.5
H49     H     0.6302   0.0678   0.2344
Er50     Er     0.5677   0.9324   0.3544
Er51     Er     0.5677   0.0676   0.3544
H52     H     0.6302   0.9322   0.2344
Ce53     Ce     0.8977   0.7809   0.5
Ce54     Ce     0.2191   0.5   0.8977
Ce55     Ce     0.2191   0.5   0.1023
Ce56     Ce     0.7809   0.5   0.1023
V57     V     0.8878   0.4324   0.6689
V58     V     0.8878   0.5676   0.6689
Ti59     Ti     0.8362   0.5   0.7742
H60     H     0.9322   0.7656   0.6302
Er61     Er     0.9324   0.6456   0.5677
Er62     Er     0.0676   0.6456   0.5677
H63     H     0.0678   0.7656   0.6302
V64     V     0.1122   0.4324   0.6689
V65     V     0.1122   0.5676   0.6689
Ti66     Ti     0.1638   0.5   0.7742
H67     H     0.0678   0.2344   0.6302
Er68     Er     0.9324   0.3544   0.5677
Er69     Er     0.0676   0.3544   0.5677
H70     H     0.9322   0.2344   0.6302
V71     V     0.8878   0.5676   0.3311
V72     V     0.8878   0.4324   0.3311
Ti73     Ti     0.8362   0.5   0.2258
H74     H     0.0678   0.7656   0.3698
Er75     Er     0.9324   0.6456   0.4323
Er76     Er     0.0676   0.6456   0.4323
H77     H     0.9322   0.7656   0.3698
V78     V     0.1122   0.4324   0.3311
V79     V     0.1122   0.5676   0.3311
Ti80     Ti     0.1638   0.5   0.2258
H81     H     0.9322   0.2344   0.3698
Er82     Er     0.9324   0.3544   0.4323
Er83     Er     0.0676   0.3544   0.4323
H84     H     0.0678   0.2344   0.3698
Ce85     Ce     0.7809   0.5   0.8977
Ce86     Ce     0.5   0.8977   0.2191
Ce87     Ce     0.5   0.1023   0.2191
Ce88     Ce     0.5   0.1023   0.7809
V89     V     0.5676   0.3311   0.8878
V90     V     0.4324   0.3311   0.8878
Ti91     Ti     0.5   0.2258   0.8362
H92     H     0.7656   0.3698   0.0678
Er93     Er     0.6456   0.4323   0.9324
Er94     Er     0.6456   0.4323   0.0676
H95     H     0.7656   0.3698   0.9322
V96     V     0.4324   0.3311   0.1122
V97     V     0.5676   0.3311   0.1122
Ti98     Ti     0.5   0.2258   0.1638
H99     H     0.2344   0.3698   0.9322
Er100     Er     0.3544   0.4323   0.9324
Er101     Er     0.3544   0.4323   0.0676
H102     H     0.2344   0.3698   0.0678
V103     V     0.4324   0.6689   0.8878
V104     V     0.5676   0.6689   0.8878
Ti105     Ti     0.5   0.7742   0.8362
H106     H     0.7656   0.6302   0.9322
Er107     Er     0.6456   0.5677   0.9324
Er108     Er     0.6456   0.5677   0.0676
H109     H     0.7656   0.6302   0.0678
V110     V     0.4324   0.6689   0.1122
V111     V     0.5676   0.6689   0.1122
Ti112     Ti     0.5   0.7742   0.1638
H113     H     0.2344   0.6302   0.0678
Er114     Er     0.3544   0.5677   0.9324
Er115     Er     0.3544   0.5677   0.0676
H116     H     0.2344   0.6302   0.9322
Ce117     Ce     0.5   0.8977   0.7809
S118     S     0.8324   0.7716   0.278
S119     S     0.722   0.8324   0.2284
S120     S     0.7716   0.722   0.1676
loop_
_geom_bond_atom_site_label_1
_geom_bond_atom_site_label_2
_geom_bond_distance
_geom_bond_site_symmetry_2
_ccdc_geom_bond_type
S1     S3    10.006   .     S
S1     S2    10.006   .     S
S1     H102    10.019   .     S
S2     S3    10.006   .     S
S2     H84    10.019   .     S
S3     H38    10.019   .     S
S4     S5    10.006   .     S
S4     S6    10.006   .     S
S4     H106    10.019   .     S
S5     S6    10.006   .     S
S5     H42    10.019   .     S
S6     H60    10.019   .     S
S7     S9    10.006   .     S
S7     S8    10.006   .     S
S7     H31    10.019   .     S
S8     S9    10.006   .     S
S8     H116    10.019   .     S
S9     H63    10.019   .     S
S10     S12    10.006   .     S
S10     S11    10.006   .     S
S10     H28    10.019   .     S
S11     S12    10.006   .     S
S11     H99    10.019   .     S
S12     H67    10.019   .     S
S13     S15    10.006   .     S
S13     S14    10.006   .     S
S13     H74    10.019   .     S
S14     S15    10.006   .     S
S14     H35    10.019   .     S
S15     H113    10.019   .     S
S16     S18    10.006   .     S
S16     S17    10.006   .     S
S16     H92    10.019   .     S
S17     S18    10.006   .     S
S17     H81    10.019   .     S
S18     H49    10.019   .     S
S19     S21    10.006   .     S
S19     S20    10.006   .     S
S19     H95    10.019   .     S
S20     S21    10.006   .     S
S20     H70    10.019   .     S
S21     H45    10.019   .     S
Ce22     Ti48    9.997   .     S
Ce22     H70    10.008   .     S
Ce22     H81    10.008   .     S
Ce23     Ti34    9.997   .     S
Ce23     H84    10.008   .     S
Ce23     H67    10.008   .     S
Ce24     Ti27    9.997   .     S
Ce24     H63    10.008   .     S
Ce24     H74    10.008   .     S
V25     Ti27    9.992   .     S
V25     Er29    9.993   .     S
V25     V26    9.985   .     S
V26     Ti27    9.992   .     S
V26     Er36    9.993   .     S
H28     Er30    9.991   .     S
H28     Ce88    10.008   .     S
H28     H31    10.017   1_545     S
Er29     Er30    9.988   1_565     S
Er29     H31    9.991   .     S
Er29     Er43    9.994   .     S
Er30     Er29    9.988   1_545     S
Er30     V33    9.993   .     S
Er30     Er44    9.994   .     S
H31     Ce117    10.008   .     S
H31     H28    10.017   1_565     S
V32     Ti34    9.992   .     S
V32     Er37    9.993   .     S
V32     V33    9.985   .     S
V33     Ti34    9.992   .     S
H35     Er36    9.991   .     S
H35     Ce86    10.008   .     S
H35     H38    10.017   1_565     S
Er36     Er37    9.988   1_565     S
Er36     Er50    9.994   .     S
Er37     Er36    9.988   1_545     S
Er37     H38    9.991   .     S
Er37     Er51    9.994   .     S
H38     Ce87    10.008   .     S
H38     H35    10.017   1_545     S
V39     Ti41    9.992   .     S
V39     Er50    9.993   .     S
V39     V40    9.985   .     S
V40     Ti41    9.992   .     S
V40     Er43    9.993   .     S
Ti41     Ce53    9.997   .     S
H42     Er43    9.991   .     S
H42     Ce117    10.008   .     S
H42     H45    10.017   1_565     S
Er43     Er44    9.988   1_565     S
Er44     Er43    9.988   1_545     S
Er44     H45    9.991   .     S
Er44     V47    9.993   .     S
H45     Ce88    10.008   .     S
H45     H42    10.017   1_545     S
V46     Ti48    9.992   .     S
V46     Er51    9.993   .     S
V46     V47    9.985   .     S
V47     Ti48    9.992   .     S
H49     Er51    9.991   .     S
H49     Ce87    10.008   .     S
H49     H52    10.017   1_545     S
Er50     Er51    9.988   1_565     S
Er50     H52    9.991   .     S
Er51     Er50    9.988   1_545     S
H52     Ce86    10.008   .     S
H52     H49    10.017   1_565     S
H52     S119    10.019   .     S
Ce53     H77    10.008   .     S
Ce53     H60    10.008   .     S
Ce54     Ti66    9.997   .     S
Ce54     H116    10.008   .     S
Ce54     H99    10.008   .     S
Ce55     Ti80    9.997   .     S
Ce55     H102    10.008   .     S
Ce55     H113    10.008   .     S
Ce56     Ti73    9.997   .     S
Ce56     H109    10.008   .     S
Ce56     H92    10.008   .     S
V57     Ti59    9.992   .     S
V57     Er68    9.993   .     S
V57     V58    9.985   .     S
V58     Ti59    9.992   .     S
V58     Er61    9.993   .     S
Ti59     Ce85    9.997   .     S
H60     Er61    9.991   .     S
H60     H63    10.017   1_655     S
Er61     Er62    9.988   1_655     S
Er61     Er75    9.994   .     S
Er62     Er61    9.988   1_455     S
Er62     H63    9.991   .     S
Er62     V65    9.993   .     S
Er62     Er76    9.994   .     S
H63     H60    10.017   1_455     S
V64     Ti66    9.992   .     S
V64     Er69    9.993   .     S
V64     V65    9.985   .     S
V65     Ti66    9.992   .     S
H67     Er69    9.991   .     S
H67     H70    10.017   1_455     S
Er68     Er69    9.988   1_655     S
Er68     H70    9.991   .     S
Er68     Er82    9.994   .     S
Er69     Er68    9.988   1_455     S
Er69     Er83    9.994   .     S
H70     H67    10.017   1_655     S
V71     Ti73    9.992   .     S
V71     Er75    9.993   .     S
V71     V72    9.985   .     S
V72     Ti73    9.992   .     S
V72     Er82    9.993   .     S
H74     Er76    9.991   .     S
H74     H77    10.017   1_455     S
Er75     Er76    9.988   1_655     S
Er75     H77    9.991   .     S
Er76     Er75    9.988   1_455     S
Er76     V79    9.993   .     S
H77     H74    10.017   1_655     S
H77     S118    10.019   .     S
V78     Ti80    9.992   .     S
V78     Er83    9.993   .     S
V78     V79    9.985   .     S
V79     Ti80    9.992   .     S
H81     Er82    9.991   .     S
H81     H84    10.017   1_655     S
Er82     Er83    9.988   1_655     S
Er83     Er82    9.988   1_455     S
Er83     H84    9.991   .     S
H84     H81    10.017   1_455     S
Ce85     H95    10.008   .     S
Ce85     H106    10.008   .     S
Ce86     Ti112    9.997   .     S
Ce87     Ti98    9.997   .     S
Ce88     Ti91    9.997   .     S
V89     Ti91    9.992   .     S
V89     Er93    9.993   .     S
V89     V90    9.985   .     S
V90     Ti91    9.992   .     S
V90     Er100    9.993   .     S
H92     Er94    9.991   .     S
H92     H95    10.017   1_554     S
Er93     Er94    9.988   1_556     S
Er93     H95    9.991   .     S
Er93     Er107    9.994   .     S
Er94     Er93    9.988   1_554     S
Er94     V97    9.993   .     S
Er94     Er108    9.994   .     S
H95     H92    10.017   1_556     S
V96     Ti98    9.992   .     S
V96     Er101    9.993   .     S
V96     V97    9.985   .     S
V97     Ti98    9.992   .     S
H99     Er100    9.991   .     S
H99     H102    10.017   1_556     S
Er100     Er101    9.988   1_556     S
Er100     Er114    9.994   .     S
Er101     Er100    9.988   1_554     S
Er101     H102    9.991   .     S
Er101     Er115    9.994   .     S
H102     H99    10.017   1_554     S
V103     Ti105    9.992   .     S
V103     Er114    9.993   .     S
V103     V104    9.985   .     S
V104     Ti105    9.992   .     S
V104     Er107    9.993   .     S
Ti105     Ce117    9.997   .     S
H106     Er107    9.991   .     S
H106     H109    10.017   1_556     S
Er107     Er108    9.988   1_556     S
Er108     Er107    9.988   1_554     S
Er108     H109    9.991   .     S
Er108     V111    9.993   .     S
H109     H106    10.017   1_554     S
H109     S120    10.019   .     S
V110     Ti112    9.992   .     S
V110     Er115    9.993   .     S
V110     V111    9.985   .     S
V111     Ti112    9.992   .     S
H113     Er115    9.991   .     S
H113     H116    10.017   1_554     S
Er114     Er115    9.988   1_556     S
Er114     H116    9.991   .     S
Er115     Er114    9.988   1_554     S
H116     H113    10.017   1_556     S
S118     S120    10.006   .     S
S118     S119    10.006   .     S
S119     S120    10.006   .     S
