data_qoma
_audit_creation_date              2020-02-04
_audit_creation_method            'Pymatgen'
_symmetry_space_group_name_H-M    'P1'
_symmetry_Int_Tables_number       1
loop_
_symmetry_equiv_pos_as_xyz
  x,y,z
_cell_length_a                    79.1363
_cell_length_b                    79.1363
_cell_length_c                    63.4401
_cell_angle_alpha                 90.0
_cell_angle_beta                 90.0
_cell_angle_gamma                 120.0
loop_
_atom_site_label
_atom_site_type_symbol
_atom_site_fract_x
_atom_site_fract_y
_atom_site_fract_z
Ti1     Ti     0.9579   0.0421   0.25
Ti2     Ti     0.0842   0.0421   0.25
Ti3     Ti     0.9579   0.9158   0.25
V4     V     0.7088   0.2912   0.25
V5     V     0.7088   0.4176   0.25
V6     V     0.5824   0.2912   0.25
S7     S     0.1168   0.7417   0.9967
S8     S     0.2583   0.8832   0.5033
S9     S     0.2583   0.375   0.9967
S10     S     0.625   0.7417   0.5033
S11     S     0.1168   0.375   0.5033
S12     S     0.625   0.8832   0.9967
He13     He     0.657   0.6928   0.3726
Er14     Er     0.7817   0.5635   0.25
Li15     Li     0.9152   0.6667   0.2053
H16     H     0.7975   0.6667   0.1479
Li17     Li     0.7515   0.6667   0.2947
H18     H     0.8692   0.6667   0.3521
He19     He     0.0357   0.6928   0.1274
Ce20     Ce     0.8849   0.7698   0.25
He21     He     0.0357   0.343   0.3726
Er22     Er     0.7817   0.2183   0.25
Li23     Li     0.7515   0.0848   0.2053
Li24     Li     0.9152   0.2485   0.2947
H25     H     0.7975   0.1308   0.3521
H26     H     0.8692   0.2025   0.1479
He27     He     0.657   0.9642   0.1274
Ce28     Ce     0.8849   0.1151   0.25
Be29     Be     0.3042   0.8366   0.3814
B30     B     0.3333   0.5937   0.1856
B31     B     0.2604   0.5937   0.3144
B32     B     0.4063   0.7396   0.1856
B33     B     0.2604   0.6667   0.1856
B34     B     0.3333   0.7396   0.3144
B35     B     0.4063   0.6667   0.3144
Be36     Be     0.5324   0.6958   0.3814
Be37     Be     0.1634   0.6958   0.1186
Be38     Be     0.5324   0.8366   0.1186
Be39     Be     0.3042   0.4676   0.1186
Be40     Be     0.1634   0.4676   0.3814
He41     He     0.3072   0.343   0.1274
Er42     Er     0.4365   0.2183   0.25
Li43     Li     0.3333   0.2485   0.2053
Li44     Li     0.3333   0.0848   0.2947
H45     H     0.3333   0.1308   0.1479
H46     H     0.3333   0.2025   0.3521
He47     He     0.3072   0.9642   0.3726
Ce48     Ce     0.2302   0.1151   0.25
V49     V     0.2912   0.5824   0.75
V50     V     0.2912   0.7088   0.75
V51     V     0.4176   0.7088   0.75
Ti52     Ti     0.0421   0.0842   0.75
Ti53     Ti     0.0421   0.9579   0.75
Ti54     Ti     0.9158   0.9579   0.75
S55     S     0.8832   0.2583   0.0033
S56     S     0.7417   0.1168   0.4967
S57     S     0.375   0.2583   0.4967
S58     S     0.375   0.1168   0.0033
S59     S     0.8832   0.625   0.4967
S60     S     0.7417   0.625   0.0033
He61     He     0.6928   0.0357   0.6274
Er62     Er     0.5635   0.7817   0.75
Li63     Li     0.6667   0.7515   0.7947
H64     H     0.6667   0.8692   0.8521
Li65     Li     0.6667   0.9152   0.7053
H66     H     0.6667   0.7975   0.6479
He67     He     0.6928   0.657   0.8726
Ce68     Ce     0.7698   0.8849   0.75
He69     He     0.343   0.3072   0.6274
Er70     Er     0.2183   0.4365   0.75
Li71     Li     0.0848   0.3333   0.7947
Li72     Li     0.2485   0.3333   0.7053
H73     H     0.1308   0.3333   0.6479
H74     H     0.2025   0.3333   0.8521
He75     He     0.9642   0.3072   0.8726
Ce76     Ce     0.1151   0.2302   0.75
Be77     Be     0.8366   0.3042   0.8814
Be78     Be     0.4676   0.1634   0.8814
B79     B     0.6667   0.4063   0.8144
B80     B     0.6667   0.2604   0.6856
B81     B     0.7396   0.3333   0.8144
B82     B     0.7396   0.4063   0.6856
B83     B     0.5937   0.3333   0.6856
B84     B     0.5937   0.2604   0.8144
Be85     Be     0.4676   0.3042   0.6185
Be86     Be     0.6958   0.5324   0.8814
Be87     Be     0.6958   0.1634   0.6185
Be88     Be     0.8366   0.5324   0.6185
He89     He     0.343   0.0357   0.8726
Er90     Er     0.2183   0.7817   0.75
Li91     Li     0.0848   0.7515   0.7053
Li92     Li     0.2485   0.9152   0.7947
H93     H     0.2025   0.8692   0.6479
H94     H     0.1308   0.7975   0.8521
He95     He     0.9642   0.657   0.6274
Ce96     Ce     0.1151   0.8849   0.75
loop_
_geom_bond_atom_site_label_1
_geom_bond_atom_site_label_2
_geom_bond_distance
_geom_bond_site_symmetry_2
_ccdc_geom_bond_type
Ti1     Ti3    10.0   1_545     S
Ti1     Ti2    10.0   1_655     S
Ti1     Ce28    10.0   .     S
Ti2     Ti1    10.0   1_455     S
Ti2     Ti3    10.0   1_445     S
Ti2     Ce48    10.0   .     S
Ti3     Ti1    10.0   1_565     S
Ti3     Ti2    10.0   1_665     S
Ti3     Ce20    10.0   .     S
V4     Er22    10.0   .     S
V4     V5    10.0   .     S
V4     V6    10.0   .     S
V5     Er14    10.0   .     S
V5     V6    10.0   .     S
V6     Er42    10.0   .     S
S7     H94    10.0   .     S
S7     He19    10.0   1_556     S
S7     Be37    10.0   1_556     S
S8     H93    10.0   .     S
S8     He47    10.0   .     S
S8     Be29    10.0   .     S
S9     H74    10.0   .     S
S9     He41    10.0   1_556     S
S9     Be39    10.0   1_556     S
S10     H66    10.0   .     S
S10     He13    10.0   .     S
S10     Be36    10.0   .     S
S11     H73    10.0   .     S
S11     He21    10.0   .     S
S11     Be40    10.0   .     S
S12     H64    10.0   .     S
S12     He27    10.0   1_556     S
S12     Be38    10.0   1_556     S
He13     Be36    10.001   .     S
He13     Li17    10.0   .     S
Er14     H16    10.0   .     S
Er14     Li15    10.001   .     S
Er14     H18    10.0   .     S
Er14     Li17    10.0   .     S
Li15     Ce20    10.0   .     S
Li15     H16    10.0   .     S
Li15     H18    10.001   .     S
Li15     He19    10.0   1_655     S
H16     Ce20    10.0   .     S
H16     Li17    10.001   .     S
H16     S60    10.0   .     S
Li17     Ce20    10.0   .     S
Li17     H18    10.0   .     S
H18     Ce20    10.0   .     S
H18     S59    10.0   .     S
He19     Li15    10.0   1_455     S
He19     Be37    10.001   .     S
He19     S7    10.0   1_554     S
He21     Be40    10.001   .     S
He21     Li24    10.0   1_455     S
Er22     H25    10.0   .     S
Er22     Li24    10.0   .     S
Er22     H26    10.0   .     S
Er22     Li23    10.0   .     S
Li23     Ce28    10.0   .     S
Li23     H26    10.0   .     S
Li23     H25    10.001   .     S
Li23     He27    10.0   1_545     S
Li24     H26    10.001   .     S
Li24     Ce28    10.0   .     S
Li24     H25    10.0   .     S
Li24     He21    10.0   1_655     S
H25     Ce28    10.0   .     S
H25     S56    10.0   .     S
H26     Ce28    10.0   .     S
H26     S55    10.0   .     S
He27     Li23    10.0   1_565     S
He27     Be38    10.001   .     S
He27     S12    10.0   1_554     S
Be29     B34    10.0   .     S
Be29     He47    10.001   .     S
B30     B31    10.0   .     S
B30     B32    10.0   .     S
B30     B33    10.0   .     S
B30     B35    10.0   .     S
B30     Be39    10.0   .     S
B31     B34    10.0   .     S
B31     B35    10.0   .     S
B31     B33    10.0   .     S
B31     Be40    10.0   .     S
B32     B35    10.0   .     S
B32     B33    10.0   .     S
B32     B34    10.0   .     S
B32     Be38    10.0   .     S
B33     B34    10.0   .     S
B33     Be37    10.0   .     S
B34     B35    10.0   .     S
B35     Be36    10.0   .     S
Be37     S7    10.0   1_554     S
Be38     S12    10.0   1_554     S
Be39     He41    10.001   .     S
Be39     S9    10.0   1_554     S
He41     S9    10.0   1_554     S
He41     Li43    10.0   .     S
Er42     H46    10.0   .     S
Er42     Li44    10.0   .     S
Er42     H45    10.0   .     S
Er42     Li43    10.0   .     S
Li43     Ce48    10.0   .     S
Li43     H45    10.0   .     S
Li43     H46    10.001   .     S
Li44     H45    10.001   .     S
Li44     Ce48    10.0   .     S
Li44     H46    10.0   .     S
Li44     He47    10.0   1_545     S
H45     Ce48    10.0   .     S
H45     S58    10.0   .     S
H46     Ce48    10.0   .     S
H46     S57    10.0   .     S
He47     Li44    10.0   1_565     S
V49     Er70    10.0   .     S
V49     V50    10.0   .     S
V49     V51    10.0   .     S
V50     Er90    10.0   .     S
V50     V51    10.0   .     S
V51     Er62    10.0   .     S
Ti52     Ti53    10.0   1_545     S
Ti52     Ti54    10.0   1_445     S
Ti52     Ce76    10.0   .     S
Ti53     Ti52    10.0   1_565     S
Ti53     Ti54    10.0   1_455     S
Ti53     Ce96    10.0   .     S
Ti54     Ti52    10.0   1_665     S
Ti54     Ti53    10.0   1_655     S
Ti54     Ce68    10.0   .     S
S55     He75    10.0   1_554     S
S55     Be77    10.0   1_554     S
S56     He61    10.0   .     S
S56     Be87    10.0   .     S
S57     He69    10.0   .     S
S57     Be85    10.0   .     S
S58     He89    10.0   1_554     S
S58     Be78    10.0   1_554     S
S59     He95    10.0   .     S
S59     Be88    10.0   .     S
S60     He67    10.0   1_554     S
S60     Be86    10.0   1_554     S
He61     Be87    10.001   .     S
He61     Li65    10.0   1_545     S
Er62     H66    10.0   .     S
Er62     Li65    10.0   .     S
Er62     H64    10.0   .     S
Er62     Li63    10.001   .     S
Li63     Ce68    10.0   .     S
Li63     H64    10.0   .     S
Li63     H66    10.001   .     S
Li63     He67    10.0   .     S
H64     Ce68    10.0   .     S
H64     Li65    10.001   .     S
Li65     Ce68    10.0   .     S
Li65     H66    10.0   .     S
Li65     He61    10.0   1_565     S
H66     Ce68    10.0   .     S
He67     Be86    10.001   .     S
He67     S60    10.0   1_556     S
He69     Be85    10.001   .     S
He69     Li72    10.0   .     S
Er70     H73    10.0   .     S
Er70     Li72    10.0   .     S
Er70     H74    10.0   .     S
Er70     Li71    10.0   .     S
Li71     Ce76    10.0   .     S
Li71     H74    10.0   .     S
Li71     H73    10.001   .     S
Li71     He75    10.0   1_455     S
Li72     H74    10.001   .     S
Li72     Ce76    10.0   .     S
Li72     H73    10.0   .     S
H73     Ce76    10.0   .     S
H74     Ce76    10.0   .     S
He75     Li71    10.0   1_655     S
He75     Be77    10.001   .     S
He75     S55    10.0   1_556     S
Be77     S55    10.0   1_556     S
Be77     B81    10.0   .     S
Be78     B84    10.0   .     S
Be78     He89    10.001   .     S
Be78     S58    10.0   1_556     S
B79     B82    10.0   .     S
B79     B81    10.0   .     S
B79     B83    10.0   .     S
B79     B84    10.0   .     S
B79     Be86    10.0   .     S
B80     B81    10.0   .     S
B80     B83    10.0   .     S
B80     B82    10.0   .     S
B80     B84    10.0   .     S
B80     Be87    10.0   .     S
B81     B84    10.0   .     S
B81     B82    10.0   .     S
B82     B83    10.0   .     S
B82     Be88    10.0   .     S
B83     B84    10.0   .     S
B83     Be85    10.0   .     S
Be86     S60    10.0   1_556     S
Be88     He95    10.001   .     S
He89     S58    10.0   1_556     S
He89     Li92    10.0   1_545     S
Er90     H93    10.0   .     S
Er90     Li91    10.0   .     S
Er90     H94    10.0   .     S
Er90     Li92    10.0   .     S
Li91     Ce96    10.0   .     S
Li91     H93    10.0   .     S
Li91     H94    10.001   .     S
Li91     He95    10.0   1_455     S
Li92     H93    10.001   .     S
Li92     Ce96    10.0   .     S
Li92     H94    10.0   .     S
Li92     He89    10.0   1_565     S
H93     Ce96    10.0   .     S
H94     Ce96    10.0   .     S
He95     Li91    10.0   1_655     S
