data_qrf
_audit_creation_date              2020-02-04
_audit_creation_method            'Pymatgen'
_symmetry_space_group_name_H-M    'P1'
_symmetry_Int_Tables_number       1
loop_
_symmetry_equiv_pos_as_xyz
  x,y,z
_cell_length_a                    60.1159
_cell_length_b                    19.6498
_cell_length_c                    34.9249
_cell_angle_alpha                 90.0
_cell_angle_beta                 90.0
_cell_angle_gamma                 90.0
loop_
_atom_site_label
_atom_site_type_symbol
_atom_site_fract_x
_atom_site_fract_y
_atom_site_fract_z
Er1     Er     0.916   0.25   0.0
Er2     Er     0.916   0.75   0.0
V3     V     0.7912   0.4167   0.8759
V4     V     0.7912   0.9167   0.8759
V5     V     0.7912   0.0833   0.1241
V6     V     0.7912   0.5833   0.1241
Er7     Er     0.584   0.25   0.5
Er8     Er     0.584   0.75   0.5
V9     V     0.7088   0.0833   0.3759
V10     V     0.7088   0.5833   0.3759
V11     V     0.7088   0.4167   0.6241
V12     V     0.7088   0.9167   0.6241
Er13     Er     0.084   0.25   0.0
Er14     Er     0.084   0.75   0.0
V15     V     0.2088   0.4167   0.8759
V16     V     0.2088   0.9167   0.8759
V17     V     0.2088   0.0833   0.1241
V18     V     0.2088   0.5833   0.1241
Er19     Er     0.416   0.25   0.5
Er20     Er     0.416   0.75   0.5
V21     V     0.2912   0.4167   0.6241
V22     V     0.2912   0.9167   0.6241
V23     V     0.2912   0.0833   0.3759
V24     V     0.2912   0.5833   0.3759
loop_
_geom_bond_atom_site_label_1
_geom_bond_atom_site_label_2
_geom_bond_distance
_geom_bond_site_symmetry_2
_ccdc_geom_bond_type
Er1     Er13    10.095   1_655     S
Er1     V4    10.863   1_544     S
Er1     V6    10.863   .     S
Er1     V3    9.264   1_554     S
Er1     V5    9.264   .     S
Er1     Er2    9.825   1_545     S
Er1     Er2    9.825   .     S
Er2     Er14    10.095   1_655     S
Er2     V3    10.863   1_554     S
Er2     V5    10.863   1_565     S
Er2     V4    9.264   1_554     S
Er2     V6    9.264   .     S
Er2     Er1    9.825   1_565     S
V3     V11    10.094   .     S
V3     Er2    10.863   1_556     S
V3     V5    10.864   1_556     S
V3     V6    9.265   1_556     S
V3     Er1    9.264   1_556     S
V3     V4    9.825   1_545     S
V3     V4    9.825   .     S
V4     V12    10.094   .     S
V4     Er1    10.863   1_566     S
V4     V6    10.864   1_556     S
V4     V5    9.265   1_566     S
V4     Er2    9.264   1_556     S
V4     V3    9.825   1_565     S
V5     V9    10.094   .     S
V5     Er2    10.863   1_545     S
V5     V3    10.864   1_554     S
V5     V4    9.265   1_544     S
V5     V6    9.825   .     S
V5     V6    9.825   1_545     S
V6     V10    10.094   .     S
V6     V4    10.864   1_554     S
V6     V3    9.265   1_554     S
V6     V5    9.825   1_565     S
Er7     Er19    10.095   .     S
Er7     V12    10.863   1_545     S
Er7     V10    10.863   .     S
Er7     V9    9.264   .     S
Er7     V11    9.264   .     S
Er7     Er8    9.825   1_545     S
Er7     Er8    9.825   .     S
Er8     Er20    10.095   .     S
Er8     V11    10.863   .     S
Er8     V9    10.863   1_565     S
Er8     V10    9.264   .     S
Er8     V12    9.264   .     S
Er8     Er7    9.825   1_565     S
V9     V11    10.864   .     S
V9     Er8    10.863   1_545     S
V9     V12    9.265   1_545     S
V9     V10    9.825   .     S
V9     V10    9.825   1_545     S
V10     V12    10.864   .     S
V10     V11    9.265   .     S
V10     V9    9.825   1_565     S
V11     V12    9.825   1_545     S
V11     V12    9.825   .     S
V12     Er7    10.863   1_565     S
V12     V9    9.265   1_565     S
V12     V11    9.825   1_565     S
Er13     Er1    10.095   1_455     S
Er13     V16    10.863   1_544     S
Er13     V18    10.863   .     S
Er13     V15    9.264   1_554     S
Er13     V17    9.264   .     S
Er13     Er14    9.825   1_545     S
Er13     Er14    9.825   .     S
Er14     Er2    10.095   1_455     S
Er14     V15    10.863   1_554     S
Er14     V17    10.863   1_565     S
Er14     V16    9.264   1_554     S
Er14     V18    9.264   .     S
Er14     Er13    9.825   1_565     S
V15     V21    10.094   .     S
V15     Er14    10.863   1_556     S
V15     V17    10.864   1_556     S
V15     V18    9.265   1_556     S
V15     Er13    9.264   1_556     S
V15     V16    9.825   1_545     S
V15     V16    9.825   .     S
V16     V22    10.094   .     S
V16     Er13    10.863   1_566     S
V16     V18    10.864   1_556     S
V16     V17    9.265   1_566     S
V16     Er14    9.264   1_556     S
V16     V15    9.825   1_565     S
V17     V23    10.094   .     S
V17     Er14    10.863   1_545     S
V17     V15    10.864   1_554     S
V17     V16    9.265   1_544     S
V17     V18    9.825   .     S
V17     V18    9.825   1_545     S
V18     V24    10.094   .     S
V18     V16    10.864   1_554     S
V18     V15    9.265   1_554     S
V18     V17    9.825   1_565     S
Er19     V24    10.863   .     S
Er19     V22    10.863   1_545     S
Er19     V23    9.264   .     S
Er19     V21    9.264   .     S
Er19     Er20    9.825   1_545     S
Er19     Er20    9.825   .     S
Er20     V23    10.863   1_565     S
Er20     V21    10.863   .     S
Er20     V24    9.264   .     S
Er20     V22    9.264   .     S
Er20     Er19    9.825   1_565     S
V21     V23    10.864   .     S
V21     V24    9.265   .     S
V21     V22    9.825   1_545     S
V21     V22    9.825   .     S
V22     V24    10.864   .     S
V22     Er19    10.863   1_565     S
V22     V23    9.265   1_565     S
V22     V21    9.825   1_565     S
V23     Er20    10.863   1_545     S
V23     V22    9.265   1_545     S
V23     V24    9.825   .     S
V23     V24    9.825   1_545     S
V24     V23    9.825   1_565     S
