data_qsm
_audit_creation_date              2020-02-04
_audit_creation_method            'Pymatgen'
_symmetry_space_group_name_H-M    'P1'
_symmetry_Int_Tables_number       1
loop_
_symmetry_equiv_pos_as_xyz
  x,y,z
_cell_length_a                    61.4906
_cell_length_b                    61.4906
_cell_length_c                    19.7997
_cell_angle_alpha                 90.0
_cell_angle_beta                 90.0
_cell_angle_gamma                 120.0
loop_
_atom_site_label
_atom_site_type_symbol
_atom_site_fract_x
_atom_site_fract_y
_atom_site_fract_z
Er1     Er     0.243   0.3333   0.8333
Er2     Er     0.0904   0.3333   0.8333
Er3     Er     0.3333   0.243   0.1667
Er4     Er     0.3333   0.0904   0.1667
V5     V     0.3333   0.253   0.6667
V6     V     0.253   0.3333   0.3333
V7     V     0.4137   0.4137   0.0
Er8     Er     0.4237   0.4237   0.5
Er9     Er     0.5763   0.5763   0.5
Er10     Er     0.9096   0.6667   0.1667
Er11     Er     0.757   0.6667   0.1667
Er12     Er     0.6667   0.9096   0.8333
Er13     Er     0.6667   0.757   0.8333
V14     V     0.5863   0.5863   0.0
V15     V     0.6667   0.747   0.3333
V16     V     0.747   0.6667   0.6667
Er17     Er     0.243   0.9096   0.8333
Er18     Er     0.0904   0.757   0.8333
V19     V     0.0   0.5863   0.0
V20     V     0.0804   0.747   0.3333
V21     V     0.9196   0.6667   0.6667
Er22     Er     0.0   0.4237   0.5
Er23     Er     0.0   0.5763   0.5
V24     V     0.9196   0.253   0.6667
V25     V     0.0   0.4137   0.0
V26     V     0.0804   0.3333   0.3333
Er27     Er     0.9096   0.243   0.1667
Er28     Er     0.757   0.0904   0.1667
V29     V     0.253   0.9196   0.3333
V30     V     0.4137   0.0   0.0
V31     V     0.3333   0.0804   0.6667
Er32     Er     0.4237   0.0   0.5
Er33     Er     0.5763   0.0   0.5
V34     V     0.5863   0.0   0.0
V35     V     0.6667   0.9196   0.3333
V36     V     0.747   0.0804   0.6667
loop_
_geom_bond_atom_site_label_1
_geom_bond_atom_site_label_2
_geom_bond_distance
_geom_bond_site_symmetry_2
_ccdc_geom_bond_type
Er1     Er2    9.383   .     S
Er1     V6    9.919   .     S
Er1     V6    9.919   1_556     S
Er1     V7    9.678   1_556     S
Er1     V5    9.678   .     S
Er2     V26    9.919   .     S
Er2     V26    9.919   1_556     S
Er2     V24    9.678   1_455     S
Er2     V25    9.678   1_556     S
Er3     Er4    9.383   .     S
Er3     V5    9.919   1_554     S
Er3     V5    9.919   .     S
Er3     V7    9.678   .     S
Er3     V6    9.678   .     S
Er4     V31    9.919   1_554     S
Er4     V31    9.919   .     S
Er4     V29    9.678   1_545     S
Er4     V30    9.678   .     S
V5     Er3    9.919   1_556     S
V5     V7    10.809   1_556     S
V5     V6    10.809   .     S
V5     Er8    9.678   .     S
V5     V31    10.612   .     S
V6     Er1    9.919   1_554     S
V6     V7    10.809   .     S
V6     Er8    9.678   .     S
V6     V26    10.612   .     S
V7     Er8    9.919   1_554     S
V7     Er8    9.919   .     S
V7     V5    10.809   1_554     S
V7     Er1    9.678   1_554     S
V7     V14    10.612   .     S
Er8     Er9    9.383   .     S
Er8     V7    9.919   1_556     S
Er9     V14    9.919   1_556     S
Er9     V14    9.919   .     S
Er9     V15    9.678   .     S
Er9     V16    9.678   .     S
Er10     Er11    9.383   .     S
Er10     V21    9.919   1_554     S
Er10     V21    9.919   .     S
Er10     V20    9.678   1_655     S
Er10     V19    9.678   1_655     S
Er11     V16    9.919   1_554     S
Er11     V16    9.919   .     S
Er11     V14    9.678   .     S
Er11     V15    9.678   .     S
Er12     Er13    9.383   .     S
Er12     V35    9.919   1_556     S
Er12     V35    9.919   .     S
Er12     V36    9.678   1_565     S
Er12     V34    9.678   1_566     S
Er13     V15    9.919   .     S
Er13     V15    9.919   1_556     S
Er13     V14    9.678   1_556     S
Er13     V16    9.678   .     S
V14     Er9    9.919   1_554     S
V14     V16    10.809   1_554     S
V14     V15    10.809   .     S
V14     Er13    9.678   1_554     S
V15     Er13    9.919   1_554     S
V15     V16    10.809   .     S
V15     V35    10.612   .     S
V16     Er11    9.919   1_556     S
V16     V14    10.809   1_556     S
V16     V21    10.612   .     S
Er17     Er18    9.383   .     S
Er17     V29    9.919   .     S
Er17     V29    9.919   1_556     S
Er17     V30    9.678   1_566     S
Er17     V31    9.678   1_565     S
Er18     V20    9.919   1_556     S
Er18     V20    9.919   .     S
Er18     V19    9.678   1_556     S
Er18     V21    9.678   1_455     S
V19     Er23    9.919   1_554     S
V19     Er23    9.919   .     S
V19     V21    10.809   1_454     S
V19     V20    10.809   .     S
V19     Er18    9.678   1_554     S
V19     Er10    9.678   1_455     S
V19     V25    10.612   .     S
V20     Er18    9.919   1_554     S
V20     V21    10.809   1_455     S
V20     Er10    9.678   1_455     S
V20     Er23    9.678   .     S
V20     V29    10.612   .     S
V21     Er10    9.919   1_556     S
V21     V19    10.809   1_656     S
V21     V20    10.809   1_655     S
V21     Er18    9.678   1_655     S
V21     Er23    9.678   1_655     S
Er22     Er23    9.383   .     S
Er22     V25    9.919   .     S
Er22     V25    9.919   1_556     S
Er22     V26    9.678   .     S
Er22     V24    9.678   1_455     S
Er23     V19    9.919   1_556     S
Er23     V21    9.678   1_455     S
V24     Er27    9.919   .     S
V24     Er27    9.919   1_556     S
V24     V26    10.809   1_655     S
V24     V25    10.809   1_656     S
V24     Er22    9.678   1_655     S
V24     Er2    9.678   1_655     S
V24     V36    10.612   .     S
V25     Er22    9.919   1_554     S
V25     V26    10.809   .     S
V25     V24    10.809   1_454     S
V25     Er27    9.678   1_455     S
V25     Er2    9.678   1_554     S
V26     Er2    9.919   1_554     S
V26     V24    10.809   1_455     S
V26     Er27    9.678   1_455     S
Er27     Er28    9.383   .     S
Er27     V24    9.919   1_554     S
Er27     V25    9.678   1_655     S
Er27     V26    9.678   1_655     S
Er28     V36    9.919   1_554     S
Er28     V36    9.919   .     S
Er28     V34    9.678   .     S
Er28     V35    9.678   1_545     S
V29     Er17    9.919   1_554     S
V29     V31    10.809   1_565     S
V29     V30    10.809   1_565     S
V29     Er32    9.678   1_565     S
V29     Er4    9.678   1_565     S
V30     Er32    9.919   1_554     S
V30     Er32    9.919   .     S
V30     V31    10.809   1_554     S
V30     V29    10.809   1_545     S
V30     Er17    9.678   1_544     S
V30     V34    10.612   .     S
V31     Er4    9.919   1_556     S
V31     V30    10.809   1_556     S
V31     V29    10.809   1_545     S
V31     Er17    9.678   1_545     S
V31     Er32    9.678   .     S
Er32     Er33    9.383   .     S
Er32     V30    9.919   1_556     S
Er32     V29    9.678   1_545     S
Er33     V34    9.919   1_556     S
Er33     V34    9.919   .     S
Er33     V35    9.678   1_545     S
Er33     V36    9.678   .     S
V34     Er33    9.919   1_554     S
V34     V36    10.809   1_554     S
V34     V35    10.809   1_545     S
V34     Er12    9.678   1_544     S
V35     Er12    9.919   1_554     S
V35     V34    10.809   1_565     S
V35     V36    10.809   1_565     S
V35     Er28    9.678   1_565     S
V35     Er33    9.678   1_565     S
V36     Er28    9.919   1_556     S
V36     V34    10.809   1_556     S
V36     V35    10.809   1_545     S
V36     Er12    9.678   1_545     S
