data_qtza
_audit_creation_date              2020-02-04
_audit_creation_method            'Pymatgen'
_symmetry_space_group_name_H-M    'P1'
_symmetry_Int_Tables_number       1
loop_
_symmetry_equiv_pos_as_xyz
  x,y,z
_cell_length_a                    35.7072
_cell_length_b                    35.7072
_cell_length_c                    38.4085
_cell_angle_alpha                 90.0
_cell_angle_beta                 90.0
_cell_angle_gamma                 120.0
loop_
_atom_site_label
_atom_site_type_symbol
_atom_site_fract_x
_atom_site_fract_y
_atom_site_fract_z
V1     V     0.5418   0.6562   0.2413
V2     V     0.3438   0.4582   0.4254
V3     V     0.4582   0.3438   0.2413
V4     V     0.6562   0.5418   0.4254
V5     V     0.3438   0.8857   0.908
V6     V     0.5418   0.8857   0.0921
V7     V     0.6562   0.1143   0.908
V8     V     0.4582   0.1143   0.0921
V9     V     0.8857   0.5418   0.5746
V10     V     0.8857   0.3438   0.7587
V11     V     0.1143   0.6562   0.7587
V12     V     0.1143   0.4582   0.5746
loop_
_geom_bond_atom_site_label_1
_geom_bond_atom_site_label_2
_geom_bond_distance
_geom_bond_site_symmetry_2
_ccdc_geom_bond_type
V1     V6    10.0   .     S
V1     V2    10.0   .     S
V1     V3    10.0   .     S
V1     V4    10.0   .     S
V2     V3    10.0   .     S
V2     V4    10.0   .     S
V2     V12    10.0   .     S
V3     V4    10.0   .     S
V3     V8    10.0   .     S
V4     V9    10.0   .     S
V5     V11    10.0   .     S
V5     V6    10.0   1_556     S
V5     V7    10.0   1_565     S
V5     V8    10.0   1_566     S
V6     V5    10.0   1_554     S
V6     V7    10.0   1_564     S
V6     V8    10.0   1_565     S
V7     V10    10.0   .     S
V7     V8    10.0   1_556     S
V7     V6    10.0   1_546     S
V7     V5    10.0   1_545     S
V8     V7    10.0   1_554     S
V8     V5    10.0   1_544     S
V8     V6    10.0   1_545     S
V9     V10    10.0   .     S
V9     V11    10.0   1_655     S
V9     V12    10.0   1_655     S
V10     V12    10.0   1_655     S
V10     V11    10.0   1_655     S
V11     V9    10.0   1_455     S
V11     V12    10.0   .     S
V11     V10    10.0   1_455     S
V12     V10    10.0   1_455     S
V12     V9    10.0   1_455     S
