data_rab
_audit_creation_date              2020-02-04
_audit_creation_method            'Pymatgen'
_symmetry_space_group_name_H-M    'P1'
_symmetry_Int_Tables_number       1
loop_
_symmetry_equiv_pos_as_xyz
  x,y,z
_cell_length_a                    33.4905
_cell_length_b                    56.9731
_cell_length_c                    58.5914
_cell_angle_alpha                 90.0
_cell_angle_beta                 90.0
_cell_angle_gamma                 90.0
loop_
_atom_site_label
_atom_site_type_symbol
_atom_site_fract_x
_atom_site_fract_y
_atom_site_fract_z
V1     V     0.6215   0.7054   0.7004
V2     V     0.3785   0.7054   0.7996
V3     V     0.1215   0.7946   0.7996
V4     V     0.8785   0.7946   0.7004
Er5     Er     0.549   0.5829   0.4147
Er6     Er     0.451   0.4171   0.4147
Er7     Er     0.549   0.5829   0.5853
Er8     Er     0.451   0.4171   0.5853
Er9     Er     0.951   0.9171   0.4147
Er10     Er     0.049   0.0829   0.4147
Er11     Er     0.951   0.9171   0.5853
Er12     Er     0.049   0.0829   0.5853
V13     V     0.6215   0.2947   0.7996
V14     V     0.3785   0.2947   0.7004
V15     V     0.8785   0.2054   0.7996
V16     V     0.1215   0.2054   0.7004
Er17     Er     0.451   0.5829   0.0853
Er18     Er     0.549   0.4171   0.0853
Er19     Er     0.451   0.5829   0.9147
Er20     Er     0.549   0.4171   0.9147
V21     V     0.6215   0.7054   0.2996
V22     V     0.3785   0.7054   0.2004
V23     V     0.8785   0.7946   0.2996
V24     V     0.1215   0.7946   0.2004
V25     V     0.3785   0.2947   0.2996
V26     V     0.6215   0.2947   0.2004
V27     V     0.1215   0.2054   0.2996
V28     V     0.8785   0.2054   0.2004
Er29     Er     0.049   0.9171   0.0853
Er30     Er     0.951   0.0829   0.0853
Er31     Er     0.049   0.9171   0.9147
Er32     Er     0.951   0.0829   0.9147
loop_
_geom_bond_atom_site_label_1
_geom_bond_atom_site_label_2
_geom_bond_distance
_geom_bond_site_symmetry_2
_ccdc_geom_bond_type
V1     V2    10.0   .     S
V1     V4    10.0   .     S
V1     Er7    10.0   .     S
V2     V3    10.0   .     S
V2     Er19    10.0   .     S
V3     V4    10.0   1_455     S
V3     Er31    10.0   .     S
V4     V3    10.0   1_655     S
V4     Er11    10.0   .     S
Er5     V21    10.0   .     S
Er5     Er6    10.0   .     S
Er5     Er7    10.0   .     S
Er6     V25    10.0   .     S
Er6     Er8    10.0   .     S
Er7     Er8    10.0   .     S
Er8     V14    10.0   .     S
Er9     V23    10.0   .     S
Er9     Er10    10.0   1_665     S
Er9     Er11    10.0   .     S
Er10     V27    10.0   .     S
Er10     Er9    10.0   1_445     S
Er10     Er12    10.0   .     S
Er11     Er12    10.0   1_665     S
Er12     V16    10.0   .     S
Er12     Er11    10.0   1_445     S
V13     V14    10.0   .     S
V13     V15    10.0   .     S
V13     Er20    10.0   .     S
V14     V16    10.0   .     S
V15     V16    10.0   1_655     S
V15     Er32    10.0   .     S
V16     V15    10.0   1_455     S
Er17     V22    10.0   .     S
Er17     Er18    10.0   .     S
Er17     Er19    10.0   1_554     S
Er18     V26    10.0   .     S
Er18     Er20    10.0   1_554     S
Er19     Er20    10.0   .     S
Er19     Er17    10.0   1_556     S
Er20     Er18    10.0   1_556     S
V21     V22    10.0   .     S
V21     V23    10.0   .     S
V22     V24    10.0   .     S
V23     V24    10.0   1_655     S
V24     V23    10.0   1_455     S
V24     Er29    10.0   .     S
V25     V26    10.0   .     S
V25     V27    10.0   .     S
V26     V28    10.0   .     S
V27     V28    10.0   1_455     S
V28     V27    10.0   1_655     S
V28     Er30    10.0   .     S
Er29     Er30    10.0   1_465     S
Er29     Er31    10.0   1_554     S
Er30     Er29    10.0   1_645     S
Er30     Er32    10.0   1_554     S
Er31     Er32    10.0   1_465     S
Er31     Er29    10.0   1_556     S
Er32     Er31    10.0   1_645     S
Er32     Er30    10.0   1_556     S
