data_rac
_audit_creation_date              2020-02-04
_audit_creation_method            'Pymatgen'
_symmetry_space_group_name_H-M    'P1'
_symmetry_Int_Tables_number       1
loop_
_symmetry_equiv_pos_as_xyz
  x,y,z
_cell_length_a                    26.4692
_cell_length_b                    13.0995
_cell_length_c                    29.9752
_cell_angle_alpha                 90.0
_cell_angle_beta                 90.0
_cell_angle_gamma                 90.0
loop_
_atom_site_label
_atom_site_type_symbol
_atom_site_fract_x
_atom_site_fract_y
_atom_site_fract_z
V1     V     0.6073   0.75   0.5832
V2     V     0.8927   0.25   0.5832
V3     V     0.6073   0.75   0.9168
V4     V     0.8927   0.25   0.9168
V5     V     0.3927   0.25   0.4168
V6     V     0.1073   0.75   0.4168
V7     V     0.3927   0.25   0.0832
V8     V     0.1073   0.75   0.0832
loop_
_geom_bond_atom_site_label_1
_geom_bond_atom_site_label_2
_geom_bond_distance
_geom_bond_site_symmetry_2
_ccdc_geom_bond_type
V1     V2    9.999   1_565     S
V1     V3    10.0   .     S
V1     V2    10.0   .     S
V1     V5    10.0   1_565     S
V2     V1    9.999   1_545     S
V2     V4    10.0   .     S
V2     V6    10.0   1_645     S
V3     V4    9.999   .     S
V3     V4    10.0   1_565     S
V3     V7    10.0   1_556     S
V4     V3    10.0   1_545     S
V4     V8    10.0   1_656     S
V5     V6    9.999   1_545     S
V5     V7    10.0   .     S
V5     V6    10.0   .     S
V5     V1    10.0   1_545     S
V6     V5    9.999   1_565     S
V6     V8    10.0   .     S
V6     V2    10.0   1_465     S
V7     V8    9.999   .     S
V7     V8    10.0   1_545     S
V7     V3    10.0   1_554     S
V8     V7    10.0   1_565     S
V8     V4    10.0   1_454     S
