data_rhp
_audit_creation_date              2020-02-04
_audit_creation_method            'Pymatgen'
_symmetry_space_group_name_H-M    'P1'
_symmetry_Int_Tables_number       1
loop_
_symmetry_equiv_pos_as_xyz
  x,y,z
_cell_length_a                    88.2841
_cell_length_b                    88.2841
_cell_length_c                    88.2841
_cell_angle_alpha                 90.0
_cell_angle_beta                 90.0
_cell_angle_gamma                 90.0
loop_
_atom_site_label
_atom_site_type_symbol
_atom_site_fract_x
_atom_site_fract_y
_atom_site_fract_z
Er1     Er     0.5566   0.75   0.9434
V2     V     0.6699   0.75   0.9434
V3     V     0.75   0.6699   0.9434
Er4     Er     0.75   0.5566   0.9434
Er5     Er     0.75   0.4434   0.9434
V6     V     0.75   0.3301   0.9434
V7     V     0.6699   0.25   0.9434
Er8     Er     0.5566   0.25   0.9434
Er9     Er     0.4434   0.25   0.9434
V10     V     0.3301   0.25   0.9434
V11     V     0.25   0.3301   0.9434
Er12     Er     0.25   0.4434   0.9434
Er13     Er     0.4434   0.75   0.9434
Er14     Er     0.25   0.5566   0.9434
V15     V     0.3301   0.75   0.9434
V16     V     0.25   0.6699   0.9434
Er17     Er     0.5566   0.9434   0.75
V18     V     0.6699   0.9434   0.75
V19     V     0.75   0.9434   0.6699
Er20     Er     0.75   0.9434   0.5566
Er21     Er     0.75   0.9434   0.4434
V22     V     0.75   0.9434   0.3301
V23     V     0.6699   0.9434   0.25
Er24     Er     0.5566   0.9434   0.25
Er25     Er     0.4434   0.9434   0.75
V26     V     0.3301   0.9434   0.75
V27     V     0.25   0.9434   0.6699
Er28     Er     0.25   0.9434   0.5566
Er29     Er     0.4434   0.9434   0.25
Er30     Er     0.25   0.9434   0.4434
V31     V     0.3301   0.9434   0.25
V32     V     0.25   0.9434   0.3301
Er33     Er     0.9434   0.4434   0.75
V34     V     0.9434   0.3301   0.75
V35     V     0.9434   0.25   0.6699
Er36     Er     0.9434   0.25   0.5566
Er37     Er     0.9434   0.25   0.4434
V38     V     0.9434   0.25   0.3301
V39     V     0.9434   0.3301   0.25
Er40     Er     0.9434   0.4434   0.25
Er41     Er     0.9434   0.5566   0.75
V42     V     0.9434   0.6699   0.75
V43     V     0.9434   0.75   0.6699
Er44     Er     0.9434   0.75   0.5566
Er45     Er     0.9434   0.5566   0.25
Er46     Er     0.9434   0.75   0.4434
V47     V     0.9434   0.6699   0.25
V48     V     0.9434   0.75   0.3301
Er49     Er     0.4434   0.0566   0.75
V50     V     0.3301   0.0566   0.75
V51     V     0.25   0.0566   0.6699
Er52     Er     0.25   0.0566   0.5566
Er53     Er     0.25   0.0566   0.4434
V54     V     0.25   0.0566   0.3301
V55     V     0.3301   0.0566   0.25
Er56     Er     0.4434   0.0566   0.25
Er57     Er     0.5566   0.0566   0.25
V58     V     0.6699   0.0566   0.25
V59     V     0.75   0.0566   0.3301
Er60     Er     0.75   0.0566   0.4434
Er61     Er     0.75   0.0566   0.5566
Er62     Er     0.5566   0.0566   0.75
V63     V     0.75   0.0566   0.6699
V64     V     0.6699   0.0566   0.75
Er65     Er     0.4434   0.25   0.0566
V66     V     0.3301   0.25   0.0566
V67     V     0.25   0.3301   0.0566
Er68     Er     0.25   0.4434   0.0566
Er69     Er     0.25   0.5566   0.0566
V70     V     0.25   0.6699   0.0566
V71     V     0.3301   0.75   0.0566
Er72     Er     0.4434   0.75   0.0566
Er73     Er     0.5566   0.75   0.0566
V74     V     0.6699   0.75   0.0566
V75     V     0.75   0.6699   0.0566
Er76     Er     0.75   0.5566   0.0566
Er77     Er     0.75   0.4434   0.0566
Er78     Er     0.5566   0.25   0.0566
V79     V     0.75   0.3301   0.0566
V80     V     0.6699   0.25   0.0566
V81     V     0.25   0.1699   0.5566
V82     V     0.1699   0.25   0.5566
V83     V     0.25   0.1699   0.4434
V84     V     0.1699   0.25   0.4434
V85     V     0.1699   0.75   0.5566
V86     V     0.25   0.8301   0.5566
V87     V     0.1699   0.75   0.4434
V88     V     0.25   0.8301   0.4434
V89     V     0.75   0.1699   0.5566
V90     V     0.8301   0.25   0.5566
V91     V     0.75   0.1699   0.4434
V92     V     0.8301   0.25   0.4434
V93     V     0.5566   0.75   0.1699
V94     V     0.5566   0.8301   0.25
V95     V     0.4434   0.75   0.1699
V96     V     0.4434   0.8301   0.25
Ti97     Ti     0.3301   0.8301   0.25
Ti98     Ti     0.3301   0.75   0.1699
Ti99     Ti     0.25   0.8301   0.3301
Ti100     Ti     0.1699   0.75   0.3301
Ti101     Ti     0.1699   0.6699   0.25
Ti102     Ti     0.25   0.6699   0.1699
V103     V     0.1699   0.5566   0.25
V104     V     0.25   0.5566   0.1699
V105     V     0.1699   0.4434   0.25
V106     V     0.25   0.4434   0.1699
Ti107     Ti     0.1699   0.3301   0.25
Ti108     Ti     0.25   0.3301   0.1699
Ti109     Ti     0.25   0.1699   0.3301
Ti110     Ti     0.1699   0.25   0.3301
Ti111     Ti     0.3301   0.1699   0.25
Ti112     Ti     0.3301   0.25   0.1699
V113     V     0.4434   0.1699   0.25
V114     V     0.4434   0.25   0.1699
V115     V     0.5566   0.1699   0.25
V116     V     0.5566   0.25   0.1699
Ti117     Ti     0.6699   0.1699   0.25
Ti118     Ti     0.6699   0.25   0.1699
Ti119     Ti     0.8301   0.25   0.3301
Ti120     Ti     0.75   0.1699   0.3301
Ti121     Ti     0.8301   0.3301   0.25
Ti122     Ti     0.75   0.3301   0.1699
V123     V     0.75   0.4434   0.1699
V124     V     0.8301   0.4434   0.25
V125     V     0.75   0.5566   0.1699
V126     V     0.8301   0.5566   0.25
Ti127     Ti     0.6699   0.8301   0.25
Ti128     Ti     0.6699   0.75   0.1699
Ti129     Ti     0.8301   0.6699   0.25
Ti130     Ti     0.75   0.6699   0.1699
Ti131     Ti     0.8301   0.75   0.3301
Ti132     Ti     0.75   0.8301   0.3301
V133     V     0.8301   0.75   0.4434
V134     V     0.75   0.8301   0.4434
V135     V     0.8301   0.75   0.5566
V136     V     0.75   0.8301   0.5566
V137     V     0.4434   0.8301   0.75
V138     V     0.4434   0.75   0.8301
V139     V     0.5566   0.8301   0.75
V140     V     0.5566   0.75   0.8301
Ti141     Ti     0.6699   0.8301   0.75
Ti142     Ti     0.6699   0.75   0.8301
Ti143     Ti     0.8301   0.75   0.6699
Ti144     Ti     0.75   0.8301   0.6699
Ti145     Ti     0.8301   0.6699   0.75
Ti146     Ti     0.75   0.6699   0.8301
V147     V     0.8301   0.5566   0.75
V148     V     0.75   0.5566   0.8301
V149     V     0.8301   0.4434   0.75
V150     V     0.75   0.4434   0.8301
Ti151     Ti     0.8301   0.25   0.6699
Ti152     Ti     0.75   0.1699   0.6699
Ti153     Ti     0.75   0.3301   0.8301
Ti154     Ti     0.8301   0.3301   0.75
Ti155     Ti     0.6699   0.25   0.8301
Ti156     Ti     0.6699   0.1699   0.75
V157     V     0.5566   0.1699   0.75
V158     V     0.5566   0.25   0.8301
V159     V     0.4434   0.1699   0.75
V160     V     0.4434   0.25   0.8301
Ti161     Ti     0.25   0.8301   0.6699
Ti162     Ti     0.1699   0.75   0.6699
Ti163     Ti     0.3301   0.75   0.8301
Ti164     Ti     0.3301   0.8301   0.75
Ti165     Ti     0.25   0.6699   0.8301
Ti166     Ti     0.1699   0.6699   0.75
V167     V     0.1699   0.5566   0.75
V168     V     0.25   0.5566   0.8301
V169     V     0.1699   0.4434   0.75
V170     V     0.25   0.4434   0.8301
Ti171     Ti     0.25   0.1699   0.6699
Ti172     Ti     0.1699   0.25   0.6699
Ti173     Ti     0.3301   0.25   0.8301
Ti174     Ti     0.3301   0.1699   0.75
Ti175     Ti     0.25   0.3301   0.8301
Ti176     Ti     0.1699   0.3301   0.75
Er177     Er     0.0566   0.5566   0.75
V178     V     0.0566   0.6699   0.75
V179     V     0.0566   0.75   0.6699
Er180     Er     0.0566   0.75   0.5566
Er181     Er     0.0566   0.75   0.4434
V182     V     0.0566   0.75   0.3301
V183     V     0.0566   0.6699   0.25
Er184     Er     0.0566   0.5566   0.25
Er185     Er     0.0566   0.4434   0.75
V186     V     0.0566   0.3301   0.75
V187     V     0.0566   0.25   0.6699
Er188     Er     0.0566   0.25   0.5566
Er189     Er     0.0566   0.4434   0.25
Er190     Er     0.0566   0.25   0.4434
V191     V     0.0566   0.3301   0.25
V192     V     0.0566   0.25   0.3301
loop_
_geom_bond_atom_site_label_1
_geom_bond_atom_site_label_2
_geom_bond_distance
_geom_bond_site_symmetry_2
_ccdc_geom_bond_type
Er1     V140    10.0   .     S
Er1     V2    10.0   .     S
Er1     Er13    10.001   .     S
Er1     Er73    10.001   1_556     S
V2     Ti142    10.0   .     S
V2     V3    9.999   .     S
V2     V74    10.001   1_556     S
V3     Ti146    10.0   .     S
V3     Er4    10.0   .     S
V3     V75    10.001   1_556     S
Er4     V148    10.0   .     S
Er4     Er5    10.001   .     S
Er4     Er76    10.001   1_556     S
Er5     V150    10.0   .     S
Er5     V6    10.0   .     S
Er5     Er77    10.001   1_556     S
V6     Ti153    10.0   .     S
V6     V7    9.999   .     S
V6     V79    10.001   1_556     S
V7     Ti155    10.0   .     S
V7     Er8    10.0   .     S
V7     V80    10.001   1_556     S
Er8     V158    10.0   .     S
Er8     Er9    10.001   .     S
Er8     Er78    10.001   1_556     S
Er9     V160    10.0   .     S
Er9     V10    10.0   .     S
Er9     Er65    10.001   1_556     S
V10     Ti173    10.0   .     S
V10     V11    9.999   .     S
V10     V66    10.001   1_556     S
V11     Ti175    10.0   .     S
V11     Er12    10.0   .     S
V11     V67    10.001   1_556     S
Er12     V170    10.0   .     S
Er12     Er14    10.001   .     S
Er12     Er68    10.001   1_556     S
Er13     V138    10.0   .     S
Er13     V15    10.0   .     S
Er13     Er72    10.001   1_556     S
Er14     V168    10.0   .     S
Er14     V16    10.0   .     S
Er14     Er69    10.001   1_556     S
V15     Ti163    10.0   .     S
V15     V16    9.999   .     S
V15     V71    10.001   1_556     S
V16     Ti165    10.0   .     S
V16     V70    10.001   1_556     S
Er17     V139    10.0   .     S
Er17     V18    10.0   .     S
Er17     Er25    10.001   .     S
Er17     Er62    10.001   1_565     S
V18     Ti141    10.0   .     S
V18     V19    9.999   .     S
V18     V64    10.001   1_565     S
V19     Ti144    10.0   .     S
V19     Er20    10.0   .     S
V19     V63    10.001   1_565     S
Er20     V136    10.0   .     S
Er20     Er21    10.001   .     S
Er20     Er61    10.001   1_565     S
Er21     V134    10.0   .     S
Er21     V22    10.0   .     S
Er21     Er60    10.001   1_565     S
V22     Ti132    10.0   .     S
V22     V23    9.999   .     S
V22     V59    10.001   1_565     S
V23     Ti127    10.0   .     S
V23     Er24    10.0   .     S
V23     V58    10.001   1_565     S
Er24     V94    10.0   .     S
Er24     Er29    10.001   .     S
Er24     Er57    10.001   1_565     S
Er25     V137    10.0   .     S
Er25     V26    10.0   .     S
Er25     Er49    10.001   1_565     S
V26     Ti164    10.0   .     S
V26     V27    9.999   .     S
V26     V50    10.001   1_565     S
V27     Ti161    10.0   .     S
V27     Er28    10.0   .     S
V27     V51    10.001   1_565     S
Er28     V86    10.0   .     S
Er28     Er30    10.001   .     S
Er28     Er52    10.001   1_565     S
Er29     V96    10.0   .     S
Er29     V31    10.0   .     S
Er29     Er56    10.001   1_565     S
Er30     V88    10.0   .     S
Er30     V32    10.0   .     S
Er30     Er53    10.001   1_565     S
V31     Ti97    10.0   .     S
V31     V32    9.999   .     S
V31     V55    10.001   1_565     S
V32     Ti99    10.0   .     S
V32     V54    10.001   1_565     S
Er33     V149    10.0   .     S
Er33     V34    10.0   .     S
Er33     Er41    10.001   .     S
Er33     Er185    10.001   1_655     S
V34     Ti154    10.0   .     S
V34     V35    9.999   .     S
V34     V186    10.001   1_655     S
V35     Ti151    10.0   .     S
V35     Er36    10.0   .     S
V35     V187    10.001   1_655     S
Er36     V90    10.0   .     S
Er36     Er37    10.001   .     S
Er36     Er188    10.001   1_655     S
Er37     V92    10.0   .     S
Er37     V38    10.0   .     S
Er37     Er190    10.001   1_655     S
V38     Ti119    10.0   .     S
V38     V39    9.999   .     S
V38     V192    10.001   1_655     S
V39     Ti121    10.0   .     S
V39     Er40    10.0   .     S
V39     V191    10.001   1_655     S
Er40     V124    10.0   .     S
Er40     Er45    10.001   .     S
Er40     Er189    10.001   1_655     S
Er41     V147    10.0   .     S
Er41     V42    10.0   .     S
Er41     Er177    10.001   1_655     S
V42     Ti145    10.0   .     S
V42     V43    9.999   .     S
V42     V178    10.001   1_655     S
V43     Ti143    10.0   .     S
V43     Er44    10.0   .     S
V43     V179    10.001   1_655     S
Er44     V135    10.0   .     S
Er44     Er46    10.001   .     S
Er44     Er180    10.001   1_655     S
Er45     V126    10.0   .     S
Er45     V47    10.0   .     S
Er45     Er184    10.001   1_655     S
Er46     V133    10.0   .     S
Er46     V48    10.0   .     S
Er46     Er181    10.001   1_655     S
V47     Ti129    10.0   .     S
V47     V48    9.999   .     S
V47     V183    10.001   1_655     S
V48     Ti131    10.0   .     S
V48     V182    10.001   1_655     S
Er49     V159    10.0   .     S
Er49     V50    10.0   .     S
Er49     Er62    10.001   .     S
Er49     Er25    10.001   1_545     S
V50     Ti174    10.0   .     S
V50     V51    9.999   .     S
V50     V26    10.001   1_545     S
V51     Ti171    10.0   .     S
V51     Er52    10.0   .     S
V51     V27    10.001   1_545     S
Er52     V81    10.0   .     S
Er52     Er53    10.001   .     S
Er52     Er28    10.001   1_545     S
Er53     V83    10.0   .     S
Er53     V54    10.0   .     S
Er53     Er30    10.001   1_545     S
V54     Ti109    10.0   .     S
V54     V55    9.999   .     S
V54     V32    10.001   1_545     S
V55     Ti111    10.0   .     S
V55     Er56    10.0   .     S
V55     V31    10.001   1_545     S
Er56     V113    10.0   .     S
Er56     Er57    10.001   .     S
Er56     Er29    10.001   1_545     S
Er57     V115    10.0   .     S
Er57     V58    10.0   .     S
Er57     Er24    10.001   1_545     S
V58     Ti117    10.0   .     S
V58     V59    9.999   .     S
V58     V23    10.001   1_545     S
V59     Ti120    10.0   .     S
V59     Er60    10.0   .     S
V59     V22    10.001   1_545     S
Er60     V91    10.0   .     S
Er60     Er61    10.001   .     S
Er60     Er21    10.001   1_545     S
Er61     V89    10.0   .     S
Er61     V63    10.0   .     S
Er61     Er20    10.001   1_545     S
Er62     V157    10.0   .     S
Er62     V64    10.0   .     S
Er62     Er17    10.001   1_545     S
V63     Ti152    10.0   .     S
V63     V64    9.999   .     S
V63     V19    10.001   1_545     S
V64     Ti156    10.0   .     S
V64     V18    10.001   1_545     S
Er65     V114    10.0   .     S
Er65     V66    10.0   .     S
Er65     Er78    10.001   .     S
Er65     Er9    10.001   1_554     S
V66     Ti112    10.0   .     S
V66     V67    9.999   .     S
V66     V10    10.001   1_554     S
V67     Ti108    10.0   .     S
V67     Er68    10.0   .     S
V67     V11    10.001   1_554     S
Er68     V106    10.0   .     S
Er68     Er69    10.001   .     S
Er68     Er12    10.001   1_554     S
Er69     V104    10.0   .     S
Er69     V70    10.0   .     S
Er69     Er14    10.001   1_554     S
V70     Ti102    10.0   .     S
V70     V71    9.999   .     S
V70     V16    10.001   1_554     S
V71     Ti98    10.0   .     S
V71     Er72    10.0   .     S
V71     V15    10.001   1_554     S
Er72     V95    10.0   .     S
Er72     Er73    10.001   .     S
Er72     Er13    10.001   1_554     S
Er73     V93    10.0   .     S
Er73     V74    10.0   .     S
Er73     Er1    10.001   1_554     S
V74     Ti128    10.0   .     S
V74     V75    9.999   .     S
V74     V2    10.001   1_554     S
V75     Ti130    10.0   .     S
V75     Er76    10.0   .     S
V75     V3    10.001   1_554     S
Er76     V125    10.0   .     S
Er76     Er77    10.001   .     S
Er76     Er4    10.001   1_554     S
Er77     V123    10.0   .     S
Er77     V79    10.0   .     S
Er77     Er5    10.001   1_554     S
Er78     V116    10.0   .     S
Er78     V80    10.0   .     S
Er78     Er8    10.001   1_554     S
V79     Ti122    10.0   .     S
V79     V80    9.999   .     S
V79     V6    10.001   1_554     S
V80     Ti118    10.0   .     S
V80     V7    10.001   1_554     S
V81     Ti171    10.0   .     S
V81     V82    9.999   .     S
V81     V83    10.001   .     S
V82     Ti172    10.0   .     S
V82     V84    10.001   .     S
V82     Er188    10.0   .     S
V83     Ti109    10.0   .     S
V83     V84    9.999   .     S
V84     Ti110    10.0   .     S
V84     Er190    10.0   .     S
V85     Ti162    10.0   .     S
V85     V86    9.999   .     S
V85     V87    10.001   .     S
V85     Er180    10.0   .     S
V86     Ti161    10.0   .     S
V86     V88    10.001   .     S
V87     Ti100    10.0   .     S
V87     V88    9.999   .     S
V87     Er181    10.0   .     S
V88     Ti99    10.0   .     S
V89     Ti152    10.0   .     S
V89     V90    9.999   .     S
V89     V91    10.001   .     S
V90     Ti151    10.0   .     S
V90     V92    10.001   .     S
V91     Ti120    10.0   .     S
V91     V92    9.999   .     S
V92     Ti119    10.0   .     S
V93     Ti128    10.0   .     S
V93     V94    9.999   .     S
V93     V95    10.001   .     S
V94     Ti127    10.0   .     S
V94     V96    10.001   .     S
V95     Ti98    10.0   .     S
V95     V96    9.999   .     S
V96     Ti97    10.0   .     S
Ti97     Ti98    9.999   .     S
Ti97     Ti99    9.999   .     S
Ti98     Ti102    9.999   .     S
Ti99     Ti100    9.999   .     S
Ti100     Ti101    9.999   .     S
Ti100     V182    10.0   .     S
Ti101     Ti102    9.999   .     S
Ti101     V103    10.0   .     S
Ti101     V183    10.0   .     S
Ti102     V104    10.0   .     S
V103     V104    9.999   .     S
V103     V105    10.001   .     S
V103     Er184    10.0   .     S
V104     V106    10.001   .     S
V105     Ti107    10.0   .     S
V105     V106    9.999   .     S
V105     Er189    10.0   .     S
V106     Ti108    10.0   .     S
Ti107     Ti108    9.999   .     S
Ti107     Ti110    9.999   .     S
Ti107     V191    10.0   .     S
Ti108     Ti112    9.999   .     S
Ti109     Ti110    9.999   .     S
Ti109     Ti111    9.999   .     S
Ti110     V192    10.0   .     S
Ti111     Ti112    9.999   .     S
Ti111     V113    10.0   .     S
Ti112     V114    10.0   .     S
V113     V114    9.999   .     S
V113     V115    10.001   .     S
V114     V116    10.001   .     S
V115     Ti117    10.0   .     S
V115     V116    9.999   .     S
V116     Ti118    10.0   .     S
Ti117     Ti118    9.999   .     S
Ti117     Ti120    9.999   .     S
Ti118     Ti122    9.999   .     S
Ti119     Ti120    9.999   .     S
Ti119     Ti121    9.999   .     S
Ti121     Ti122    9.999   .     S
Ti121     V124    10.0   .     S
Ti122     V123    10.0   .     S
V123     V124    9.999   .     S
V123     V125    10.001   .     S
V124     V126    10.001   .     S
V125     Ti130    10.0   .     S
V125     V126    9.999   .     S
V126     Ti129    10.0   .     S
Ti127     Ti128    9.999   .     S
Ti127     Ti132    9.999   .     S
Ti128     Ti130    9.999   .     S
Ti129     Ti130    9.999   .     S
Ti129     Ti131    9.999   .     S
Ti131     Ti132    9.999   .     S
Ti131     V133    10.0   .     S
Ti132     V134    10.0   .     S
V133     V134    9.999   .     S
V133     V135    10.001   .     S
V134     V136    10.001   .     S
V135     Ti143    10.0   .     S
V135     V136    9.999   .     S
V136     Ti144    10.0   .     S
V137     Ti164    10.0   .     S
V137     V138    9.999   .     S
V137     V139    10.001   .     S
V138     Ti163    10.0   .     S
V138     V140    10.001   .     S
V139     Ti141    10.0   .     S
V139     V140    9.999   .     S
V140     Ti142    10.0   .     S
Ti141     Ti142    9.999   .     S
Ti141     Ti144    9.999   .     S
Ti142     Ti146    9.999   .     S
Ti143     Ti144    9.999   .     S
Ti143     Ti145    9.999   .     S
Ti145     Ti146    9.999   .     S
Ti145     V147    10.0   .     S
Ti146     V148    10.0   .     S
V147     V148    9.999   .     S
V147     V149    10.001   .     S
V148     V150    10.001   .     S
V149     Ti154    10.0   .     S
V149     V150    9.999   .     S
V150     Ti153    10.0   .     S
Ti151     Ti152    9.999   .     S
Ti151     Ti154    9.999   .     S
Ti152     Ti156    9.999   .     S
Ti153     Ti154    9.999   .     S
Ti153     Ti155    9.999   .     S
Ti155     Ti156    9.999   .     S
Ti155     V158    10.0   .     S
Ti156     V157    10.0   .     S
V157     V158    9.999   .     S
V157     V159    10.001   .     S
V158     V160    10.001   .     S
V159     Ti174    10.0   .     S
V159     V160    9.999   .     S
V160     Ti173    10.0   .     S
Ti161     Ti162    9.999   .     S
Ti161     Ti164    9.999   .     S
Ti162     Ti166    9.999   .     S
Ti162     V179    10.0   .     S
Ti163     Ti164    9.999   .     S
Ti163     Ti165    9.999   .     S
Ti165     Ti166    9.999   .     S
Ti165     V168    10.0   .     S
Ti166     V167    10.0   .     S
Ti166     V178    10.0   .     S
V167     V168    9.999   .     S
V167     V169    10.001   .     S
V167     Er177    10.0   .     S
V168     V170    10.001   .     S
V169     Ti176    10.0   .     S
V169     V170    9.999   .     S
V169     Er185    10.0   .     S
V170     Ti175    10.0   .     S
Ti171     Ti172    9.999   .     S
Ti171     Ti174    9.999   .     S
Ti172     Ti176    9.999   .     S
Ti172     V187    10.0   .     S
Ti173     Ti174    9.999   .     S
Ti173     Ti175    9.999   .     S
Ti175     Ti176    9.999   .     S
Ti176     V186    10.0   .     S
Er177     V178    10.0   .     S
Er177     Er185    10.001   .     S
Er177     Er41    10.001   1_455     S
V178     V179    9.999   .     S
V178     V42    10.001   1_455     S
V179     Er180    10.0   .     S
V179     V43    10.001   1_455     S
Er180     Er181    10.001   .     S
Er180     Er44    10.001   1_455     S
Er181     V182    10.0   .     S
Er181     Er46    10.001   1_455     S
V182     V183    9.999   .     S
V182     V48    10.001   1_455     S
V183     Er184    10.0   .     S
V183     V47    10.001   1_455     S
Er184     Er189    10.001   .     S
Er184     Er45    10.001   1_455     S
Er185     V186    10.0   .     S
Er185     Er33    10.001   1_455     S
V186     V187    9.999   .     S
V186     V34    10.001   1_455     S
V187     Er188    10.0   .     S
V187     V35    10.001   1_455     S
Er188     Er190    10.001   .     S
Er188     Er36    10.001   1_455     S
Er189     V191    10.0   .     S
Er189     Er40    10.001   1_455     S
Er190     V192    10.0   .     S
Er190     Er37    10.001   1_455     S
V191     V192    9.999   .     S
V191     V39    10.001   1_455     S
V192     V38    10.001   1_455     S
