data_rhta
_audit_creation_date              2020-02-04
_audit_creation_method            'Pymatgen'
_symmetry_space_group_name_H-M    'P1'
_symmetry_Int_Tables_number       1
loop_
_symmetry_equiv_pos_as_xyz
  x,y,z
_cell_length_a                    72.779
_cell_length_b                    72.779
_cell_length_c                    72.779
_cell_angle_alpha                 90.0
_cell_angle_beta                 90.0
_cell_angle_gamma                 90.0
loop_
_atom_site_label
_atom_site_type_symbol
_atom_site_fract_x
_atom_site_fract_y
_atom_site_fract_z
Er1     Er     0.8756   0.8756   0.7784
Er2     Er     0.7784   0.8756   0.8756
Er3     Er     0.8756   0.7784   0.8756
Er4     Er     0.6244   0.7216   0.1244
Er5     Er     0.7216   0.6244   0.1244
Er6     Er     0.6244   0.6244   0.2216
Er7     Er     0.6244   0.1244   0.7216
Er8     Er     0.7216   0.1244   0.6244
Er9     Er     0.6244   0.2216   0.6244
Er10     Er     0.1244   0.6244   0.7216
Er11     Er     0.1244   0.7216   0.6244
Er12     Er     0.2216   0.6244   0.6244
V13     V     0.5687   0.4313   0.6659
V14     V     0.5687   0.5687   0.6659
V15     V     0.4313   0.5687   0.6659
V16     V     0.4313   0.4313   0.6659
V17     V     0.6659   0.5687   0.5687
V18     V     0.6659   0.5687   0.4313
V19     V     0.6659   0.4313   0.4313
V20     V     0.6659   0.4313   0.5687
V21     V     0.4313   0.6659   0.4313
V22     V     0.4313   0.6659   0.5687
V23     V     0.5687   0.6659   0.4313
V24     V     0.5687   0.6659   0.5687
V25     V     0.4313   0.4313   0.3341
V26     V     0.4313   0.5687   0.3341
V27     V     0.5687   0.5687   0.3341
V28     V     0.5687   0.4313   0.3341
V29     V     0.4313   0.3341   0.4313
V30     V     0.4313   0.3341   0.5687
V31     V     0.5687   0.3341   0.5687
V32     V     0.5687   0.3341   0.4313
V33     V     0.3341   0.4313   0.4313
V34     V     0.3341   0.4313   0.5687
V35     V     0.3341   0.5687   0.4313
V36     V     0.3341   0.5687   0.5687
Er37     Er     0.2784   0.6244   0.1244
Er38     Er     0.3756   0.7216   0.1244
Er39     Er     0.3756   0.6244   0.2216
Er40     Er     0.6244   0.7216   0.8756
Er41     Er     0.6244   0.6244   0.7784
Er42     Er     0.7216   0.6244   0.8756
Er43     Er     0.6244   0.2784   0.1244
Er44     Er     0.7216   0.3756   0.1244
Er45     Er     0.6244   0.3756   0.2216
Er46     Er     0.3756   0.2784   0.1244
Er47     Er     0.2784   0.3756   0.1244
Er48     Er     0.3756   0.3756   0.2216
Er49     Er     0.2784   0.1244   0.6244
Er50     Er     0.3756   0.1244   0.7216
Er51     Er     0.3756   0.2216   0.6244
Er52     Er     0.2784   0.1244   0.3756
Er53     Er     0.3756   0.1244   0.2784
Er54     Er     0.3756   0.2216   0.3756
Er55     Er     0.6244   0.1244   0.2784
Er56     Er     0.7216   0.1244   0.3756
Er57     Er     0.6244   0.2216   0.3756
Er58     Er     0.6244   0.8756   0.7216
Er59     Er     0.7216   0.8756   0.6244
Er60     Er     0.6244   0.7784   0.6244
Er61     Er     0.1244   0.2784   0.6244
Er62     Er     0.1244   0.3756   0.7216
Er63     Er     0.2216   0.3756   0.6244
Er64     Er     0.1244   0.6244   0.2784
Er65     Er     0.1244   0.7216   0.3756
Er66     Er     0.2216   0.6244   0.3756
Er67     Er     0.1244   0.2784   0.3756
Er68     Er     0.1244   0.3756   0.2784
Er69     Er     0.2216   0.3756   0.3756
Er70     Er     0.8756   0.6244   0.7216
Er71     Er     0.7784   0.6244   0.6244
Er72     Er     0.8756   0.7216   0.6244
Er73     Er     0.1244   0.1244   0.2216
Er74     Er     0.1244   0.2216   0.1244
Er75     Er     0.2216   0.1244   0.1244
Er76     Er     0.6244   0.2784   0.8756
Er77     Er     0.6244   0.3756   0.7784
Er78     Er     0.7216   0.3756   0.8756
Er79     Er     0.6244   0.8756   0.2784
Er80     Er     0.7216   0.8756   0.3756
Er81     Er     0.6244   0.7784   0.3756
Er82     Er     0.1244   0.8756   0.7784
Er83     Er     0.1244   0.7784   0.8756
Er84     Er     0.2216   0.8756   0.8756
V85     V     0.4313   0.9313   0.8341
V86     V     0.5687   0.9313   0.8341
V87     V     0.5687   0.0687   0.8341
V88     V     0.4313   0.0687   0.8341
V89     V     0.6659   0.0687   0.9313
V90     V     0.6659   0.9313   0.9313
V91     V     0.6659   0.9313   0.0687
V92     V     0.6659   0.0687   0.0687
V93     V     0.5687   0.8341   0.9313
V94     V     0.4313   0.8341   0.9313
V95     V     0.4313   0.8341   0.0687
V96     V     0.5687   0.8341   0.0687
V97     V     0.5687   0.1659   0.9313
V98     V     0.4313   0.1659   0.9313
V99     V     0.4313   0.1659   0.0687
V100     V     0.5687   0.1659   0.0687
V101     V     0.4313   0.9313   0.1659
V102     V     0.5687   0.9313   0.1659
V103     V     0.4313   0.0687   0.1659
V104     V     0.5687   0.0687   0.1659
V105     V     0.3341   0.9313   0.0687
V106     V     0.3341   0.9313   0.9313
V107     V     0.3341   0.0687   0.9313
V108     V     0.3341   0.0687   0.0687
Er109     Er     0.3756   0.2784   0.8756
Er110     Er     0.2784   0.3756   0.8756
Er111     Er     0.3756   0.3756   0.7784
Er112     Er     0.2784   0.6244   0.8756
Er113     Er     0.3756   0.6244   0.7784
Er114     Er     0.3756   0.7216   0.8756
Er115     Er     0.8756   0.6244   0.2784
Er116     Er     0.7784   0.6244   0.3756
Er117     Er     0.8756   0.7216   0.3756
Er118     Er     0.1244   0.2216   0.8756
Er119     Er     0.1244   0.1244   0.7784
Er120     Er     0.2216   0.1244   0.8756
Er121     Er     0.8756   0.1244   0.7784
Er122     Er     0.7784   0.1244   0.8756
Er123     Er     0.8756   0.2216   0.8756
V124     V     0.8341   0.4313   0.9313
V125     V     0.8341   0.5687   0.9313
V126     V     0.8341   0.5687   0.0687
V127     V     0.8341   0.4313   0.0687
V128     V     0.9313   0.4313   0.8341
V129     V     0.9313   0.5687   0.8341
V130     V     0.0687   0.5687   0.8341
V131     V     0.0687   0.4313   0.8341
V132     V     0.9313   0.6659   0.0687
V133     V     0.9313   0.6659   0.9313
V134     V     0.0687   0.6659   0.9313
V135     V     0.0687   0.6659   0.0687
V136     V     0.1659   0.5687   0.9313
V137     V     0.1659   0.4313   0.9313
V138     V     0.1659   0.4313   0.0687
V139     V     0.1659   0.5687   0.0687
V140     V     0.9313   0.5687   0.1659
V141     V     0.9313   0.4313   0.1659
V142     V     0.0687   0.4313   0.1659
V143     V     0.0687   0.5687   0.1659
V144     V     0.0687   0.3341   0.9313
V145     V     0.9313   0.3341   0.9313
V146     V     0.9313   0.3341   0.0687
V147     V     0.0687   0.3341   0.0687
Er148     Er     0.3756   0.8756   0.2784
Er149     Er     0.2784   0.8756   0.3756
Er150     Er     0.3756   0.7784   0.3756
Er151     Er     0.2784   0.8756   0.6244
Er152     Er     0.3756   0.8756   0.7216
Er153     Er     0.3756   0.7784   0.6244
Er154     Er     0.8756   0.2784   0.6244
Er155     Er     0.8756   0.3756   0.7216
Er156     Er     0.7784   0.3756   0.6244
Er157     Er     0.8756   0.3756   0.2784
Er158     Er     0.8756   0.2784   0.3756
Er159     Er     0.7784   0.3756   0.3756
Er160     Er     0.1244   0.8756   0.2216
Er161     Er     0.1244   0.7784   0.1244
Er162     Er     0.2216   0.8756   0.1244
Er163     Er     0.8756   0.1244   0.2216
Er164     Er     0.7784   0.1244   0.1244
Er165     Er     0.8756   0.2216   0.1244
Er166     Er     0.8756   0.7784   0.1244
Er167     Er     0.7784   0.8756   0.1244
Er168     Er     0.8756   0.8756   0.2216
V169     V     0.9313   0.8341   0.4313
V170     V     0.9313   0.8341   0.5687
V171     V     0.0687   0.8341   0.5687
V172     V     0.0687   0.8341   0.4313
V173     V     0.9313   0.9313   0.6659
V174     V     0.9313   0.0687   0.6659
V175     V     0.0687   0.9313   0.6659
V176     V     0.0687   0.0687   0.6659
V177     V     0.8341   0.9313   0.5687
V178     V     0.8341   0.9313   0.4313
V179     V     0.8341   0.0687   0.4313
V180     V     0.8341   0.0687   0.5687
V181     V     0.1659   0.9313   0.5687
V182     V     0.1659   0.9313   0.4313
V183     V     0.1659   0.0687   0.4313
V184     V     0.1659   0.0687   0.5687
V185     V     0.9313   0.1659   0.5687
V186     V     0.9313   0.1659   0.4313
V187     V     0.0687   0.1659   0.4313
V188     V     0.0687   0.1659   0.5687
V189     V     0.9313   0.9313   0.3341
V190     V     0.9313   0.0687   0.3341
V191     V     0.0687   0.9313   0.3341
V192     V     0.0687   0.0687   0.3341
loop_
_geom_bond_atom_site_label_1
_geom_bond_atom_site_label_2
_geom_bond_distance
_geom_bond_site_symmetry_2
_ccdc_geom_bond_type
Er1     Er2    9.999   .     S
Er1     Er3    9.999   .     S
Er1     V173    10.001   .     S
Er2     Er3    9.999   .     S
Er2     V90    10.001   .     S
Er3     V133    10.001   .     S
Er4     Er5    9.999   .     S
Er4     Er6    9.999   .     S
Er4     V96    10.001   .     S
Er5     Er6    9.999   .     S
Er5     V126    10.001   .     S
Er6     V27    10.001   .     S
Er7     Er8    9.999   .     S
Er7     Er9    9.999   .     S
Er7     V87    10.001   .     S
Er8     Er9    9.999   .     S
Er8     V180    10.001   .     S
Er9     V31    10.001   .     S
Er10     Er11    9.999   .     S
Er10     Er12    9.999   .     S
Er10     V130    10.001   .     S
Er11     Er12    9.999   .     S
Er11     V171    10.001   .     S
Er12     V36    10.001   .     S
V13     V14    10.0   .     S
V13     V16    10.0   .     S
V13     Er77    10.001   .     S
V13     V31    10.0   .     S
V13     V20    10.0   .     S
V14     V15    10.0   .     S
V14     Er41    10.001   .     S
V14     V17    10.0   .     S
V14     V24    10.0   .     S
V15     V16    10.0   .     S
V15     Er113    10.001   .     S
V15     V36    10.0   .     S
V15     V22    10.0   .     S
V16     Er111    10.001   .     S
V16     V34    10.0   .     S
V16     V30    10.0   .     S
V17     V18    10.0   .     S
V17     V20    10.0   .     S
V17     Er71    10.001   .     S
V17     V24    10.0   .     S
V18     V19    10.0   .     S
V18     Er116    10.001   .     S
V18     V27    10.0   .     S
V18     V23    10.0   .     S
V19     V20    10.0   .     S
V19     Er159    10.001   .     S
V19     V32    10.0   .     S
V19     V28    10.0   .     S
V20     Er156    10.001   .     S
V20     V31    10.0   .     S
V21     V22    10.0   .     S
V21     V23    10.0   .     S
V21     Er150    10.001   .     S
V21     V35    10.0   .     S
V21     V26    10.0   .     S
V22     V24    10.0   .     S
V22     Er153    10.001   .     S
V22     V36    10.0   .     S
V23     V24    10.0   .     S
V23     Er81    10.001   .     S
V23     V27    10.0   .     S
V24     Er60    10.001   .     S
V25     V26    10.0   .     S
V25     V28    10.0   .     S
V25     Er48    10.001   .     S
V25     V33    10.0   .     S
V25     V29    10.0   .     S
V26     V27    10.0   .     S
V26     Er39    10.001   .     S
V26     V35    10.0   .     S
V27     V28    10.0   .     S
V28     Er45    10.001   .     S
V28     V32    10.0   .     S
V29     V30    10.0   .     S
V29     V32    10.0   .     S
V29     Er54    10.001   .     S
V29     V33    10.0   .     S
V30     V31    10.0   .     S
V30     Er51    10.001   .     S
V30     V34    10.0   .     S
V31     V32    10.0   .     S
V32     Er57    10.001   .     S
V33     V34    10.0   .     S
V33     V35    10.0   .     S
V33     Er69    10.001   .     S
V34     V36    10.0   .     S
V34     Er63    10.001   .     S
V35     V36    10.0   .     S
V35     Er66    10.001   .     S
Er37     Er38    9.999   .     S
Er37     Er39    9.999   .     S
Er37     V139    10.001   .     S
Er38     Er39    9.999   .     S
Er38     V95    10.001   .     S
Er40     Er41    9.999   .     S
Er40     Er42    9.999   .     S
Er40     V93    10.001   .     S
Er41     Er42    9.999   .     S
Er42     V125    10.001   .     S
Er43     Er44    9.999   .     S
Er43     Er45    9.999   .     S
Er43     V100    10.001   .     S
Er44     Er45    9.999   .     S
Er44     V127    10.001   .     S
Er46     Er48    9.999   .     S
Er46     Er47    9.999   .     S
Er46     V99    10.001   .     S
Er47     Er48    9.999   .     S
Er47     V138    10.001   .     S
Er49     Er50    9.999   .     S
Er49     Er51    9.999   .     S
Er49     V184    10.001   .     S
Er50     Er51    9.999   .     S
Er50     V88    10.001   .     S
Er52     Er54    9.999   .     S
Er52     Er53    9.999   .     S
Er52     V183    10.001   .     S
Er53     Er54    9.999   .     S
Er53     V103    10.001   .     S
Er55     Er56    9.999   .     S
Er55     Er57    9.999   .     S
Er55     V104    10.001   .     S
Er56     Er57    9.999   .     S
Er56     V179    10.001   .     S
Er58     Er59    9.999   .     S
Er58     Er60    9.999   .     S
Er58     V86    10.001   .     S
Er59     Er60    9.999   .     S
Er59     V177    10.001   .     S
Er61     Er62    9.999   .     S
Er61     Er63    9.999   .     S
Er61     V188    10.001   .     S
Er62     Er63    9.999   .     S
Er62     V131    10.001   .     S
Er64     Er65    9.999   .     S
Er64     Er66    9.999   .     S
Er64     V143    10.001   .     S
Er65     Er66    9.999   .     S
Er65     V172    10.001   .     S
Er67     Er69    9.999   .     S
Er67     Er68    9.999   .     S
Er67     V187    10.001   .     S
Er68     Er69    9.999   .     S
Er68     V142    10.001   .     S
Er70     Er71    9.999   .     S
Er70     Er72    9.999   .     S
Er70     V129    10.001   .     S
Er71     Er72    9.999   .     S
Er72     V170    10.001   .     S
Er73     Er74    9.999   .     S
Er73     Er75    9.999   .     S
Er73     V192    10.001   .     S
Er74     Er75    9.999   .     S
Er74     V147    10.001   .     S
Er75     V108    10.001   .     S
Er76     Er77    9.999   .     S
Er76     Er78    9.999   .     S
Er76     V97    10.001   .     S
Er77     Er78    9.999   .     S
Er78     V124    10.001   .     S
Er79     Er81    9.999   .     S
Er79     Er80    9.999   .     S
Er79     V102    10.001   .     S
Er80     Er81    9.999   .     S
Er80     V178    10.001   .     S
Er82     Er83    9.999   .     S
Er82     Er84    9.999   .     S
Er82     V175    10.001   .     S
Er83     Er84    9.999   .     S
Er83     V134    10.001   .     S
Er84     V106    10.001   .     S
V85     V88    10.0   1_565     S
V85     V86    10.0   .     S
V85     Er152    10.001   .     S
V85     V106    10.0   .     S
V85     V94    10.0   .     S
V86     V87    10.0   1_565     S
V86     V90    10.0   .     S
V86     V93    10.0   .     S
V87     V86    10.0   1_545     S
V87     V88    10.0   .     S
V87     V97    10.0   .     S
V87     V89    10.0   .     S
V88     V85    10.0   1_545     S
V88     V107    10.0   .     S
V88     V98    10.0   .     S
V89     V92    10.0   1_556     S
V89     V90    10.0   1_545     S
V89     Er122    10.001   .     S
V89     V97    10.0   .     S
V90     V91    10.0   1_556     S
V90     V89    10.0   1_565     S
V90     V93    10.0   .     S
V91     V90    10.0   1_554     S
V91     V92    10.0   1_565     S
V91     Er167    10.001   .     S
V91     V102    10.0   .     S
V91     V96    10.0   .     S
V92     V89    10.0   1_554     S
V92     V91    10.0   1_545     S
V92     Er164    10.001   .     S
V92     V100    10.0   .     S
V92     V104    10.0   .     S
V93     V96    10.0   1_556     S
V93     V94    10.0   .     S
V94     V95    10.0   1_556     S
V94     Er114    10.001   .     S
V94     V106    10.0   .     S
V95     V94    10.0   1_554     S
V95     V96    10.0   .     S
V95     V105    10.0   .     S
V95     V101    10.0   .     S
V96     V93    10.0   1_554     S
V96     V102    10.0   .     S
V97     V100    10.0   1_556     S
V97     V98    10.0   .     S
V98     V99    10.0   1_556     S
V98     Er109    10.001   .     S
V98     V107    10.0   .     S
V99     V98    10.0   1_554     S
V99     V100    10.0   .     S
V99     V108    10.0   .     S
V99     V103    10.0   .     S
V100     V97    10.0   1_554     S
V100     V104    10.0   .     S
V101     V103    10.0   1_565     S
V101     V102    10.0   .     S
V101     Er148    10.001   .     S
V101     V105    10.0   .     S
V102     V104    10.0   1_565     S
V103     V101    10.0   1_545     S
V103     V104    10.0   .     S
V103     V108    10.0   .     S
V104     V102    10.0   1_545     S
V105     V108    10.0   1_565     S
V105     V106    10.0   1_554     S
V105     Er162    10.001   .     S
V106     V107    10.0   1_565     S
V106     V105    10.0   1_556     S
V107     V106    10.0   1_545     S
V107     V108    10.0   1_556     S
V107     Er120    10.001   .     S
V108     V105    10.0   1_545     S
V108     V107    10.0   1_554     S
Er109     Er111    9.999   .     S
Er109     Er110    9.999   .     S
Er110     Er111    9.999   .     S
Er110     V137    10.001   .     S
Er112     Er113    9.999   .     S
Er112     Er114    9.999   .     S
Er112     V136    10.001   .     S
Er113     Er114    9.999   .     S
Er115     Er117    9.999   .     S
Er115     Er116    9.999   .     S
Er115     V140    10.001   .     S
Er116     Er117    9.999   .     S
Er117     V169    10.001   .     S
Er118     Er119    9.999   .     S
Er118     Er120    9.999   .     S
Er118     V144    10.001   .     S
Er119     Er120    9.999   .     S
Er119     V176    10.001   .     S
Er121     Er122    9.999   .     S
Er121     Er123    9.999   .     S
Er121     V174    10.001   .     S
Er122     Er123    9.999   .     S
Er123     V145    10.001   .     S
V124     V127    10.0   1_556     S
V124     V125    10.0   .     S
V124     V145    10.0   .     S
V124     V128    10.0   .     S
V125     V126    10.0   1_556     S
V125     V133    10.0   .     S
V125     V129    10.0   .     S
V126     V125    10.0   1_554     S
V126     V127    10.0   .     S
V126     V140    10.0   .     S
V126     V132    10.0   .     S
V127     V124    10.0   1_554     S
V127     V146    10.0   .     S
V127     V141    10.0   .     S
V128     V131    10.0   1_655     S
V128     V129    10.0   .     S
V128     Er155    10.001   .     S
V128     V145    10.0   .     S
V129     V130    10.0   1_655     S
V129     V133    10.0   .     S
V130     V129    10.0   1_455     S
V130     V131    10.0   .     S
V130     V136    10.0   .     S
V130     V134    10.0   .     S
V131     V128    10.0   1_455     S
V131     V144    10.0   .     S
V131     V137    10.0   .     S
V132     V135    10.0   1_655     S
V132     V133    10.0   1_554     S
V132     Er166    10.001   .     S
V132     V140    10.0   .     S
V133     V134    10.0   1_655     S
V133     V132    10.0   1_556     S
V134     V133    10.0   1_455     S
V134     V135    10.0   1_556     S
V134     V136    10.0   .     S
V135     V132    10.0   1_455     S
V135     V134    10.0   1_554     S
V135     Er161    10.001   .     S
V135     V143    10.0   .     S
V135     V139    10.0   .     S
V136     V139    10.0   1_556     S
V136     V137    10.0   .     S
V137     V138    10.0   1_556     S
V137     V144    10.0   .     S
V138     V137    10.0   1_554     S
V138     V139    10.0   .     S
V138     V147    10.0   .     S
V138     V142    10.0   .     S
V139     V136    10.0   1_554     S
V139     V143    10.0   .     S
V140     V143    10.0   1_655     S
V140     V141    10.0   .     S
V141     V142    10.0   1_655     S
V141     Er157    10.001   .     S
V141     V146    10.0   .     S
V142     V147    10.0   .     S
V142     V141    10.0   1_455     S
V142     V143    10.0   .     S
V143     V140    10.0   1_455     S
V144     V147    10.0   1_556     S
V144     V145    10.0   1_455     S
V145     V146    10.0   1_556     S
V145     V144    10.0   1_655     S
V146     V145    10.0   1_554     S
V146     V147    10.0   1_655     S
V146     Er165    10.001   .     S
V147     V144    10.0   1_554     S
V147     V146    10.0   1_455     S
Er148     Er150    9.999   .     S
Er148     Er149    9.999   .     S
Er149     Er150    9.999   .     S
Er149     V182    10.001   .     S
Er151     Er152    9.999   .     S
Er151     Er153    9.999   .     S
Er151     V181    10.001   .     S
Er152     Er153    9.999   .     S
Er154     Er155    9.999   .     S
Er154     Er156    9.999   .     S
Er154     V185    10.001   .     S
Er155     Er156    9.999   .     S
Er157     Er159    9.999   .     S
Er157     Er158    9.999   .     S
Er158     Er159    9.999   .     S
Er158     V186    10.001   .     S
Er160     Er161    9.999   .     S
Er160     Er162    9.999   .     S
Er160     V191    10.001   .     S
Er161     Er162    9.999   .     S
Er163     Er164    9.999   .     S
Er163     Er165    9.999   .     S
Er163     V190    10.001   .     S
Er164     Er165    9.999   .     S
Er166     Er167    9.999   .     S
Er166     Er168    9.999   .     S
Er167     Er168    9.999   .     S
Er168     V189    10.001   .     S
V169     V172    10.0   1_655     S
V169     V170    10.0   .     S
V169     V189    10.0   .     S
V169     V178    10.0   .     S
V170     V171    10.0   1_655     S
V170     V173    10.0   .     S
V170     V177    10.0   .     S
V171     V170    10.0   1_455     S
V171     V172    10.0   .     S
V171     V181    10.0   .     S
V171     V175    10.0   .     S
V172     V169    10.0   1_455     S
V172     V191    10.0   .     S
V172     V182    10.0   .     S
V173     V174    10.0   1_565     S
V173     V175    10.0   1_655     S
V173     V177    10.0   .     S
V174     V173    10.0   1_545     S
V174     V176    10.0   1_655     S
V174     V185    10.0   .     S
V174     V180    10.0   .     S
V175     V173    10.0   1_455     S
V175     V176    10.0   1_565     S
V175     V181    10.0   .     S
V176     V174    10.0   1_455     S
V176     V175    10.0   1_545     S
V176     V184    10.0   .     S
V176     V188    10.0   .     S
V177     V180    10.0   1_565     S
V177     V178    10.0   .     S
V178     V179    10.0   1_565     S
V178     V189    10.0   .     S
V179     V178    10.0   1_545     S
V179     V180    10.0   .     S
V179     V190    10.0   .     S
V179     V186    10.0   .     S
V180     V177    10.0   1_545     S
V180     V185    10.0   .     S
V181     V184    10.0   1_565     S
V181     V182    10.0   .     S
V182     V183    10.0   1_565     S
V182     V191    10.0   .     S
V183     V182    10.0   1_545     S
V183     V184    10.0   .     S
V183     V192    10.0   .     S
V183     V187    10.0   .     S
V184     V181    10.0   1_545     S
V184     V188    10.0   .     S
V185     V188    10.0   1_655     S
V185     V186    10.0   .     S
V186     V187    10.0   1_655     S
V186     V190    10.0   .     S
V187     V186    10.0   1_455     S
V187     V188    10.0   .     S
V187     V192    10.0   .     S
V188     V185    10.0   1_455     S
V189     V190    10.0   1_565     S
V189     V191    10.0   1_655     S
V190     V189    10.0   1_545     S
V190     V192    10.0   1_655     S
V191     V189    10.0   1_455     S
V191     V192    10.0   1_565     S
V192     V190    10.0   1_455     S
V192     V191    10.0   1_545     S
