data_rnaa
_audit_creation_date              2020-02-04
_audit_creation_method            'Pymatgen'
_symmetry_space_group_name_H-M    'P1'
_symmetry_Int_Tables_number       1
loop_
_symmetry_equiv_pos_as_xyz
  x,y,z
_cell_length_a                    75.5804
_cell_length_b                    43.0144
_cell_length_c                    58.2648
_cell_angle_alpha                 90.0
_cell_angle_beta                 90.0
_cell_angle_gamma                 90.0
loop_
_atom_site_label
_atom_site_type_symbol
_atom_site_fract_x
_atom_site_fract_y
_atom_site_fract_z
Er1     Er     0.3584   0.6338   0.4376
Er2     Er     0.3584   0.8662   0.4376
Er3     Er     0.6416   0.8662   0.4376
Er4     Er     0.6416   0.6338   0.4376
Er5     Er     0.3584   0.1338   0.5624
Er6     Er     0.3584   0.3662   0.5624
Er7     Er     0.6416   0.1338   0.5624
Er8     Er     0.6416   0.3662   0.5624
Ti9     Ti     0.5   0.1338   0.5706
Ti10     Ti     0.5   0.3662   0.5706
Ce11     Ce     0.4338   0.5676   0.5698
Ce12     Ce     0.5662   0.5676   0.5698
Ce13     Ce     0.4338   0.4324   0.4302
Ce14     Ce     0.5662   0.4324   0.4302
Ce15     Ce     0.4338   0.9324   0.5698
Ce16     Ce     0.5662   0.9324   0.5698
Ce17     Ce     0.4338   0.0676   0.4302
Ce18     Ce     0.5662   0.0676   0.4302
Ti19     Ti     0.5   0.6338   0.4294
Ti20     Ti     0.5   0.8662   0.4294
V21     V     0.7114   0.25   0.6803
V22     V     0.7886   0.25   0.8197
V23     V     0.2886   0.25   0.6803
V24     V     0.2114   0.25   0.8197
V25     V     0.2886   0.75   0.3197
V26     V     0.2114   0.75   0.1803
V27     V     0.7114   0.75   0.3197
V28     V     0.7886   0.75   0.1803
Er29     Er     0.1416   0.8662   0.0624
Er30     Er     0.1416   0.6338   0.0624
Er31     Er     0.8584   0.8662   0.0624
Er32     Er     0.8584   0.6338   0.0624
Er33     Er     0.1416   0.1338   0.9376
Er34     Er     0.1416   0.3662   0.9376
Er35     Er     0.8584   0.1338   0.9376
Er36     Er     0.8584   0.3662   0.9376
Ce37     Ce     0.9338   0.9324   0.9302
Ce38     Ce     0.0662   0.9324   0.9302
Ce39     Ce     0.9338   0.0676   0.0698
Ce40     Ce     0.0662   0.0676   0.0698
Ti41     Ti     0.0   0.1338   0.9294
Ti42     Ti     0.0   0.3662   0.9294
Ce43     Ce     0.9338   0.5676   0.9302
Ce44     Ce     0.0662   0.5676   0.9302
Ce45     Ce     0.9338   0.4324   0.0698
Ce46     Ce     0.0662   0.4324   0.0698
Ti47     Ti     0.0   0.8662   0.0706
Ti48     Ti     0.0   0.6338   0.0706
loop_
_geom_bond_atom_site_label_1
_geom_bond_atom_site_label_2
_geom_bond_distance
_geom_bond_site_symmetry_2
_ccdc_geom_bond_type
Er1     Er2    10.0   .     S
Er1     V25    10.0   .     S
Er1     Ce11    10.0   .     S
Er2     V25    10.0   .     S
Er2     Ce15    10.0   .     S
Er3     V27    10.0   .     S
Er3     Er4    10.0   .     S
Er3     Ce16    10.0   .     S
Er4     V27    10.0   .     S
Er4     Ce12    10.0   .     S
Er5     V23    10.0   .     S
Er5     Er6    10.0   .     S
Er5     Ce17    10.0   .     S
Er6     V23    10.0   .     S
Er6     Ce13    10.0   .     S
Er7     V21    10.0   .     S
Er7     Er8    10.0   .     S
Er7     Ce18    10.0   .     S
Er8     V21    10.0   .     S
Er8     Ce14    10.0   .     S
Ti9     Ti10    10.0   .     S
Ti9     Ce15    10.0   1_545     S
Ti9     Ce16    10.0   1_545     S
Ti9     Ce18    10.0   .     S
Ti9     Ce17    10.0   .     S
Ti10     Ce11    10.0   .     S
Ti10     Ce12    10.0   .     S
Ti10     Ce13    10.0   .     S
Ti10     Ce14    10.0   .     S
Ce11     Ce12    9.999   .     S
Ce11     Ce13    10.0   .     S
Ce11     Ti19    10.0   .     S
Ce12     Ce14    10.0   .     S
Ce12     Ti19    10.0   .     S
Ce13     Ti19    10.0   .     S
Ce13     Ce14    9.999   .     S
Ce14     Ti19    10.0   .     S
Ce15     Ti9    10.0   1_565     S
Ce15     Ce16    9.999   .     S
Ce15     Ce17    10.0   1_565     S
Ce15     Ti20    10.0   .     S
Ce16     Ti9    10.0   1_565     S
Ce16     Ce18    10.0   1_565     S
Ce16     Ti20    10.0   .     S
Ce17     Ti20    10.0   1_545     S
Ce17     Ce18    9.999   .     S
Ce17     Ce15    10.0   1_545     S
Ce18     Ti20    10.0   1_545     S
Ce18     Ce16    10.0   1_545     S
Ti19     Ti20    10.0   .     S
Ti20     Ce17    10.0   1_565     S
Ti20     Ce18    10.0   1_565     S
V21     V22    10.0   .     S
V22     Er36    10.0   .     S
V22     Er35    10.0   .     S
V23     V24    10.0   .     S
V24     Er34    10.0   .     S
V24     Er33    10.0   .     S
V25     V26    10.0   .     S
V26     Er29    10.0   .     S
V26     Er30    10.0   .     S
V27     V28    10.0   .     S
V28     Er31    10.0   .     S
V28     Er32    10.0   .     S
Er29     Er30    10.0   .     S
Er29     Ce38    10.0   1_554     S
Er30     Ce44    10.0   1_554     S
Er31     Er32    10.0   .     S
Er31     Ce37    10.0   1_554     S
Er32     Ce43    10.0   1_554     S
Er33     Er34    10.0   .     S
Er33     Ce40    10.0   1_556     S
Er34     Ce46    10.0   1_556     S
Er35     Er36    10.0   .     S
Er35     Ce39    10.0   1_556     S
Er36     Ce45    10.0   1_556     S
Ce37     Er31    10.0   1_556     S
Ce37     Ti41    10.0   1_665     S
Ce37     Ce38    9.999   1_655     S
Ce37     Ce39    10.0   1_566     S
Ce37     Ti47    10.0   1_656     S
Ce38     Er29    10.0   1_556     S
Ce38     Ti41    10.0   1_565     S
Ce38     Ce37    9.999   1_455     S
Ce38     Ce40    10.0   1_566     S
Ce38     Ti47    10.0   1_556     S
Ce39     Er35    10.0   1_554     S
Ce39     Ti47    10.0   1_645     S
Ce39     Ce40    9.999   1_655     S
Ce39     Ce37    10.0   1_544     S
Ce39     Ti41    10.0   1_654     S
Ce40     Er33    10.0   1_554     S
Ce40     Ti47    10.0   1_545     S
Ce40     Ce39    9.999   1_455     S
Ce40     Ce38    10.0   1_544     S
Ce40     Ti41    10.0   1_554     S
Ti41     Ce37    10.0   1_445     S
Ti41     Ce38    10.0   1_545     S
Ti41     Ce39    10.0   1_456     S
Ti41     Ce40    10.0   1_556     S
Ti41     Ti42    10.0   .     S
Ti42     Ce43    10.0   1_455     S
Ti42     Ce44    10.0   .     S
Ti42     Ce45    10.0   1_456     S
Ti42     Ce46    10.0   1_556     S
Ce43     Er32    10.0   1_556     S
Ce43     Ti42    10.0   1_655     S
Ce43     Ce44    9.999   1_655     S
Ce43     Ce45    10.0   1_556     S
Ce43     Ti48    10.0   1_656     S
Ce44     Er30    10.0   1_556     S
Ce44     Ce43    9.999   1_455     S
Ce44     Ce46    10.0   1_556     S
Ce44     Ti48    10.0   1_556     S
Ce45     Er36    10.0   1_554     S
Ce45     Ti48    10.0   1_655     S
Ce45     Ce46    9.999   1_655     S
Ce45     Ce43    10.0   1_554     S
Ce45     Ti42    10.0   1_654     S
Ce46     Er34    10.0   1_554     S
Ce46     Ti48    10.0   .     S
Ce46     Ce45    9.999   1_455     S
Ce46     Ce44    10.0   1_554     S
Ce46     Ti42    10.0   1_554     S
Ti47     Ce39    10.0   1_465     S
Ti47     Ce40    10.0   1_565     S
Ti47     Ce37    10.0   1_454     S
Ti47     Ce38    10.0   1_554     S
Ti47     Ti48    10.0   .     S
Ti48     Ce45    10.0   1_455     S
Ti48     Ce43    10.0   1_454     S
Ti48     Ce44    10.0   1_554     S
