data_rra
_audit_creation_date              2020-02-04
_audit_creation_method            'Pymatgen'
_symmetry_space_group_name_H-M    'P1'
_symmetry_Int_Tables_number       1
loop_
_symmetry_equiv_pos_as_xyz
  x,y,z
_cell_length_a                    71.7612
_cell_length_b                    71.7612
_cell_length_c                    71.7612
_cell_angle_alpha                 90.0
_cell_angle_beta                 90.0
_cell_angle_gamma                 90.0
loop_
_atom_site_label
_atom_site_type_symbol
_atom_site_fract_x
_atom_site_fract_y
_atom_site_fract_z
Ti1     Ti     0.3852   0.9003   0.3852
Er2     Er     0.3705   0.0   0.188
Er3     Er     0.188   0.0   0.3705
V4     V     0.3164   0.0   0.3164
Ti5     Ti     0.3852   0.0997   0.3852
Ti6     Ti     0.9003   0.6148   0.3852
Er7     Er     0.0   0.812   0.3705
V8     V     0.0   0.6836   0.3164
Er9     Er     0.0   0.6295   0.188
Ti10     Ti     0.0997   0.6148   0.3852
Ti11     Ti     0.6148   0.9003   0.3852
Er12     Er     0.812   0.0   0.3705
V13     V     0.6836   0.0   0.3164
Er14     Er     0.6295   0.0   0.188
Ti15     Ti     0.6148   0.0997   0.3852
Ti16     Ti     0.6148   0.9003   0.6148
Er17     Er     0.6295   0.0   0.812
Er18     Er     0.812   0.0   0.6295
V19     V     0.6836   0.0   0.6836
Ti20     Ti     0.6148   0.0997   0.6148
Ti21     Ti     0.9003   0.3852   0.6148
Er22     Er     0.0   0.3705   0.812
V23     V     0.0   0.3164   0.6836
Er24     Er     0.0   0.188   0.6295
Ti25     Ti     0.0997   0.3852   0.6148
Ti26     Ti     0.3852   0.9003   0.6148
Er27     Er     0.3705   0.0   0.812
V28     V     0.3164   0.0   0.6836
Er29     Er     0.188   0.0   0.6295
Ti30     Ti     0.3852   0.0997   0.6148
Ti31     Ti     0.1148   0.8852   0.5997
Er32     Er     0.1295   0.688   0.5
Er33     Er     0.312   0.8705   0.5
V34     V     0.1836   0.8164   0.5
Ti35     Ti     0.1148   0.8852   0.4003
Ti36     Ti     0.8852   0.8852   0.4003
Er37     Er     0.688   0.8705   0.5
Er38     Er     0.8705   0.688   0.5
V39     V     0.8164   0.8164   0.5
Ti40     Ti     0.8852   0.8852   0.5997
Ti41     Ti     0.9003   0.6148   0.6148
Er42     Er     0.0   0.6295   0.812
Er43     Er     0.0   0.812   0.6295
V44     V     0.0   0.6836   0.6836
Ti45     Ti     0.0997   0.6148   0.6148
Ti46     Ti     0.3852   0.6148   0.9003
Er47     Er     0.3705   0.812   0.0
V48     V     0.3164   0.6836   0.0
Er49     Er     0.188   0.6295   0.0
Ti50     Ti     0.3852   0.6148   0.0997
Ti51     Ti     0.1148   0.4003   0.8852
Er52     Er     0.1295   0.5   0.688
Er53     Er     0.312   0.5   0.8705
V54     V     0.1836   0.5   0.8164
Ti55     Ti     0.1148   0.5997   0.8852
Ti56     Ti     0.3852   0.3852   0.9003
Er57     Er     0.3705   0.188   0.0
Er58     Er     0.188   0.3705   0.0
V59     V     0.3164   0.3164   0.0
Ti60     Ti     0.3852   0.3852   0.0997
Ti61     Ti     0.4003   0.1148   0.1148
V62     V     0.5   0.1836   0.1836
Er63     Er     0.5   0.312   0.1295
Er64     Er     0.5   0.1295   0.312
Ti65     Ti     0.5997   0.1148   0.1148
Ti66     Ti     0.5997   0.1148   0.8852
Er67     Er     0.5   0.1295   0.688
Er68     Er     0.5   0.312   0.8705
V69     V     0.5   0.1836   0.8164
Ti70     Ti     0.4003   0.1148   0.8852
Ti71     Ti     0.6148   0.3852   0.9003
Er72     Er     0.812   0.3705   0.0
V73     V     0.6836   0.3164   0.0
Er74     Er     0.6295   0.188   0.0
Ti75     Ti     0.6148   0.3852   0.0997
Ti76     Ti     0.5997   0.8852   0.1148
Er77     Er     0.5   0.688   0.1295
Er78     Er     0.5   0.8705   0.312
V79     V     0.5   0.8164   0.1836
Ti80     Ti     0.4003   0.8852   0.1148
Ti81     Ti     0.8852   0.5997   0.8852
Er82     Er     0.8705   0.5   0.688
Er83     Er     0.688   0.5   0.8705
V84     V     0.8164   0.5   0.8164
Ti85     Ti     0.8852   0.4003   0.8852
Ti86     Ti     0.4003   0.8852   0.8852
Er87     Er     0.5   0.8705   0.688
Er88     Er     0.5   0.688   0.8705
V89     V     0.5   0.8164   0.8164
Ti90     Ti     0.5997   0.8852   0.8852
Ti91     Ti     0.6148   0.6148   0.9003
Er92     Er     0.812   0.6295   0.0
Er93     Er     0.6295   0.812   0.0
V94     V     0.6836   0.6836   0.0
Ti95     Ti     0.6148   0.6148   0.0997
Ti96     Ti     0.8852   0.1148   0.5997
Er97     Er     0.688   0.1295   0.5
Er98     Er     0.8705   0.312   0.5
V99     V     0.8164   0.1836   0.5
Ti100     Ti     0.8852   0.1148   0.4003
Ti101     Ti     0.1148   0.1148   0.5997
V102     V     0.1836   0.1836   0.5
Er103     Er     0.1295   0.312   0.5
Er104     Er     0.312   0.1295   0.5
Ti105     Ti     0.1148   0.1148   0.4003
Ti106     Ti     0.1148   0.5997   0.1148
V107     V     0.1836   0.5   0.1836
Er108     Er     0.1295   0.5   0.312
Er109     Er     0.312   0.5   0.1295
Ti110     Ti     0.1148   0.4003   0.1148
Ti111     Ti     0.8852   0.4003   0.1148
Er112     Er     0.688   0.5   0.1295
Er113     Er     0.8705   0.5   0.312
V114     V     0.8164   0.5   0.1836
Ti115     Ti     0.8852   0.5997   0.1148
Ti116     Ti     0.9003   0.3852   0.3852
Er117     Er     0.0   0.3705   0.188
Er118     Er     0.0   0.188   0.3705
V119     V     0.0   0.3164   0.3164
Ti120     Ti     0.0997   0.3852   0.3852
loop_
_geom_bond_atom_site_label_1
_geom_bond_atom_site_label_2
_geom_bond_distance
_geom_bond_site_symmetry_2
_ccdc_geom_bond_type
Ti1     Er33    10.0   .     S
Ti1     Er78    10.0   .     S
Ti1     V4    10.001   1_565     S
Er2     V4    10.0   .     S
Er2     Ti61    10.0   .     S
Er2     Ti80    10.0   1_545     S
Er3     V4    10.0   .     S
Er3     Ti35    10.0   1_545     S
Er3     Ti105    10.0   .     S
V4     Ti1    10.001   1_545     S
V4     Ti5    10.001   .     S
Ti5     Er64    10.0   .     S
Ti5     Er104    10.0   .     S
Ti6     Er113    10.0   .     S
Ti6     Er38    10.0   .     S
Ti6     V8    10.001   1_655     S
Er7     V8    10.0   .     S
Er7     Ti35    10.0   .     S
Er7     Ti36    10.0   1_455     S
V8     Ti6    10.001   1_455     S
V8     Er9    10.0   .     S
V8     Ti10    10.001   .     S
Er9     Ti106    10.0   .     S
Er9     Ti115    10.0   1_455     S
Ti10     Er108    10.0   .     S
Ti10     Er32    10.0   .     S
Ti11     Er78    10.0   .     S
Ti11     Er37    10.0   .     S
Ti11     V13    10.001   1_565     S
Er12     V13    10.0   .     S
Er12     Ti36    10.0   1_545     S
Er12     Ti100    10.0   .     S
V13     Ti11    10.001   1_545     S
V13     Er14    10.0   .     S
V13     Ti15    10.001   .     S
Er14     Ti65    10.0   .     S
Er14     Ti76    10.0   1_545     S
Ti15     Er64    10.0   .     S
Ti15     Er97    10.0   .     S
Ti16     Er37    10.0   .     S
Ti16     Er87    10.0   .     S
Ti16     V19    10.001   1_565     S
Er17     V19    10.0   .     S
Er17     Ti66    10.0   .     S
Er17     Ti90    10.0   1_545     S
Er18     V19    10.0   .     S
Er18     Ti40    10.0   1_545     S
Er18     Ti96    10.0   .     S
V19     Ti16    10.001   1_545     S
V19     Ti20    10.001   .     S
Ti20     Er67    10.0   .     S
Ti20     Er97    10.0   .     S
Ti21     Er98    10.0   .     S
Ti21     Er82    10.0   .     S
Ti21     V23    10.001   1_655     S
Er22     V23    10.0   .     S
Er22     Ti51    10.0   .     S
Er22     Ti85    10.0   1_455     S
V23     Ti21    10.001   1_455     S
V23     Er24    10.0   .     S
V23     Ti25    10.001   .     S
Er24     Ti96    10.0   1_455     S
Er24     Ti101    10.0   .     S
Ti25     Er103    10.0   .     S
Ti25     Er52    10.0   .     S
Ti26     Er33    10.0   .     S
Ti26     Er87    10.0   .     S
Ti26     V28    10.001   1_565     S
Er27     V28    10.0   .     S
Er27     Ti70    10.0   .     S
Er27     Ti86    10.0   1_545     S
V28     Ti26    10.001   1_545     S
V28     Er29    10.0   .     S
V28     Ti30    10.001   .     S
Er29     Ti31    10.0   1_545     S
Er29     Ti101    10.0   .     S
Ti30     Er104    10.0   .     S
Ti30     Er67    10.0   .     S
Ti31     Er29    10.0   1_565     S
Ti31     Er43    10.0   .     S
Ti31     V34    10.001   .     S
Er32     V34    10.0   .     S
Er32     Ti45    10.0   .     S
Er33     V34    10.0   .     S
V34     Ti35    10.001   .     S
Ti35     Er3    10.0   1_565     S
Ti36     Er7    10.0   1_655     S
Ti36     Er12    10.0   1_565     S
Ti36     V39    10.001   .     S
Er37     V39    10.0   .     S
Er38     V39    10.0   .     S
Er38     Ti41    10.0   .     S
V39     Ti40    10.001   .     S
Ti40     Er18    10.0   1_565     S
Ti40     Er43    10.0   1_655     S
Ti41     Er82    10.0   .     S
Ti41     V44    10.001   1_655     S
Er42     V44    10.0   .     S
Er42     Ti55    10.0   .     S
Er42     Ti81    10.0   1_455     S
Er43     Ti40    10.0   1_455     S
Er43     V44    10.0   .     S
V44     Ti41    10.001   1_455     S
V44     Ti45    10.001   .     S
Ti45     Er52    10.0   .     S
Ti46     Er53    10.0   .     S
Ti46     Er88    10.0   .     S
Ti46     V48    10.001   1_556     S
Er47     V48    10.0   .     S
Er47     Ti80    10.0   .     S
Er47     Ti86    10.0   1_554     S
V48     Ti46    10.001   1_554     S
V48     Er49    10.0   .     S
V48     Ti50    10.001   .     S
Er49     Ti55    10.0   1_554     S
Er49     Ti106    10.0   .     S
Ti50     Er109    10.0   .     S
Ti50     Er77    10.0   .     S
Ti51     Er58    10.0   1_556     S
Ti51     V54    10.001   .     S
Er52     V54    10.0   .     S
Er53     V54    10.0   .     S
Er53     Ti56    10.0   .     S
V54     Ti55    10.001   .     S
Ti55     Er49    10.0   1_556     S
Ti56     Er68    10.0   .     S
Ti56     V59    10.001   1_556     S
Er57     V59    10.0   .     S
Er57     Ti61    10.0   .     S
Er57     Ti70    10.0   1_554     S
Er58     Ti51    10.0   1_554     S
Er58     V59    10.0   .     S
Er58     Ti110    10.0   .     S
V59     Ti56    10.001   1_554     S
V59     Ti60    10.001   .     S
Ti60     Er109    10.0   .     S
Ti60     Er63    10.0   .     S
Ti61     V62    10.001   .     S
V62     Er63    10.0   .     S
V62     Er64    10.0   .     S
V62     Ti65    10.001   .     S
Er63     Ti75    10.0   .     S
Ti65     Er74    10.0   .     S
Ti66     Er74    10.0   1_556     S
Ti66     V69    10.001   .     S
Er67     V69    10.0   .     S
Er68     V69    10.0   .     S
Er68     Ti71    10.0   .     S
V69     Ti70    10.001   .     S
Ti70     Er57    10.0   1_556     S
Ti71     Er83    10.0   .     S
Ti71     V73    10.001   1_556     S
Er72     V73    10.0   .     S
Er72     Ti85    10.0   1_554     S
Er72     Ti111    10.0   .     S
V73     Ti71    10.001   1_554     S
V73     Er74    10.0   .     S
V73     Ti75    10.001   .     S
Er74     Ti66    10.0   1_554     S
Ti75     Er112    10.0   .     S
Ti76     Er14    10.0   1_565     S
Ti76     Er93    10.0   .     S
Ti76     V79    10.001   .     S
Er77     V79    10.0   .     S
Er77     Ti95    10.0   .     S
Er78     V79    10.0   .     S
V79     Ti80    10.001   .     S
Ti80     Er2    10.0   1_565     S
Ti81     Er92    10.0   1_556     S
Ti81     Er42    10.0   1_655     S
Ti81     V84    10.001   .     S
Er82     V84    10.0   .     S
Er83     V84    10.0   .     S
Er83     Ti91    10.0   .     S
V84     Ti85    10.001   .     S
Ti85     Er72    10.0   1_556     S
Ti85     Er22    10.0   1_655     S
Ti86     Er47    10.0   1_556     S
Ti86     Er27    10.0   1_565     S
Ti86     V89    10.001   .     S
Er87     V89    10.0   .     S
Er88     V89    10.0   .     S
Er88     Ti91    10.0   .     S
V89     Ti90    10.001   .     S
Ti90     Er93    10.0   1_556     S
Ti90     Er17    10.0   1_565     S
Ti91     V94    10.001   1_556     S
Er92     Ti81    10.0   1_554     S
Er92     V94    10.0   .     S
Er92     Ti115    10.0   .     S
Er93     Ti90    10.0   1_554     S
Er93     V94    10.0   .     S
V94     Ti91    10.001   1_554     S
V94     Ti95    10.001   .     S
Ti95     Er112    10.0   .     S
Ti96     Er24    10.0   1_655     S
Ti96     V99    10.001   .     S
Er97     V99    10.0   .     S
Er98     V99    10.0   .     S
Er98     Ti116    10.0   .     S
V99     Ti100    10.001   .     S
Ti100     Er118    10.0   1_655     S
Ti101     V102    10.001   .     S
V102     Er103    10.0   .     S
V102     Er104    10.0   .     S
V102     Ti105    10.001   .     S
Er103     Ti120    10.0   .     S
Ti105     Er118    10.0   .     S
Ti106     V107    10.001   .     S
V107     Er108    10.0   .     S
V107     Er109    10.0   .     S
V107     Ti110    10.001   .     S
Er108     Ti120    10.0   .     S
Ti110     Er117    10.0   .     S
Ti111     Er117    10.0   1_655     S
Ti111     V114    10.001   .     S
Er112     V114    10.0   .     S
Er113     V114    10.0   .     S
Er113     Ti116    10.0   .     S
V114     Ti115    10.001   .     S
Ti115     Er9    10.0   1_655     S
Ti116     V119    10.001   1_655     S
Er117     Ti111    10.0   1_455     S
Er117     V119    10.0   .     S
Er118     Ti100    10.0   1_455     S
Er118     V119    10.0   .     S
V119     Ti116    10.001   1_455     S
V119     Ti120    10.001   .     S
