data_saba
_audit_creation_date              2020-02-04
_audit_creation_method            'Pymatgen'
_symmetry_space_group_name_H-M    'P1'
_symmetry_Int_Tables_number       1
loop_
_symmetry_equiv_pos_as_xyz
  x,y,z
_cell_length_a                    81.7647
_cell_length_b                    81.7647
_cell_length_c                    59.1245
_cell_angle_alpha                 90.0
_cell_angle_beta                 90.0
_cell_angle_gamma                 90.0
loop_
_atom_site_label
_atom_site_type_symbol
_atom_site_fract_x
_atom_site_fract_y
_atom_site_fract_z
V1     V     0.7208   0.007   0.5
S2     S     0.7266   0.0849   0.6302
Ti3     Ti     0.7652   0.1198   0.477
Ti4     Ti     0.6198   0.2652   0.477
H5     H     0.7789   0.3654   0.2845
Er6     Er     0.8096   0.3961   0.4426
H7     H     0.8654   0.2789   0.2845
Er8     Er     0.8961   0.3096   0.4426
Ce9     Ce     0.8107   0.2242   0.4156
Ce10     Ce     0.7242   0.3107   0.4156
V11     V     0.507   0.2208   0.5
S12     S     0.5849   0.2266   0.6302
V13     V     0.7792   0.493   0.0
S14     S     0.7734   0.4151   0.1301
Ti15     Ti     0.8802   0.2348   0.977
Ti16     Ti     0.7348   0.3802   0.977
H17     H     0.7211   0.1346   0.7845
Er18     Er     0.6904   0.1039   0.9426
H19     H     0.6347   0.2211   0.7845
Er20     Er     0.6039   0.1904   0.9426
Ce21     Ce     0.6893   0.2758   0.9156
Ce22     Ce     0.7758   0.1893   0.9156
V23     V     0.993   0.2792   0.0
S24     S     0.9151   0.2734   0.1301
V25     V     0.993   0.7208   0.5
S26     S     0.9151   0.7266   0.6302
Ti27     Ti     0.8802   0.7652   0.477
Ti28     Ti     0.7348   0.6198   0.477
Ce29     Ce     0.7758   0.8107   0.4156
Ce30     Ce     0.6893   0.7242   0.4156
H31     H     0.6347   0.7789   0.2845
Er32     Er     0.6039   0.8096   0.4426
H33     H     0.7211   0.8654   0.2845
Er34     Er     0.6904   0.8961   0.4426
V35     V     0.7792   0.507   0.5
S36     S     0.7734   0.5849   0.6302
V37     V     0.7208   0.993   0.0
S38     S     0.7266   0.9151   0.1301
Ti39     Ti     0.7652   0.8802   0.977
Ti40     Ti     0.6198   0.7348   0.977
H41     H     0.7789   0.6347   0.7845
Er42     Er     0.8096   0.6039   0.9426
H43     H     0.8654   0.7211   0.7845
Er44     Er     0.8961   0.6904   0.9426
Ce45     Ce     0.8107   0.7758   0.9156
Ce46     Ce     0.7242   0.6893   0.9156
V47     V     0.507   0.7792   0.0
S48     S     0.5849   0.7734   0.1301
V49     V     0.2792   0.993   0.5
S50     S     0.2734   0.9151   0.6302
Ti51     Ti     0.2348   0.8802   0.477
Ti52     Ti     0.3802   0.7348   0.477
H53     H     0.1346   0.7211   0.2845
Er54     Er     0.1039   0.6904   0.4426
H55     H     0.2211   0.6347   0.2845
Er56     Er     0.1904   0.6039   0.4426
Ce57     Ce     0.2758   0.6893   0.4156
Ce58     Ce     0.1893   0.7758   0.4156
V59     V     0.493   0.7792   0.5
S60     S     0.4151   0.7734   0.6302
V61     V     0.007   0.7208   0.0
S62     S     0.0849   0.7266   0.1301
Ti63     Ti     0.1198   0.7652   0.977
Ti64     Ti     0.2652   0.6198   0.977
H65     H     0.3654   0.7789   0.7845
Er66     Er     0.3961   0.8096   0.9426
H67     H     0.2789   0.8654   0.7845
Er68     Er     0.3096   0.8961   0.9426
Ce69     Ce     0.2242   0.8107   0.9156
Ce70     Ce     0.3107   0.7242   0.9156
V71     V     0.2208   0.507   0.0
S72     S     0.2266   0.5849   0.1301
V73     V     0.2208   0.493   0.5
S74     S     0.2266   0.4151   0.6302
Ti75     Ti     0.1198   0.2348   0.477
Ti76     Ti     0.2652   0.3802   0.477
H77     H     0.3654   0.2211   0.2845
Er78     Er     0.3961   0.1904   0.4426
H79     H     0.2789   0.1346   0.2845
Er80     Er     0.3096   0.1039   0.4426
Ce81     Ce     0.2242   0.1893   0.4156
Ce82     Ce     0.3107   0.2758   0.4156
V83     V     0.007   0.2792   0.5
S84     S     0.0849   0.2734   0.6302
V85     V     0.493   0.2208   0.0
S86     S     0.4151   0.2266   0.1301
Ti87     Ti     0.2348   0.1198   0.977
Ti88     Ti     0.3802   0.2652   0.977
H89     H     0.2211   0.3654   0.7845
Er90     Er     0.1904   0.3961   0.9426
H91     H     0.1346   0.2789   0.7845
Er92     Er     0.1039   0.3096   0.9426
Ce93     Ce     0.1893   0.2242   0.9156
Ce94     Ce     0.2758   0.3107   0.9156
V95     V     0.2792   0.007   0.0
S96     S     0.2734   0.0849   0.1301
loop_
_geom_bond_atom_site_label_1
_geom_bond_atom_site_label_2
_geom_bond_distance
_geom_bond_site_symmetry_2
_ccdc_geom_bond_type
V1     Er34    10.0   1_545     S
V1     S2    10.0   .     S
V1     Ti3    10.0   .     S
S2     H17    10.0   .     S
S2     Ti3    10.0   .     S
Ti3     Ce9    10.0   .     S
Ti4     Ce10    10.0   .     S
Ti4     V11    10.0   .     S
Ti4     S12    10.0   .     S
H5     Ce10    10.0   .     S
H5     Er6    10.0   .     S
H5     H7    10.0   .     S
H5     S14    10.0   .     S
Er6     Ce10    10.0   .     S
Er6     Er8    10.0   .     S
Er6     V35    10.0   .     S
H7     Ce9    10.0   .     S
H7     Er8    10.0   .     S
H7     S24    10.0   .     S
Er8     Ce9    10.0   .     S
Er8     V83    10.0   1_655     S
Ce9     Ce10    10.0   .     S
V11     Er78    10.0   .     S
V11     S12    10.0   .     S
S12     H19    10.0   .     S
V13     Er42    10.0   1_554     S
V13     S14    10.0   .     S
V13     Ti16    10.0   1_554     S
S14     Ti16    10.0   1_554     S
Ti15     Ce22    10.0   .     S
Ti15     V23    10.0   1_556     S
Ti15     S24    10.0   1_556     S
Ti16     S14    10.0   1_556     S
Ti16     Ce21    10.0   .     S
Ti16     V13    10.0   1_556     S
H17     Ce22    10.0   .     S
H17     Er18    10.0   .     S
H17     H19    10.0   .     S
Er18     Ce22    10.0   .     S
Er18     Er20    10.0   .     S
Er18     V37    10.0   1_546     S
H19     Ce21    10.0   .     S
H19     Er20    10.0   .     S
Er20     Ce21    10.0   .     S
Er20     V85    10.0   1_556     S
Ce21     Ce22    10.0   .     S
V23     Ti15    10.0   1_554     S
V23     Er92    10.0   1_654     S
V23     S24    10.0   .     S
S24     Ti15    10.0   1_554     S
V25     Er54    10.0   1_655     S
V25     S26    10.0   .     S
V25     Ti27    10.0   .     S
S26     H43    10.0   .     S
S26     Ti27    10.0   .     S
Ti27     Ce29    10.0   .     S
Ti28     Ce30    10.0   .     S
Ti28     V35    10.0   .     S
Ti28     S36    10.0   .     S
Ce29     Ce30    10.0   .     S
Ce29     H33    10.0   .     S
Ce29     Er34    10.0   .     S
Ce30     H31    10.0   .     S
Ce30     Er32    10.0   .     S
H31     Er32    10.0   .     S
H31     H33    10.0   .     S
H31     S48    10.0   .     S
Er32     Er34    10.0   .     S
Er32     V59    10.0   .     S
H33     Er34    10.0   .     S
H33     S38    10.0   .     S
Er34     V1    10.0   1_565     S
V35     S36    10.0   .     S
S36     H41    10.0   .     S
V37     Er18    10.0   1_564     S
V37     S38    10.0   .     S
V37     Ti39    10.0   1_554     S
S38     Ti39    10.0   1_554     S
Ti39     S38    10.0   1_556     S
Ti39     Ce45    10.0   .     S
Ti39     V37    10.0   1_556     S
Ti40     Ce46    10.0   .     S
Ti40     V47    10.0   1_556     S
Ti40     S48    10.0   1_556     S
H41     Ce46    10.0   .     S
H41     Er42    10.0   .     S
H41     H43    10.0   .     S
Er42     V13    10.0   1_556     S
Er42     Ce46    10.0   .     S
Er42     Er44    10.0   .     S
H43     Ce45    10.0   .     S
H43     Er44    10.0   .     S
Er44     Ce45    10.0   .     S
Er44     V61    10.0   1_656     S
Ce45     Ce46    10.0   .     S
V47     Ti40    10.0   1_554     S
V47     Er66    10.0   1_554     S
V47     S48    10.0   .     S
S48     Ti40    10.0   1_554     S
V49     Er80    10.0   1_565     S
V49     S50    10.0   .     S
V49     Ti51    10.0   .     S
S50     H67    10.0   .     S
S50     Ti51    10.0   .     S
Ti51     Ce58    10.0   .     S
Ti52     Ce57    10.0   .     S
Ti52     V59    10.0   .     S
Ti52     S60    10.0   .     S
H53     Ce58    10.0   .     S
H53     Er54    10.0   .     S
H53     H55    10.0   .     S
H53     S62    10.0   .     S
Er54     V25    10.0   1_455     S
Er54     Ce58    10.0   .     S
Er54     Er56    10.0   .     S
H55     Ce57    10.0   .     S
H55     Er56    10.0   .     S
H55     S72    10.0   .     S
Er56     Ce57    10.0   .     S
Er56     V73    10.0   .     S
Ce57     Ce58    10.0   .     S
V59     S60    10.0   .     S
S60     H65    10.0   .     S
V61     Er44    10.0   1_454     S
V61     S62    10.0   .     S
V61     Ti63    10.0   1_554     S
S62     Ti63    10.0   1_554     S
Ti63     S62    10.0   1_556     S
Ti63     Ce69    10.0   .     S
Ti63     V61    10.0   1_556     S
Ti64     Ce70    10.0   .     S
Ti64     V71    10.0   1_556     S
Ti64     S72    10.0   1_556     S
H65     Ce70    10.0   .     S
H65     Er66    10.0   .     S
H65     H67    10.0   .     S
Er66     V47    10.0   1_556     S
Er66     Ce70    10.0   .     S
Er66     Er68    10.0   .     S
H67     Ce69    10.0   .     S
H67     Er68    10.0   .     S
Er68     Ce69    10.0   .     S
Er68     V95    10.0   1_566     S
Ce69     Ce70    10.0   .     S
V71     Ti64    10.0   1_554     S
V71     Er90    10.0   1_554     S
V71     S72    10.0   .     S
S72     Ti64    10.0   1_554     S
V73     S74    10.0   .     S
V73     Ti76    10.0   .     S
S74     H89    10.0   .     S
S74     Ti76    10.0   .     S
Ti75     Ce81    10.0   .     S
Ti75     V83    10.0   .     S
Ti75     S84    10.0   .     S
Ti76     Ce82    10.0   .     S
H77     Ce82    10.0   .     S
H77     Er78    10.0   .     S
H77     H79    10.0   .     S
H77     S86    10.0   .     S
Er78     Ce82    10.0   .     S
Er78     Er80    10.0   .     S
H79     Ce81    10.0   .     S
H79     Er80    10.0   .     S
H79     S96    10.0   .     S
Er80     V49    10.0   1_545     S
Er80     Ce81    10.0   .     S
Ce81     Ce82    10.0   .     S
V83     Er8    10.0   1_455     S
V83     S84    10.0   .     S
S84     H91    10.0   .     S
V85     Er20    10.0   1_554     S
V85     S86    10.0   .     S
V85     Ti88    10.0   1_554     S
S86     Ti88    10.0   1_554     S
Ti87     Ce93    10.0   .     S
Ti87     V95    10.0   1_556     S
Ti87     S96    10.0   1_556     S
Ti88     S86    10.0   1_556     S
Ti88     Ce94    10.0   .     S
Ti88     V85    10.0   1_556     S
H89     Ce94    10.0   .     S
H89     Er90    10.0   .     S
H89     H91    10.0   .     S
Er90     V71    10.0   1_556     S
Er90     Ce94    10.0   .     S
Er90     Er92    10.0   .     S
H91     Ce93    10.0   .     S
H91     Er92    10.0   .     S
Er92     V23    10.0   1_456     S
Er92     Ce93    10.0   .     S
Ce93     Ce94    10.0   .     S
V95     Ti87    10.0   1_554     S
V95     Er68    10.0   1_544     S
V95     S96    10.0   .     S
S96     Ti87    10.0   1_554     S
