data_sat
_audit_creation_date              2020-02-04
_audit_creation_method            'Pymatgen'
_symmetry_space_group_name_H-M    'P1'
_symmetry_Int_Tables_number       1
loop_
_symmetry_equiv_pos_as_xyz
  x,y,z
_cell_length_a                    41.601
_cell_length_b                    41.601
_cell_length_c                    96.8305
_cell_angle_alpha                 90.0
_cell_angle_beta                 90.0
_cell_angle_gamma                 120.0
loop_
_atom_site_label
_atom_site_type_symbol
_atom_site_fract_x
_atom_site_fract_y
_atom_site_fract_z
Er1     Er     0.5737   0.6667   0.615
Er2     Er     0.3333   0.4263   0.615
Er3     Er     0.093   0.4263   0.615
Er4     Er     0.5737   0.907   0.615
Er5     Er     0.3333   0.907   0.615
Er6     Er     0.093   0.6667   0.615
V7     V     0.6667   0.5737   0.5383
V8     V     0.5737   0.6667   0.4617
V9     V     0.6667   0.093   0.5383
V10     V     0.5737   0.907   0.4617
V11     V     0.907   0.5737   0.5383
V12     V     0.093   0.6667   0.4617
V13     V     0.4263   0.093   0.5383
V14     V     0.3333   0.907   0.4617
V15     V     0.4263   0.3333   0.5383
V16     V     0.3333   0.4263   0.4617
V17     V     0.093   0.4263   0.4617
V18     V     0.907   0.3333   0.5383
Er19     Er     0.907   0.5737   0.385
Er20     Er     0.907   0.3333   0.385
Er21     Er     0.6667   0.093   0.385
Er22     Er     0.6667   0.5737   0.385
Er23     Er     0.4263   0.3333   0.385
Er24     Er     0.4263   0.093   0.385
Er25     Er     0.0   0.7596   0.9484
Er26     Er     0.0   0.2404   0.9484
Er27     Er     0.2404   0.2404   0.9484
Er28     Er     0.2404   0.0   0.9484
Er29     Er     0.7596   0.0   0.9484
Er30     Er     0.7596   0.7596   0.9484
V31     V     0.7596   0.7596   0.795
V32     V     0.5737   0.6667   0.8717
V33     V     0.7596   0.0   0.795
V34     V     0.5737   0.907   0.8717
V35     V     0.0   0.7596   0.795
V36     V     0.093   0.6667   0.8717
V37     V     0.0   0.2404   0.795
V38     V     0.093   0.4263   0.8717
V39     V     0.2404   0.2404   0.795
V40     V     0.3333   0.4263   0.8717
V41     V     0.2404   0.0   0.795
V42     V     0.3333   0.907   0.8717
Er43     Er     0.093   0.4263   0.7183
Er44     Er     0.3333   0.4263   0.7183
Er45     Er     0.5737   0.6667   0.7183
Er46     Er     0.5737   0.907   0.7183
Er47     Er     0.3333   0.907   0.7183
Er48     Er     0.093   0.6667   0.7183
Er49     Er     0.7596   0.0   0.0516
Er50     Er     0.7596   0.7596   0.0516
Er51     Er     0.0   0.7596   0.0516
Er52     Er     0.2404   0.0   0.0516
Er53     Er     0.2404   0.2404   0.0516
Er54     Er     0.0   0.2404   0.0516
V55     V     0.7596   0.7596   0.205
V56     V     0.6667   0.5737   0.1283
V57     V     0.7596   0.0   0.205
V58     V     0.6667   0.093   0.1283
V59     V     0.4263   0.3333   0.1283
V60     V     0.2404   0.2404   0.205
V61     V     0.4263   0.093   0.1283
V62     V     0.2404   0.0   0.205
V63     V     0.0   0.7596   0.205
V64     V     0.907   0.5737   0.1283
V65     V     0.907   0.3333   0.1283
V66     V     0.0   0.2404   0.205
Er67     Er     0.907   0.3333   0.2817
Er68     Er     0.907   0.5737   0.2817
Er69     Er     0.6667   0.5737   0.2817
Er70     Er     0.6667   0.093   0.2817
Er71     Er     0.4263   0.093   0.2817
Er72     Er     0.4263   0.3333   0.2817
loop_
_geom_bond_atom_site_label_1
_geom_bond_atom_site_label_2
_geom_bond_distance
_geom_bond_site_symmetry_2
_ccdc_geom_bond_type
Er1     V7    10.0   .     S
Er1     Er4    10.0   .     S
Er1     Er2    10.0   .     S
Er1     Er45    10.001   .     S
Er2     V15    10.0   .     S
Er2     Er3    10.0   .     S
Er2     Er44    10.001   .     S
Er3     V18    10.0   1_455     S
Er3     Er6    10.0   .     S
Er3     Er43    10.001   .     S
Er4     V9    10.0   1_565     S
Er4     Er5    10.0   .     S
Er4     Er46    10.001   .     S
Er5     V13    10.0   1_565     S
Er5     Er6    10.0   .     S
Er5     Er47    10.001   .     S
Er6     V11    10.0   1_455     S
Er6     Er48    10.001   .     S
V7     V8    10.0   .     S
V7     V15    10.0   .     S
V7     V11    10.0   .     S
V8     V10    10.0   .     S
V8     V16    10.0   .     S
V8     Er22    10.0   .     S
V9     Er4    10.0   1_545     S
V9     V10    10.0   1_545     S
V9     V13    10.0   .     S
V9     V18    10.0   .     S
V10     V9    10.0   1_565     S
V10     V14    10.0   .     S
V10     Er21    10.0   1_565     S
V11     Er6    10.0   1_655     S
V11     V12    10.0   1_655     S
V11     V18    10.0   .     S
V12     V11    10.0   1_455     S
V12     V14    10.0   .     S
V12     V17    10.0   .     S
V12     Er19    10.0   1_455     S
V13     Er5    10.0   1_545     S
V13     V14    10.0   1_545     S
V13     V15    10.0   .     S
V14     V13    10.0   1_565     S
V14     Er24    10.0   1_565     S
V15     V16    10.0   .     S
V16     V17    10.0   .     S
V16     Er23    10.0   .     S
V17     V18    10.0   1_455     S
V17     Er20    10.0   1_455     S
V18     Er3    10.0   1_655     S
V18     V17    10.0   1_655     S
Er19     V12    10.0   1_655     S
Er19     Er22    10.0   .     S
Er19     Er20    10.0   .     S
Er19     Er68    10.001   .     S
Er20     V17    10.0   1_655     S
Er20     Er21    10.0   .     S
Er20     Er67    10.001   .     S
Er21     V10    10.0   1_545     S
Er21     Er24    10.0   .     S
Er21     Er70    10.001   .     S
Er22     Er23    10.0   .     S
Er22     Er69    10.001   .     S
Er23     Er24    10.0   .     S
Er23     Er72    10.001   .     S
Er24     V14    10.0   1_545     S
Er24     Er71    10.001   .     S
Er25     V36    10.0   .     S
Er25     Er30    10.0   1_455     S
Er25     Er28    10.0   1_565     S
Er25     Er51    10.001   1_556     S
Er26     V38    10.0   .     S
Er26     Er29    10.0   1_455     S
Er26     Er27    10.0   .     S
Er26     Er54    10.001   1_556     S
Er27     V40    10.0   .     S
Er27     Er28    10.0   .     S
Er27     Er53    10.001   1_556     S
Er28     Er25    10.0   1_545     S
Er28     V42    10.0   1_545     S
Er28     Er52    10.001   1_556     S
Er29     Er26    10.0   1_655     S
Er29     V34    10.0   1_545     S
Er29     Er30    10.0   1_545     S
Er29     Er49    10.001   1_556     S
Er30     Er25    10.0   1_655     S
Er30     V32    10.0   .     S
Er30     Er29    10.0   1_565     S
Er30     Er50    10.001   1_556     S
V31     V32    10.0   .     S
V31     V33    10.0   1_565     S
V31     V35    10.0   1_655     S
V31     Er45    10.0   .     S
V32     V34    10.0   .     S
V32     V40    10.0   .     S
V33     V31    10.0   1_545     S
V33     V34    10.0   1_545     S
V33     V37    10.0   1_655     S
V33     Er46    10.0   1_545     S
V34     Er29    10.0   1_565     S
V34     V33    10.0   1_565     S
V34     V42    10.0   .     S
V35     V36    10.0   .     S
V35     V31    10.0   1_455     S
V35     V41    10.0   1_565     S
V35     Er48    10.0   .     S
V36     V42    10.0   .     S
V36     V38    10.0   .     S
V37     V38    10.0   .     S
V37     V33    10.0   1_455     S
V37     V39    10.0   .     S
V37     Er43    10.0   .     S
V38     V40    10.0   .     S
V39     V40    10.0   .     S
V39     V41    10.0   .     S
V39     Er44    10.0   .     S
V41     V35    10.0   1_545     S
V41     V42    10.0   1_545     S
V41     Er47    10.0   1_545     S
V42     Er28    10.0   1_565     S
V42     V41    10.0   1_565     S
Er43     Er48    10.0   .     S
Er43     Er44    10.0   .     S
Er44     Er45    10.0   .     S
Er45     Er46    10.0   .     S
Er46     V33    10.0   1_565     S
Er46     Er47    10.0   .     S
Er47     V41    10.0   1_565     S
Er47     Er48    10.0   .     S
Er49     V58    10.0   .     S
Er49     Er50    10.0   1_545     S
Er49     Er54    10.0   1_655     S
Er49     Er29    10.001   1_554     S
Er50     V56    10.0   .     S
Er50     Er49    10.0   1_565     S
Er50     Er51    10.0   1_655     S
Er50     Er30    10.001   1_554     S
Er51     V64    10.0   1_455     S
Er51     Er50    10.0   1_455     S
Er51     Er52    10.0   1_565     S
Er51     Er25    10.001   1_554     S
Er52     Er51    10.0   1_545     S
Er52     V61    10.0   .     S
Er52     Er53    10.0   .     S
Er52     Er28    10.001   1_554     S
Er53     V59    10.0   .     S
Er53     Er54    10.0   .     S
Er53     Er27    10.001   1_554     S
Er54     V65    10.0   1_455     S
Er54     Er49    10.0   1_455     S
Er54     Er26    10.001   1_554     S
V55     V56    10.0   .     S
V55     V57    10.0   1_565     S
V55     V63    10.0   1_655     S
V55     Er69    10.0   .     S
V56     V59    10.0   .     S
V56     V64    10.0   .     S
V57     V55    10.0   1_545     S
V57     V58    10.0   .     S
V57     V66    10.0   1_655     S
V57     Er70    10.0   .     S
V58     V61    10.0   .     S
V58     V65    10.0   .     S
V59     V60    10.0   .     S
V59     V61    10.0   .     S
V60     V62    10.0   .     S
V60     V66    10.0   .     S
V60     Er72    10.0   .     S
V61     V62    10.0   .     S
V62     V63    10.0   1_545     S
V62     Er71    10.0   .     S
V63     V64    10.0   1_455     S
V63     V55    10.0   1_455     S
V63     V62    10.0   1_565     S
V63     Er68    10.0   1_455     S
V64     Er51    10.0   1_655     S
V64     V63    10.0   1_655     S
V64     V65    10.0   .     S
V65     Er54    10.0   1_655     S
V65     V66    10.0   1_655     S
V66     V65    10.0   1_455     S
V66     V57    10.0   1_455     S
V66     Er67    10.0   1_455     S
Er67     V66    10.0   1_655     S
Er67     Er68    10.0   .     S
Er67     Er70    10.0   .     S
Er68     V63    10.0   1_655     S
Er68     Er69    10.0   .     S
Er69     Er72    10.0   .     S
Er70     Er71    10.0   .     S
Er71     Er72    10.0   .     S
