data_sbq
_audit_creation_date              2020-02-04
_audit_creation_method            'Pymatgen'
_symmetry_space_group_name_H-M    'P1'
_symmetry_Int_Tables_number       1
loop_
_symmetry_equiv_pos_as_xyz
  x,y,z
_cell_length_a                    31.2539
_cell_length_b                    43.6573
_cell_length_c                    45.4201
_cell_angle_alpha                 90.0
_cell_angle_beta                 102.4981
_cell_angle_gamma                 90.0
loop_
_atom_site_label
_atom_site_type_symbol
_atom_site_fract_x
_atom_site_fract_y
_atom_site_fract_z
H1     H     0.1737   0.3272   0.1797
V2     V     0.591   0.0502   0.2648
B3     B     0.4114   0.2189   0.3253
Li4     Li     0.0972   0.1769   0.3263
Er5     Er     0.2644   0.0324   0.2224
Be6     Be     0.6267   0.2697   0.0438
Ce7     Ce     0.4131   0.1035   0.0607
He8     He     0.9355   0.2144   0.0389
Ti9     Ti     0.8705   0.323   0.218
S10     S     0.7317   0.0546   0.087
H11     H     0.6737   0.1728   0.6797
V12     V     0.091   0.4498   0.7648
B13     B     0.9114   0.2811   0.8253
Li14     Li     0.5972   0.3231   0.8263
Er15     Er     0.7644   0.4676   0.7224
Be16     Be     0.1267   0.2303   0.5438
Ce17     Ce     0.9131   0.3965   0.5607
He18     He     0.4355   0.2856   0.5389
Ti19     Ti     0.3705   0.177   0.718
S20     S     0.2317   0.4454   0.587
V21     V     0.909   0.5502   0.2352
B22     B     0.0886   0.7189   0.1747
Li23     Li     0.4028   0.6769   0.1737
Er24     Er     0.2356   0.5324   0.2776
Be25     Be     0.8733   0.7697   0.4562
Ce26     Ce     0.0869   0.6035   0.4393
He27     He     0.5645   0.7144   0.4611
Ti28     Ti     0.6295   0.823   0.282
S29     S     0.7683   0.5546   0.413
H30     H     0.3263   0.8272   0.3203
H31     H     0.8263   0.6728   0.8203
V32     V     0.409   0.9498   0.7352
B33     B     0.5886   0.7811   0.6747
Li34     Li     0.9028   0.8231   0.6737
Er35     Er     0.7356   0.9676   0.7776
Be36     Be     0.3733   0.7303   0.9562
Ce37     Ce     0.5869   0.8965   0.9393
He38     He     0.0645   0.7856   0.9611
Ti39     Ti     0.1295   0.677   0.782
S40     S     0.2683   0.9454   0.913
loop_
_geom_bond_atom_site_label_1
_geom_bond_atom_site_label_2
_geom_bond_distance
_geom_bond_site_symmetry_2
_ccdc_geom_bond_type
H1     Ti9    10.0   1_455     S
H1     B3    10.0   .     S
H1     Li4    10.0   .     S
H1     He8    10.0   1_455     S
H1     Er24    10.0   .     S
V2     B3    10.0   .     S
V2     Er5    10.0   .     S
V2     Ce7    10.0   .     S
V2     S10    10.0   .     S
V2     Ti28    10.0   1_545     S
B3     Li4    10.0   .     S
B3     Er5    10.0   .     S
B3     He18    10.0   .     S
Li4     Er5    10.0   .     S
Li4     Ti9    10.0   1_455     S
Li4     Be16    10.0   .     S
Er5     Ce7    10.0   .     S
Er5     H30    10.0   1_545     S
Be6     Li14    10.0   1_554     S
Be6     Ce7    10.0   .     S
Be6     He8    10.0   .     S
Be6     Ti9    10.0   .     S
Be6     S10    10.0   .     S
Ce7     S10    10.0   .     S
Ce7     S40    10.0   1_544     S
He8     B13    10.0   1_554     S
He8     Ti9    10.0   .     S
He8     S10    10.0   .     S
He8     H1    10.0   1_655     S
Ti9     H1    10.0   1_655     S
Ti9     Li4    10.0   1_655     S
Ti9     V21    10.0   .     S
S10     Ce37    10.0   1_544     S
H11     Ti19    10.0   .     S
H11     B13    10.0   .     S
H11     Li14    10.0   .     S
H11     He18    10.0   .     S
H11     Er35    10.0   1_545     S
V12     B13    10.0   1_455     S
V12     Er15    10.0   1_455     S
V12     Ce17    10.0   1_455     S
V12     S20    10.0   .     S
V12     Ti39    10.0   .     S
B13     He8    10.0   1_556     S
B13     V12    10.0   1_655     S
B13     Er15    10.0   .     S
B13     Li14    10.0   .     S
Li14     Be6    10.0   1_556     S
Li14     Er15    10.0   .     S
Li14     Ti19    10.0   .     S
Er15     Ce17    10.0   .     S
Er15     V12    10.0   1_655     S
Er15     H31    10.0   .     S
Be16     Ce17    10.0   1_455     S
Be16     He18    10.0   .     S
Be16     Ti19    10.0   .     S
Be16     S20    10.0   .     S
Ce17     V12    10.0   1_655     S
Ce17     Be16    10.0   1_655     S
Ce17     S20    10.0   1_655     S
Ce17     S29    10.0   .     S
He18     Ti19    10.0   .     S
He18     S20    10.0   .     S
Ti19     V32    10.0   1_545     S
S20     Ce26    10.0   .     S
S20     Ce17    10.0   1_455     S
V21     B22    10.0   1_655     S
V21     Er24    10.0   1_655     S
V21     Ce26    10.0   1_655     S
V21     S29    10.0   .     S
B22     V21    10.0   1_455     S
B22     H30    10.0   .     S
B22     Er24    10.0   .     S
B22     Li23    10.0   .     S
B22     He38    10.0   1_554     S
Li23     Er24    10.0   .     S
Li23     H30    10.0   .     S
Li23     Ti28    10.0   .     S
Li23     Be36    10.0   1_554     S
Er24     Ce26    10.0   .     S
Er24     V21    10.0   1_455     S
Be25     Li34    10.0   .     S
Be25     Ce26    10.0   1_655     S
Be25     He27    10.0   .     S
Be25     Ti28    10.0   .     S
Be25     S29    10.0   .     S
Ce26     V21    10.0   1_455     S
Ce26     Be25    10.0   1_455     S
Ce26     S29    10.0   1_455     S
He27     B33    10.0   .     S
He27     Ti28    10.0   .     S
He27     S29    10.0   .     S
He27     H30    10.0   .     S
Ti28     V2    10.0   1_565     S
Ti28     H30    10.0   .     S
S29     Ce26    10.0   1_655     S
H30     Er5    10.0   1_565     S
H31     Ti39    10.0   1_655     S
H31     B33    10.0   .     S
H31     Li34    10.0   .     S
H31     He38    10.0   1_655     S
V32     B33    10.0   .     S
V32     Er35    10.0   .     S
V32     Ce37    10.0   .     S
V32     S40    10.0   .     S
V32     Ti19    10.0   1_565     S
B33     Er35    10.0   .     S
B33     Li34    10.0   .     S
Li34     Er35    10.0   .     S
Li34     Ti39    10.0   1_655     S
Er35     Ce37    10.0   .     S
Er35     H11    10.0   1_565     S
Be36     Li23    10.0   1_556     S
Be36     Ce37    10.0   .     S
Be36     He38    10.0   .     S
Be36     Ti39    10.0   .     S
Be36     S40    10.0   .     S
Ce37     S10    10.0   1_566     S
Ce37     S40    10.0   .     S
He38     B22    10.0   1_556     S
He38     Ti39    10.0   .     S
He38     S40    10.0   .     S
He38     H31    10.0   1_455     S
Ti39     H31    10.0   1_455     S
Ti39     Li34    10.0   1_455     S
S40     Ce7    10.0   1_566     S
