data_sbra
_audit_creation_date              2020-02-04
_audit_creation_method            'Pymatgen'
_symmetry_space_group_name_H-M    'P1'
_symmetry_Int_Tables_number       1
loop_
_symmetry_equiv_pos_as_xyz
  x,y,z
_cell_length_a                    56.3517
_cell_length_b                    107.8502
_cell_length_c                    52.6074
_cell_angle_alpha                 90.0
_cell_angle_beta                 90.0
_cell_angle_gamma                 90.0
loop_
_atom_site_label
_atom_site_type_symbol
_atom_site_fract_x
_atom_site_fract_y
_atom_site_fract_z
V1     V     0.6896   0.2964   0.9304
V2     V     0.8104   0.2964   0.0696
V3     V     0.6896   0.2036   0.9304
V4     V     0.8104   0.2036   0.0696
V5     V     0.8104   0.7036   0.9304
V6     V     0.6896   0.7036   0.0696
V7     V     0.8104   0.7964   0.9304
V8     V     0.6896   0.7964   0.0696
V9     V     0.1896   0.7036   0.9304
V10     V     0.3104   0.7036   0.0696
V11     V     0.1896   0.7964   0.9304
V12     V     0.3104   0.7964   0.0696
Er13     Er     0.9113   0.5859   0.6818
Ti14     Ti     0.9113   0.6507   0.8177
Er15     Er     0.5887   0.4141   0.6818
Ti16     Ti     0.5887   0.3493   0.8177
Er17     Er     0.9113   0.4141   0.3182
Ti18     Ti     0.9113   0.3493   0.1823
Er19     Er     0.5887   0.5859   0.3182
Ti20     Ti     0.5887   0.6507   0.1823
Ce21     Ce     0.6873   0.4672   0.5672
Ce22     Ce     0.8127   0.5328   0.5672
Ce23     Ce     0.6873   0.5328   0.4328
Ce24     Ce     0.8127   0.4672   0.4328
Er25     Er     0.0887   0.4141   0.3182
Ti26     Ti     0.0887   0.3493   0.1823
Er27     Er     0.4113   0.5859   0.3182
Ti28     Ti     0.4113   0.6507   0.1823
Er29     Er     0.0887   0.5859   0.6818
Ti30     Ti     0.0887   0.6507   0.8177
Er31     Er     0.4113   0.4141   0.6818
Ti32     Ti     0.4113   0.3493   0.8177
Ce33     Ce     0.1873   0.4672   0.4328
Ce34     Ce     0.3127   0.5328   0.4328
Ce35     Ce     0.1873   0.5328   0.5672
Ce36     Ce     0.3127   0.4672   0.5672
Er37     Er     0.5887   0.9141   0.3182
Ti38     Ti     0.5887   0.8493   0.1823
Er39     Er     0.5887   0.0859   0.6818
Ti40     Ti     0.5887   0.1507   0.8177
Er41     Er     0.9113   0.9141   0.6818
Ti42     Ti     0.9113   0.8493   0.8177
Er43     Er     0.9113   0.0859   0.3182
Ti44     Ti     0.9113   0.1507   0.1823
Ce45     Ce     0.6873   0.0328   0.5672
Ce46     Ce     0.8127   0.9672   0.5672
Ce47     Ce     0.8127   0.0328   0.4328
Ce48     Ce     0.6873   0.9672   0.4328
Er49     Er     0.0887   0.9141   0.6818
Ti50     Ti     0.0887   0.8493   0.8177
Er51     Er     0.4113   0.9141   0.3182
Ti52     Ti     0.4113   0.8493   0.1823
Er53     Er     0.0887   0.0859   0.3182
Ti54     Ti     0.0887   0.1507   0.1823
Er55     Er     0.4113   0.0859   0.6818
Ti56     Ti     0.4113   0.1507   0.8177
Ce57     Ce     0.1873   0.0328   0.4328
Ce58     Ce     0.3127   0.9672   0.4328
Ce59     Ce     0.3127   0.0328   0.5672
Ce60     Ce     0.1873   0.9672   0.5672
V61     V     0.3104   0.2964   0.9304
V62     V     0.1896   0.2964   0.0696
V63     V     0.3104   0.2036   0.9304
V64     V     0.1896   0.2036   0.0696
loop_
_geom_bond_atom_site_label_1
_geom_bond_atom_site_label_2
_geom_bond_distance
_geom_bond_site_symmetry_2
_ccdc_geom_bond_type
V1     V2    10.0   1_556     S
V1     V3    10.0   .     S
V1     Ti16    10.0   .     S
V2     V1    10.0   1_554     S
V2     V4    10.0   .     S
V2     Ti18    10.0   .     S
V3     V4    10.0   1_556     S
V3     Ti40    10.0   .     S
V4     V3    10.0   1_554     S
V4     Ti44    10.0   .     S
V5     V6    10.0   1_556     S
V5     V7    10.0   .     S
V5     Ti14    10.0   .     S
V6     V5    10.0   1_554     S
V6     V8    10.0   .     S
V6     Ti20    10.0   .     S
V7     V8    10.0   1_556     S
V7     Ti42    10.0   .     S
V8     V7    10.0   1_554     S
V8     Ti38    10.0   .     S
V9     V10    10.0   1_556     S
V9     V11    10.0   .     S
V9     Ti30    10.0   .     S
V10     V9    10.0   1_554     S
V10     V12    10.0   .     S
V10     Ti28    10.0   .     S
V11     V12    10.0   1_556     S
V11     Ti50    10.0   .     S
V12     V11    10.0   1_554     S
V12     Ti52    10.0   .     S
Er13     Ce22    10.0   .     S
Er13     Ti14    10.0   .     S
Er13     Er29    10.0   1_655     S
Ti14     Ti30    10.0   1_655     S
Er15     Ce21    10.0   .     S
Er15     Ti16    10.0   .     S
Er15     Er31    10.0   .     S
Ti16     Ti32    10.0   .     S
Er17     Ce24    10.0   .     S
Er17     Ti18    10.0   .     S
Er17     Er25    10.0   1_655     S
Ti18     Ti26    10.0   1_655     S
Er19     Ce23    10.0   .     S
Er19     Ti20    10.0   .     S
Er19     Er27    10.0   .     S
Ti20     Ti28    10.0   .     S
Ce21     Ce22    10.0   .     S
Ce21     Ce23    10.0   .     S
Ce21     Ce24    10.0   .     S
Ce22     Ce23    10.0   .     S
Ce22     Ce24    10.0   .     S
Ce23     Ce24    10.0   .     S
Er25     Ce33    10.0   .     S
Er25     Ti26    10.0   .     S
Er25     Er17    10.0   1_455     S
Ti26     Ti18    10.0   1_455     S
Ti26     V62    10.0   .     S
Er27     Ce34    10.0   .     S
Er27     Ti28    10.0   .     S
Er29     Ce35    10.0   .     S
Er29     Ti30    10.0   .     S
Er29     Er13    10.0   1_455     S
Ti30     Ti14    10.0   1_455     S
Er31     Ce36    10.0   .     S
Er31     Ti32    10.0   .     S
Ti32     V61    10.0   .     S
Ce33     Ce34    10.0   .     S
Ce33     Ce35    10.0   .     S
Ce33     Ce36    10.0   .     S
Ce34     Ce35    10.0   .     S
Ce34     Ce36    10.0   .     S
Ce35     Ce36    10.0   .     S
Er37     Ce48    10.0   .     S
Er37     Ti38    10.0   .     S
Er37     Er51    10.0   .     S
Ti38     Ti52    10.0   .     S
Er39     Ce45    10.0   .     S
Er39     Ti40    10.0   .     S
Er39     Er55    10.0   .     S
Ti40     Ti56    10.0   .     S
Er41     Ce46    10.0   .     S
Er41     Ti42    10.0   .     S
Er41     Er49    10.0   1_655     S
Ti42     Ti50    10.0   1_655     S
Er43     Ce47    10.0   .     S
Er43     Ti44    10.0   .     S
Er43     Er53    10.0   1_655     S
Ti44     Ti54    10.0   1_655     S
Ce45     Ce46    10.0   1_545     S
Ce45     Ce47    10.0   .     S
Ce45     Ce48    10.0   1_545     S
Ce46     Ce45    10.0   1_565     S
Ce46     Ce47    10.0   1_565     S
Ce46     Ce48    10.0   .     S
Ce47     Ce48    10.0   1_545     S
Ce47     Ce46    10.0   1_545     S
Ce48     Ce47    10.0   1_565     S
Ce48     Ce45    10.0   1_565     S
Er49     Ce60    10.0   .     S
Er49     Ti50    10.0   .     S
Er49     Er41    10.0   1_455     S
Ti50     Ti42    10.0   1_455     S
Er51     Ce58    10.0   .     S
Er51     Ti52    10.0   .     S
Er53     Ce57    10.0   .     S
Er53     Ti54    10.0   .     S
Er53     Er43    10.0   1_455     S
Ti54     Ti44    10.0   1_455     S
Ti54     V64    10.0   .     S
Er55     Ce59    10.0   .     S
Er55     Ti56    10.0   .     S
Ti56     V63    10.0   .     S
Ce57     Ce58    10.0   1_545     S
Ce57     Ce60    10.0   1_545     S
Ce57     Ce59    10.0   .     S
Ce58     Ce57    10.0   1_565     S
Ce58     Ce59    10.0   1_565     S
Ce58     Ce60    10.0   .     S
Ce59     Ce60    10.0   1_545     S
Ce59     Ce58    10.0   1_545     S
Ce60     Ce59    10.0   1_565     S
Ce60     Ce57    10.0   1_565     S
V61     V62    10.0   1_556     S
V61     V63    10.0   .     S
V62     V61    10.0   1_554     S
V62     V64    10.0   .     S
V63     V64    10.0   1_556     S
V64     V63    10.0   1_554     S
