data_scpa
_audit_creation_date              2020-02-04
_audit_creation_method            'Pymatgen'
_symmetry_space_group_name_H-M    'P1'
_symmetry_Int_Tables_number       1
loop_
_symmetry_equiv_pos_as_xyz
  x,y,z
_cell_length_a                    36.7206
_cell_length_b                    36.7206
_cell_length_c                    155.9167
_cell_angle_alpha                 90.0
_cell_angle_beta                 90.0
_cell_angle_gamma                 90.0
loop_
_atom_site_label
_atom_site_type_symbol
_atom_site_fract_x
_atom_site_fract_y
_atom_site_fract_z
Ti1     Ti     0.1959   0.6137   0.7794
Ti2     Ti     0.3041   0.6137   0.7206
Ti3     Ti     0.1959   0.8863   0.7794
Ti4     Ti     0.3041   0.8863   0.7206
V5     V     0.1363   0.386   0.938
V6     V     0.1363   0.114   0.938
V7     V     0.8637   0.114   0.938
V8     V     0.8637   0.386   0.938
V9     V     0.136   0.3863   0.812
V10     V     0.864   0.3863   0.812
V11     V     0.136   0.1137   0.812
V12     V     0.864   0.1137   0.812
Ce13     Ce     0.3641   0.6141   0.875
Ce14     Ce     0.3641   0.8859   0.875
Ce15     Ce     0.6359   0.6141   0.875
Ce16     Ce     0.6359   0.8859   0.875
Er17     Er     0.8282   0.0782   0.875
Er18     Er     0.8282   0.4218   0.875
Er19     Er     0.1718   0.4218   0.875
Er20     Er     0.1718   0.0782   0.875
Ti21     Ti     0.6363   0.0541   0.9706
Ti22     Ti     0.6363   0.9459   0.0294
Ti23     Ti     0.3637   0.0541   0.9706
Ti24     Ti     0.3637   0.9459   0.0294
Ti25     Ti     0.6959   0.1137   0.2794
Ti26     Ti     0.8041   0.1137   0.2206
Ti27     Ti     0.8041   0.3863   0.2206
Ti28     Ti     0.6959   0.3863   0.2794
Ti29     Ti     0.3637   0.4459   0.9706
Ti30     Ti     0.3637   0.5541   0.0294
Ti31     Ti     0.6363   0.4459   0.9706
Ti32     Ti     0.6363   0.5541   0.0294
V33     V     0.136   0.8863   0.188
V34     V     0.864   0.8863   0.188
V35     V     0.1363   0.886   0.062
V36     V     0.1363   0.614   0.062
V37     V     0.136   0.6137   0.188
V38     V     0.864   0.6137   0.188
V39     V     0.8637   0.886   0.062
V40     V     0.8637   0.614   0.062
Er41     Er     0.1718   0.5782   0.125
Ce42     Ce     0.6359   0.3859   0.125
Ce43     Ce     0.3641   0.3859   0.125
Ce44     Ce     0.3641   0.1141   0.125
Ce45     Ce     0.6359   0.1141   0.125
Er46     Er     0.8282   0.5782   0.125
Er47     Er     0.1718   0.9218   0.125
Er48     Er     0.8282   0.9218   0.125
Ti49     Ti     0.1959   0.1137   0.2206
Ti50     Ti     0.3041   0.1137   0.2794
Ti51     Ti     0.1959   0.3863   0.2206
Ti52     Ti     0.3041   0.3863   0.2794
Ti53     Ti     0.8041   0.6137   0.7794
Ti54     Ti     0.6959   0.6137   0.7206
Ti55     Ti     0.6959   0.8863   0.7206
Ti56     Ti     0.8041   0.8863   0.7794
V57     V     0.364   0.3863   0.688
V58     V     0.636   0.3863   0.688
V59     V     0.364   0.1137   0.688
V60     V     0.636   0.1137   0.688
V61     V     0.3637   0.386   0.562
V62     V     0.3637   0.114   0.562
V63     V     0.6363   0.114   0.562
V64     V     0.6363   0.386   0.562
Ce65     Ce     0.8641   0.6141   0.625
Ce66     Ce     0.8641   0.8859   0.625
Ce67     Ce     0.1359   0.8859   0.625
Ce68     Ce     0.1359   0.6141   0.625
Er69     Er     0.6719   0.0782   0.625
Er70     Er     0.6719   0.4218   0.625
Er71     Er     0.3282   0.4218   0.625
Er72     Er     0.3282   0.0782   0.625
Ti73     Ti     0.1363   0.5541   0.4706
Ti74     Ti     0.1363   0.4459   0.5294
Ti75     Ti     0.8637   0.4459   0.5294
Ti76     Ti     0.8637   0.5541   0.4706
Ti77     Ti     0.1363   0.0541   0.5294
Ti78     Ti     0.1363   0.9459   0.4706
Ti79     Ti     0.8637   0.0541   0.5294
Ti80     Ti     0.8637   0.9459   0.4706
V81     V     0.364   0.8863   0.312
V82     V     0.636   0.8863   0.312
V83     V     0.3637   0.886   0.438
V84     V     0.3637   0.614   0.438
V85     V     0.6363   0.886   0.438
V86     V     0.6363   0.614   0.438
V87     V     0.364   0.6137   0.312
V88     V     0.636   0.6137   0.312
Ce89     Ce     0.8641   0.3859   0.375
Ce90     Ce     0.1359   0.3859   0.375
Ce91     Ce     0.1359   0.1141   0.375
Ce92     Ce     0.8641   0.1141   0.375
Er93     Er     0.6719   0.5782   0.375
Er94     Er     0.3282   0.9218   0.375
Er95     Er     0.3282   0.5782   0.375
Er96     Er     0.6719   0.9218   0.375
loop_
_geom_bond_atom_site_label_1
_geom_bond_atom_site_label_2
_geom_bond_distance
_geom_bond_site_symmetry_2
_ccdc_geom_bond_type
Ti1     Ti2    9.997   .     S
Ti1     Ti3    10.01   .     S
Ti1     V9    10.017   .     S
Ti2     Ti4    10.01   .     S
Ti2     V57    10.017   .     S
Ti3     Ti4    9.997   .     S
Ti3     V11    10.017   1_565     S
Ti4     V59    10.017   1_565     S
V5     Er19    9.998   .     S
V5     V8    10.012   1_455     S
V5     Ti29    10.017   .     S
V5     V6    9.987   .     S
V6     Er20    9.998   .     S
V6     V7    10.012   1_455     S
V6     Ti23    10.017   .     S
V7     Er17    9.998   .     S
V7     V6    10.012   1_655     S
V7     Ti21    10.017   .     S
V7     V8    9.987   .     S
V8     Er18    9.998   .     S
V8     V5    10.012   1_655     S
V8     Ti31    10.017   .     S
V9     Er19    9.998   .     S
V9     V11    10.012   .     S
V9     V10    9.987   1_455     S
V10     Er18    9.998   .     S
V10     V12    10.012   .     S
V10     Ti53    10.017   .     S
V10     V9    9.987   1_655     S
V11     Er20    9.998   .     S
V11     Ti3    10.017   1_545     S
V11     V12    9.987   1_455     S
V12     Er17    9.998   .     S
V12     Ti56    10.017   1_545     S
V12     V11    9.987   1_655     S
Ce13     Ce15    9.981   .     S
Ce13     Ce14    9.981   .     S
Ce13     Er19    9.983   .     S
Ce14     Ce16    9.981   .     S
Ce14     Er20    9.983   1_565     S
Ce15     Ce16    9.981   .     S
Ce15     Er18    9.983   .     S
Ce16     Er17    9.983   1_565     S
Er17     Ce16    9.983   1_545     S
Er20     Ce14    9.983   1_545     S
Ti21     Ti22    9.997   1_546     S
Ti21     Ti23    10.01   .     S
Ti22     Ti21    9.997   1_564     S
Ti22     Ti24    10.01   .     S
Ti22     V39    10.017   .     S
Ti23     Ti24    9.997   1_546     S
Ti24     Ti23    9.997   1_564     S
Ti24     V35    10.017   .     S
Ti25     Ti26    9.997   .     S
Ti25     Ti28    10.01   .     S
Ti25     V82    10.017   1_545     S
Ti26     Ti27    10.01   .     S
Ti26     V34    10.017   1_545     S
Ti27     Ti28    9.997   .     S
Ti27     V38    10.017   .     S
Ti28     V88    10.017   .     S
Ti29     Ti30    9.997   1_556     S
Ti29     Ti31    10.01   .     S
Ti30     Ti29    9.997   1_554     S
Ti30     Ti32    10.01   .     S
Ti30     V36    10.017   .     S
Ti31     Ti32    9.997   1_556     S
Ti32     Ti31    9.997   1_554     S
Ti32     V40    10.017   .     S
V33     Er47    9.998   .     S
V33     V37    10.012   .     S
V33     Ti49    10.017   1_565     S
V33     V34    9.987   1_455     S
V34     Er48    9.998   .     S
V34     V38    10.012   .     S
V34     Ti26    10.017   1_565     S
V34     V33    9.987   1_655     S
V35     Er47    9.998   .     S
V35     V39    10.012   1_455     S
V35     V36    9.987   .     S
V36     Er41    9.998   .     S
V36     V40    10.012   1_455     S
V37     Er41    9.998   .     S
V37     Ti51    10.017   .     S
V37     V38    9.987   1_455     S
V38     Er46    9.998   .     S
V38     V37    9.987   1_655     S
V39     Er48    9.998   .     S
V39     V35    10.012   1_655     S
V39     V40    9.987   .     S
V40     Er46    9.998   .     S
V40     V36    10.012   1_655     S
Er41     Ce43    9.983   .     S
Ce42     Ce45    9.981   .     S
Ce42     Ce43    9.981   .     S
Ce42     Er46    9.983   .     S
Ce43     Ce44    9.981   .     S
Ce44     Ce45    9.981   .     S
Ce44     Er47    9.983   1_545     S
Ce45     Er48    9.983   1_545     S
Er47     Ce44    9.983   1_565     S
Er48     Ce45    9.983   1_565     S
Ti49     V33    10.017   1_545     S
Ti49     Ti50    9.997   .     S
Ti49     Ti51    10.01   .     S
Ti50     Ti52    10.01   .     S
Ti50     V81    10.017   1_545     S
Ti51     Ti52    9.997   .     S
Ti52     V87    10.017   .     S
Ti53     Ti54    9.997   .     S
Ti53     Ti56    10.01   .     S
Ti54     Ti55    10.01   .     S
Ti54     V58    10.017   .     S
Ti55     Ti56    9.997   .     S
Ti55     V60    10.017   1_565     S
Ti56     V12    10.017   1_565     S
V57     Er71    9.998   .     S
V57     V59    10.012   .     S
V57     V58    9.987   .     S
V58     Er70    9.998   .     S
V58     V60    10.012   .     S
V59     Er72    9.998   .     S
V59     Ti4    10.017   1_545     S
V59     V60    9.987   .     S
V60     Er69    9.998   .     S
V60     Ti55    10.017   1_545     S
V61     Er71    9.998   .     S
V61     V64    10.012   .     S
V61     Ti74    10.017   .     S
V61     V62    9.987   .     S
V62     Er72    9.998   .     S
V62     V63    10.012   .     S
V62     Ti77    10.017   .     S
V63     Er69    9.998   .     S
V63     Ti79    10.017   .     S
V63     V64    9.987   .     S
V64     Er70    9.998   .     S
V64     Ti75    10.017   .     S
Ce65     Ce66    9.981   .     S
Ce65     Ce68    9.981   1_655     S
Ce65     Er70    9.983   .     S
Ce66     Ce67    9.981   1_655     S
Ce66     Er69    9.983   1_565     S
Ce67     Ce66    9.981   1_455     S
Ce67     Ce68    9.981   .     S
Ce67     Er72    9.983   1_565     S
Ce68     Ce65    9.981   1_455     S
Ce68     Er71    9.983   .     S
Er69     Ce66    9.983   1_545     S
Er72     Ce67    9.983   1_545     S
Ti73     Ti74    9.997   .     S
Ti73     Ti76    10.01   1_455     S
Ti73     V84    10.017   .     S
Ti74     Ti75    10.01   1_455     S
Ti75     Ti76    9.997   .     S
Ti75     Ti74    10.01   1_655     S
Ti76     Ti73    10.01   1_655     S
Ti76     V86    10.017   .     S
Ti77     Ti78    9.997   1_545     S
Ti77     Ti79    10.01   1_455     S
Ti78     Ti77    9.997   1_565     S
Ti78     Ti80    10.01   1_455     S
Ti78     V83    10.017   .     S
Ti79     Ti80    9.997   1_545     S
Ti79     Ti77    10.01   1_655     S
Ti80     Ti79    9.997   1_565     S
Ti80     Ti78    10.01   1_655     S
Ti80     V85    10.017   .     S
V81     Er94    9.998   .     S
V81     V87    10.012   .     S
V81     Ti50    10.017   1_565     S
V81     V82    9.987   .     S
V82     Er96    9.998   .     S
V82     V88    10.012   .     S
V82     Ti25    10.017   1_565     S
V83     Er94    9.998   .     S
V83     V85    10.012   .     S
V83     V84    9.987   .     S
V84     Er95    9.998   .     S
V84     V86    10.012   .     S
V85     Er96    9.998   .     S
V85     V86    9.987   .     S
V86     Er93    9.998   .     S
V87     Er95    9.998   .     S
V87     V88    9.987   .     S
V88     Er93    9.998   .     S
Ce89     Ce92    9.981   .     S
Ce89     Ce90    9.981   1_655     S
Ce89     Er93    9.983   .     S
Ce90     Ce91    9.981   .     S
Ce90     Ce89    9.981   1_455     S
Ce90     Er95    9.983   .     S
Ce91     Ce92    9.981   1_455     S
Ce91     Er94    9.983   1_545     S
Ce92     Ce91    9.981   1_655     S
Ce92     Er96    9.983   1_545     S
Er94     Ce91    9.983   1_565     S
Er96     Ce92    9.983   1_565     S
