data_sct
_audit_creation_date              2020-02-04
_audit_creation_method            'Pymatgen'
_symmetry_space_group_name_H-M    'P1'
_symmetry_Int_Tables_number       1
loop_
_symmetry_equiv_pos_as_xyz
  x,y,z
_cell_length_a                    70.5507
_cell_length_b                    16.3298
_cell_length_c                    43.0944
_cell_angle_alpha                 90.0
_cell_angle_beta                 90.0
_cell_angle_gamma                 90.0
loop_
_atom_site_label
_atom_site_type_symbol
_atom_site_fract_x
_atom_site_fract_y
_atom_site_fract_z
V1     V     0.9459   0.375   0.558
V2     V     0.9459   0.875   0.692
V3     V     0.8041   0.875   0.692
V4     V     0.8041   0.375   0.558
V5     V     0.8041   0.375   0.192
V6     V     0.8041   0.875   0.058
V7     V     0.9459   0.875   0.058
V8     V     0.9459   0.375   0.192
V9     V     0.5541   0.625   0.308
V10     V     0.5541   0.125   0.442
V11     V     0.6959   0.625   0.308
V12     V     0.6959   0.125   0.442
V13     V     0.5541   0.625   0.942
V14     V     0.5541   0.125   0.808
V15     V     0.6959   0.625   0.942
V16     V     0.6959   0.125   0.808
V17     V     0.0541   0.625   0.808
V18     V     0.0541   0.125   0.942
V19     V     0.1959   0.625   0.808
V20     V     0.1959   0.125   0.942
V21     V     0.4459   0.375   0.692
V22     V     0.4459   0.875   0.558
V23     V     0.3041   0.375   0.692
V24     V     0.3041   0.875   0.558
V25     V     0.4459   0.375   0.058
V26     V     0.4459   0.875   0.192
V27     V     0.3041   0.375   0.058
V28     V     0.3041   0.875   0.192
V29     V     0.1959   0.625   0.442
V30     V     0.1959   0.125   0.308
V31     V     0.0541   0.625   0.442
V32     V     0.0541   0.125   0.308
Er33     Er     0.125   0.125   0.741
Er34     Er     0.875   0.875   0.259
Er35     Er     0.125   0.625   0.009
Er36     Er     0.125   0.625   0.241
Er37     Er     0.375   0.375   0.259
Er38     Er     0.125   0.125   0.509
Er39     Er     0.875   0.375   0.991
Er40     Er     0.875   0.375   0.759
Er41     Er     0.625   0.125   0.009
Er42     Er     0.625   0.125   0.241
Er43     Er     0.375   0.875   0.991
Er44     Er     0.375   0.875   0.759
Er45     Er     0.625   0.625   0.741
Er46     Er     0.875   0.875   0.491
Er47     Er     0.625   0.625   0.509
Er48     Er     0.375   0.375   0.491
loop_
_geom_bond_atom_site_label_1
_geom_bond_atom_site_label_2
_geom_bond_distance
_geom_bond_site_symmetry_2
_ccdc_geom_bond_type
V1     Er46    10.0   1_545     S
V1     Er46    10.0   .     S
V1     V2    10.0   .     S
V1     Er40    10.0   .     S
V1     V2    10.0   1_545     S
V1     V4    10.0   .     S
V1     V31    10.0   1_655     S
V2     Er40    10.0   .     S
V2     Er40    10.0   1_565     S
V2     Er46    10.0   .     S
V2     V1    10.0   1_565     S
V2     V3    10.0   .     S
V2     V17    10.0   1_655     S
V3     Er40    10.0   .     S
V3     Er40    10.0   1_565     S
V3     V4    10.0   1_565     S
V3     Er46    10.0   .     S
V3     V4    10.0   .     S
V3     V16    10.0   1_565     S
V4     Er46    10.0   1_545     S
V4     Er46    10.0   .     S
V4     V3    10.0   1_545     S
V4     Er40    10.0   .     S
V4     V12    10.0   .     S
V5     Er34    10.0   1_545     S
V5     Er34    10.0   .     S
V5     V6    10.0   .     S
V5     Er39    10.0   1_554     S
V5     V6    10.0   1_545     S
V5     V8    10.0   .     S
V5     V11    10.0   .     S
V6     Er39    10.0   1_554     S
V6     Er39    10.0   1_564     S
V6     Er34    10.0   .     S
V6     V5    10.0   1_565     S
V6     V7    10.0   .     S
V6     V15    10.0   1_554     S
V7     Er39    10.0   1_554     S
V7     Er39    10.0   1_564     S
V7     V8    10.0   1_565     S
V7     Er34    10.0   .     S
V7     V8    10.0   .     S
V7     V18    10.0   1_664     S
V8     Er34    10.0   1_545     S
V8     Er34    10.0   .     S
V8     V7    10.0   1_545     S
V8     Er39    10.0   1_554     S
V8     V32    10.0   1_655     S
V9     Er42    10.0   1_565     S
V9     Er42    10.0   .     S
V9     V10    10.0   1_565     S
V9     Er47    10.0   .     S
V9     V10    10.0   .     S
V9     V11    10.0   .     S
V9     V26    10.0   .     S
V10     Er47    10.0   .     S
V10     Er47    10.0   1_545     S
V10     V9    10.0   1_545     S
V10     Er42    10.0   .     S
V10     V12    10.0   .     S
V10     V22    10.0   1_545     S
V11     Er42    10.0   1_565     S
V11     Er42    10.0   .     S
V11     V12    10.0   .     S
V11     Er47    10.0   .     S
V11     V12    10.0   1_565     S
V12     Er47    10.0   .     S
V12     Er47    10.0   1_545     S
V12     Er42    10.0   .     S
V12     V11    10.0   1_545     S
V13     Er41    10.0   1_566     S
V13     Er41    10.0   1_556     S
V13     V14    10.0   .     S
V13     Er45    10.0   .     S
V13     V14    10.0   1_565     S
V13     V15    10.0   .     S
V13     V25    10.0   1_556     S
V14     Er45    10.0   .     S
V14     Er45    10.0   1_545     S
V14     Er41    10.0   1_556     S
V14     V13    10.0   1_545     S
V14     V16    10.0   .     S
V14     V21    10.0   .     S
V15     Er41    10.0   1_566     S
V15     Er41    10.0   1_556     S
V15     V16    10.0   1_565     S
V15     Er45    10.0   .     S
V15     V16    10.0   .     S
V15     V6    10.0   1_556     S
V16     Er45    10.0   .     S
V16     Er45    10.0   1_545     S
V16     V15    10.0   1_545     S
V16     Er41    10.0   1_556     S
V16     V3    10.0   1_545     S
V17     Er33    10.0   1_565     S
V17     Er33    10.0   .     S
V17     V18    10.0   1_565     S
V17     Er35    10.0   1_556     S
V17     V18    10.0   .     S
V17     V19    10.0   .     S
V17     V2    10.0   1_455     S
V18     Er35    10.0   1_556     S
V18     Er35    10.0   1_546     S
V18     V17    10.0   1_545     S
V18     Er33    10.0   .     S
V18     V20    10.0   .     S
V18     V7    10.0   1_446     S
V19     Er33    10.0   1_565     S
V19     Er33    10.0   .     S
V19     V20    10.0   .     S
V19     Er35    10.0   1_556     S
V19     V20    10.0   1_565     S
V19     V23    10.0   .     S
V20     Er35    10.0   1_556     S
V20     Er35    10.0   1_546     S
V20     Er33    10.0   .     S
V20     V19    10.0   1_545     S
V20     V27    10.0   1_556     S
V21     Er44    10.0   1_545     S
V21     Er44    10.0   .     S
V21     V22    10.0   1_545     S
V21     Er48    10.0   .     S
V21     V22    10.0   .     S
V21     V23    10.0   .     S
V22     V10    10.0   1_565     S
V22     Er48    10.0   .     S
V22     Er48    10.0   1_565     S
V22     V21    10.0   1_565     S
V22     Er44    10.0   .     S
V22     V24    10.0   .     S
V23     Er44    10.0   1_545     S
V23     Er44    10.0   .     S
V23     V24    10.0   .     S
V23     Er48    10.0   .     S
V23     V24    10.0   1_545     S
V24     Er48    10.0   .     S
V24     Er48    10.0   1_565     S
V24     Er44    10.0   .     S
V24     V23    10.0   1_565     S
V24     V29    10.0   .     S
V25     V13    10.0   1_554     S
V25     Er43    10.0   1_544     S
V25     Er43    10.0   1_554     S
V25     V26    10.0   .     S
V25     Er37    10.0   .     S
V25     V26    10.0   1_545     S
V25     V27    10.0   .     S
V26     Er37    10.0   .     S
V26     Er37    10.0   1_565     S
V26     Er43    10.0   1_554     S
V26     V25    10.0   1_565     S
V26     V28    10.0   .     S
V27     V20    10.0   1_554     S
V27     Er43    10.0   1_544     S
V27     Er43    10.0   1_554     S
V27     V28    10.0   .     S
V27     V28    10.0   1_545     S
V27     Er37    10.0   .     S
V28     Er37    10.0   .     S
V28     Er37    10.0   1_565     S
V28     Er43    10.0   1_554     S
V28     V27    10.0   1_565     S
V28     V30    10.0   1_565     S
V29     Er38    10.0   1_565     S
V29     Er38    10.0   .     S
V29     V30    10.0   .     S
V29     V30    10.0   1_565     S
V29     Er36    10.0   .     S
V29     V31    10.0   .     S
V30     Er38    10.0   .     S
V30     V29    10.0   1_545     S
V30     Er36    10.0   .     S
V30     Er36    10.0   1_545     S
V30     V32    10.0   .     S
V30     V28    10.0   1_545     S
V31     Er38    10.0   1_565     S
V31     Er38    10.0   .     S
V31     V32    10.0   .     S
V31     Er36    10.0   .     S
V31     V32    10.0   1_565     S
V31     V1    10.0   1_455     S
V32     Er36    10.0   .     S
V32     Er36    10.0   1_545     S
V32     Er38    10.0   .     S
V32     V31    10.0   1_545     S
V32     V8    10.0   1_455     S
Er33     V17    10.0   1_545     S
Er33     V19    10.0   1_545     S
Er33     Er38    10.0   .     S
Er34     V5    10.0   1_565     S
Er34     V8    10.0   1_565     S
Er34     Er46    10.0   .     S
Er35     V18    10.0   1_554     S
Er35     V18    10.0   1_564     S
Er35     V17    10.0   1_554     S
Er35     V20    10.0   1_554     S
Er35     V20    10.0   1_564     S
Er35     V19    10.0   1_554     S
Er35     Er36    10.0   .     S
Er36     V30    10.0   1_565     S
Er36     V32    10.0   1_565     S
Er37     V26    10.0   1_545     S
Er37     V28    10.0   1_545     S
Er37     Er48    10.0   .     S
Er38     V29    10.0   1_545     S
Er38     V31    10.0   1_545     S
Er39     V6    10.0   1_556     S
Er39     V6    10.0   1_546     S
Er39     V5    10.0   1_556     S
Er39     V7    10.0   1_556     S
Er39     V7    10.0   1_546     S
Er39     V8    10.0   1_556     S
Er39     Er40    10.0   .     S
Er40     V2    10.0   1_545     S
Er40     V3    10.0   1_545     S
Er41     V13    10.0   1_544     S
Er41     V13    10.0   1_554     S
Er41     V14    10.0   1_554     S
Er41     V15    10.0   1_544     S
Er41     V15    10.0   1_554     S
Er41     V16    10.0   1_554     S
Er41     Er42    10.0   .     S
Er42     V9    10.0   1_545     S
Er42     V11    10.0   1_545     S
Er43     V25    10.0   1_566     S
Er43     V25    10.0   1_556     S
Er43     V26    10.0   1_556     S
Er43     V27    10.0   1_566     S
Er43     V27    10.0   1_556     S
Er43     V28    10.0   1_556     S
Er43     Er44    10.0   .     S
Er44     V21    10.0   1_565     S
Er44     V23    10.0   1_565     S
Er45     V14    10.0   1_565     S
Er45     V16    10.0   1_565     S
Er45     Er47    10.0   .     S
Er46     V1    10.0   1_565     S
Er46     V4    10.0   1_565     S
Er47     V10    10.0   1_565     S
Er47     V12    10.0   1_565     S
Er48     V22    10.0   1_545     S
Er48     V24    10.0   1_545     S
