data_sdt
_audit_creation_date              2020-02-04
_audit_creation_method            'Pymatgen'
_symmetry_space_group_name_H-M    'P1'
_symmetry_Int_Tables_number       1
loop_
_symmetry_equiv_pos_as_xyz
  x,y,z
_cell_length_a                    46.1728
_cell_length_b                    46.1728
_cell_length_c                    46.1728
_cell_angle_alpha                 90.0
_cell_angle_beta                 90.0
_cell_angle_gamma                 90.0
loop_
_atom_site_label
_atom_site_type_symbol
_atom_site_fract_x
_atom_site_fract_y
_atom_site_fract_z
Er1     Er     0.6531   0.1937   0.5
Er2     Er     0.5   0.1937   0.6531
Er3     Er     0.3469   0.1937   0.5
Er4     Er     0.5   0.1937   0.3469
Er5     Er     0.1937   0.6531   0.5
Er6     Er     0.1937   0.5   0.6531
Er7     Er     0.1937   0.3469   0.5
Er8     Er     0.1937   0.5   0.3469
Er9     Er     0.5   0.6531   0.1937
Er10     Er     0.6531   0.5   0.1937
Er11     Er     0.3469   0.5   0.1937
Er12     Er     0.5   0.3469   0.1937
Er13     Er     0.6531   0.8063   0.5
Er14     Er     0.5   0.8063   0.6531
Er15     Er     0.5   0.8063   0.3469
Er16     Er     0.3469   0.8063   0.5
V17     V     0.25   0.0   0.5
V18     V     0.5   0.0   0.25
Er19     Er     0.3063   0.0   0.1531
Er20     Er     0.3063   0.1531   0.0
Er21     Er     0.3063   0.8469   0.0
Er22     Er     0.3063   0.0   0.8469
Er23     Er     0.6937   0.1531   0.0
Er24     Er     0.6937   0.0   0.1531
Er25     Er     0.6937   0.0   0.8469
Er26     Er     0.6937   0.8469   0.0
Er27     Er     0.5   0.3469   0.8063
Er28     Er     0.3469   0.5   0.8063
Er29     Er     0.5   0.6531   0.8063
Er30     Er     0.6531   0.5   0.8063
V31     V     0.25   0.5   0.0
V32     V     0.5   0.25   0.0
Er33     Er     0.0   0.6937   0.1531
Er34     Er     0.1531   0.6937   0.0
Er35     Er     0.8469   0.6937   0.0
Er36     Er     0.0   0.6937   0.8469
Er37     Er     0.1531   0.3063   0.0
Er38     Er     0.0   0.3063   0.1531
Er39     Er     0.8469   0.3063   0.0
Er40     Er     0.0   0.3063   0.8469
Er41     Er     0.0   0.1531   0.6937
Er42     Er     0.1531   0.0   0.6937
Er43     Er     0.8469   0.0   0.6937
Er44     Er     0.0   0.8469   0.6937
Er45     Er     0.1531   0.0   0.3063
Er46     Er     0.0   0.1531   0.3063
Er47     Er     0.8469   0.0   0.3063
Er48     Er     0.0   0.8469   0.3063
Er49     Er     0.8063   0.6531   0.5
Er50     Er     0.8063   0.5   0.6531
Er51     Er     0.8063   0.5   0.3469
Er52     Er     0.8063   0.3469   0.5
V53     V     0.0   0.25   0.5
V54     V     0.0   0.5   0.25
V55     V     0.0   0.75   0.5
V56     V     0.0   0.5   0.75
V57     V     0.75   0.0   0.5
V58     V     0.75   0.5   0.0
V59     V     0.5   0.75   0.0
V60     V     0.5   0.0   0.75
loop_
_geom_bond_atom_site_label_1
_geom_bond_atom_site_label_2
_geom_bond_distance
_geom_bond_site_symmetry_2
_ccdc_geom_bond_type
Er1     V57    10.0   .     S
Er1     Er4    10.0   .     S
Er1     Er2    10.0   .     S
Er1     Er52    10.0   .     S
Er2     V60    10.0   .     S
Er2     Er3    10.0   .     S
Er2     Er27    10.0   .     S
Er3     V17    10.0   .     S
Er3     Er4    10.0   .     S
Er3     Er7    10.0   .     S
Er4     V18    10.0   .     S
Er4     Er12    10.0   .     S
Er5     V55    10.0   .     S
Er5     Er8    10.0   .     S
Er5     Er6    10.0   .     S
Er5     Er16    10.0   .     S
Er6     V56    10.0   .     S
Er6     Er7    10.0   .     S
Er6     Er28    10.0   .     S
Er7     V53    10.0   .     S
Er7     Er8    10.0   .     S
Er8     V54    10.0   .     S
Er8     Er11    10.0   .     S
Er9     V59    10.0   .     S
Er9     Er11    10.0   .     S
Er9     Er10    10.0   .     S
Er9     Er15    10.0   .     S
Er10     V58    10.0   .     S
Er10     Er12    10.0   .     S
Er10     Er51    10.0   .     S
Er11     V31    10.0   .     S
Er11     Er12    10.0   .     S
Er12     V32    10.0   .     S
Er13     V57    10.0   1_565     S
Er13     Er15    10.0   .     S
Er13     Er14    10.0   .     S
Er13     Er49    10.0   .     S
Er14     V60    10.0   1_565     S
Er14     Er16    10.0   .     S
Er14     Er29    10.0   .     S
Er15     V18    10.0   1_565     S
Er15     Er16    10.0   .     S
Er16     V17    10.0   1_565     S
V17     Er16    10.0   1_545     S
V17     Er42    10.0   .     S
V17     Er45    10.0   .     S
V18     Er15    10.0   1_545     S
V18     Er19    10.0   .     S
V18     Er24    10.0   .     S
Er19     Er21    10.0   1_545     S
Er19     Er20    10.0   .     S
Er19     Er45    10.0   .     S
Er20     V32    10.0   .     S
Er20     Er22    10.0   1_554     S
Er20     Er37    10.0   .     S
Er21     Er19    10.0   1_565     S
Er21     V59    10.0   .     S
Er21     Er22    10.0   1_564     S
Er21     Er34    10.0   .     S
Er22     Er20    10.0   1_556     S
Er22     V60    10.0   .     S
Er22     Er21    10.0   1_546     S
Er22     Er42    10.0   .     S
Er23     V32    10.0   .     S
Er23     Er25    10.0   1_554     S
Er23     Er24    10.0   .     S
Er23     Er39    10.0   .     S
Er24     Er26    10.0   1_545     S
Er24     Er47    10.0   .     S
Er25     Er23    10.0   1_556     S
Er25     V60    10.0   .     S
Er25     Er26    10.0   1_546     S
Er25     Er43    10.0   .     S
Er26     Er24    10.0   1_565     S
Er26     V59    10.0   .     S
Er26     Er25    10.0   1_564     S
Er26     Er35    10.0   .     S
Er27     V32    10.0   1_556     S
Er27     Er28    10.0   .     S
Er27     Er30    10.0   .     S
Er28     V31    10.0   1_556     S
Er28     Er29    10.0   .     S
Er29     V59    10.0   1_556     S
Er29     Er30    10.0   .     S
Er30     V58    10.0   1_556     S
Er30     Er50    10.0   .     S
V31     Er28    10.0   1_554     S
V31     Er34    10.0   .     S
V31     Er37    10.0   .     S
V32     Er27    10.0   1_554     S
Er33     V54    10.0   .     S
Er33     Er35    10.0   1_455     S
Er33     Er34    10.0   .     S
Er33     Er48    10.0   .     S
Er34     Er36    10.0   1_554     S
Er35     Er33    10.0   1_655     S
Er35     V58    10.0   .     S
Er35     Er36    10.0   1_654     S
Er36     Er34    10.0   1_556     S
Er36     V56    10.0   .     S
Er36     Er35    10.0   1_456     S
Er36     Er44    10.0   .     S
Er37     Er40    10.0   1_554     S
Er37     Er38    10.0   .     S
Er38     V54    10.0   .     S
Er38     Er39    10.0   1_455     S
Er38     Er46    10.0   .     S
Er39     Er38    10.0   1_655     S
Er39     V58    10.0   .     S
Er39     Er40    10.0   1_654     S
Er40     Er37    10.0   1_556     S
Er40     V56    10.0   .     S
Er40     Er39    10.0   1_456     S
Er40     Er41    10.0   .     S
Er41     V53    10.0   .     S
Er41     Er43    10.0   1_455     S
Er41     Er42    10.0   .     S
Er42     Er44    10.0   1_545     S
Er43     Er41    10.0   1_655     S
Er43     V57    10.0   .     S
Er43     Er44    10.0   1_645     S
Er44     Er42    10.0   1_565     S
Er44     V55    10.0   .     S
Er44     Er43    10.0   1_465     S
Er45     Er48    10.0   1_545     S
Er45     Er46    10.0   .     S
Er46     V53    10.0   .     S
Er46     Er47    10.0   1_455     S
Er47     Er46    10.0   1_655     S
Er47     V57    10.0   .     S
Er47     Er48    10.0   1_645     S
Er48     Er45    10.0   1_565     S
Er48     V55    10.0   .     S
Er48     Er47    10.0   1_465     S
Er49     V55    10.0   1_655     S
Er49     Er51    10.0   .     S
Er49     Er50    10.0   .     S
Er50     V56    10.0   1_655     S
Er50     Er52    10.0   .     S
Er51     V54    10.0   1_655     S
Er51     Er52    10.0   .     S
Er52     V53    10.0   1_655     S
V53     Er52    10.0   1_455     S
V54     Er51    10.0   1_455     S
V55     Er49    10.0   1_455     S
V56     Er50    10.0   1_455     S
V57     Er13    10.0   1_545     S
V58     Er30    10.0   1_554     S
V59     Er29    10.0   1_554     S
V60     Er14    10.0   1_545     S
