data_sdte
_audit_creation_date              2020-02-04
_audit_creation_method            'Pymatgen'
_symmetry_space_group_name_H-M    'P1'
_symmetry_Int_Tables_number       1
loop_
_symmetry_equiv_pos_as_xyz
  x,y,z
_cell_length_a                    55.5764
_cell_length_b                    55.5764
_cell_length_c                    55.5764
_cell_angle_alpha                 90.0
_cell_angle_beta                 90.0
_cell_angle_gamma                 90.0
loop_
_atom_site_label
_atom_site_type_symbol
_atom_site_fract_x
_atom_site_fract_y
_atom_site_fract_z
V1     V     0.41   0.7876   0.59
V2     V     0.59   0.7876   0.59
V3     V     0.59   0.7876   0.41
V4     V     0.41   0.7876   0.41
V5     V     0.7876   0.59   0.59
V6     V     0.7876   0.41   0.59
V7     V     0.7876   0.41   0.41
V8     V     0.7876   0.59   0.41
V9     V     0.59   0.59   0.7876
V10     V     0.41   0.59   0.7876
V11     V     0.41   0.41   0.7876
V12     V     0.59   0.41   0.7876
V13     V     0.59   0.41   0.2124
V14     V     0.41   0.41   0.2124
V15     V     0.41   0.59   0.2124
V16     V     0.59   0.59   0.2124
V17     V     0.2876   0.91   0.91
V18     V     0.2876   0.91   0.09
V19     V     0.2876   0.09   0.91
V20     V     0.2876   0.09   0.09
Ti21     Ti     0.5   0.3136   0.09
Ti22     Ti     0.5   0.3136   0.91
Ti23     Ti     0.41   0.1864   0.0
Ti24     Ti     0.59   0.1864   0.0
Ti25     Ti     0.5   0.09   0.3136
Ti26     Ti     0.5   0.91   0.3136
Ti27     Ti     0.41   0.0   0.1864
Ti28     Ti     0.59   0.0   0.1864
Ti29     Ti     0.5   0.6864   0.09
Ti30     Ti     0.5   0.6864   0.91
Ti31     Ti     0.41   0.8136   0.0
Ti32     Ti     0.59   0.8136   0.0
Ti33     Ti     0.5   0.91   0.6864
Ti34     Ti     0.5   0.09   0.6864
Ti35     Ti     0.59   0.0   0.8136
Ti36     Ti     0.41   0.0   0.8136
V37     V     0.7124   0.09   0.91
V38     V     0.7124   0.91   0.91
V39     V     0.7124   0.91   0.09
V40     V     0.7124   0.09   0.09
V41     V     0.91   0.2876   0.09
V42     V     0.91   0.2876   0.91
V43     V     0.09   0.2876   0.91
V44     V     0.09   0.2876   0.09
Ti45     Ti     0.3136   0.5   0.09
Ti46     Ti     0.3136   0.5   0.91
Ti47     Ti     0.1864   0.41   0.0
Ti48     Ti     0.1864   0.59   0.0
Ti49     Ti     0.09   0.5   0.3136
Ti50     Ti     0.91   0.5   0.3136
Ti51     Ti     0.0   0.41   0.1864
Ti52     Ti     0.0   0.59   0.1864
Ti53     Ti     0.6864   0.5   0.09
Ti54     Ti     0.6864   0.5   0.91
Ti55     Ti     0.8136   0.41   0.0
Ti56     Ti     0.8136   0.59   0.0
Ti57     Ti     0.91   0.5   0.6864
Ti58     Ti     0.09   0.5   0.6864
Ti59     Ti     0.0   0.59   0.8136
Ti60     Ti     0.0   0.41   0.8136
V61     V     0.91   0.7124   0.91
V62     V     0.09   0.7124   0.91
V63     V     0.91   0.7124   0.09
V64     V     0.09   0.7124   0.09
V65     V     0.2124   0.41   0.59
V66     V     0.2124   0.41   0.41
V67     V     0.2124   0.59   0.59
V68     V     0.2124   0.59   0.41
V69     V     0.59   0.2124   0.59
V70     V     0.59   0.2124   0.41
V71     V     0.41   0.2124   0.59
V72     V     0.41   0.2124   0.41
Ti73     Ti     0.91   0.3136   0.5
Ti74     Ti     0.09   0.3136   0.5
Ti75     Ti     0.0   0.1864   0.41
Ti76     Ti     0.0   0.1864   0.59
Ti77     Ti     0.3136   0.09   0.5
Ti78     Ti     0.3136   0.91   0.5
Ti79     Ti     0.1864   0.0   0.41
Ti80     Ti     0.1864   0.0   0.59
V81     V     0.91   0.09   0.2876
V82     V     0.91   0.91   0.2876
V83     V     0.09   0.91   0.2876
V84     V     0.09   0.09   0.2876
Ti85     Ti     0.09   0.6864   0.5
Ti86     Ti     0.91   0.6864   0.5
Ti87     Ti     0.0   0.8136   0.41
Ti88     Ti     0.0   0.8136   0.59
Ti89     Ti     0.6864   0.09   0.5
Ti90     Ti     0.6864   0.91   0.5
Ti91     Ti     0.8136   0.0   0.59
Ti92     Ti     0.8136   0.0   0.41
V93     V     0.91   0.09   0.7124
V94     V     0.91   0.91   0.7124
V95     V     0.09   0.91   0.7124
V96     V     0.09   0.09   0.7124
Er97     Er     0.5   0.7375   0.7375
Er98     Er     0.2625   0.5   0.7375
Er99     Er     0.5   0.2625   0.7375
Er100     Er     0.7375   0.5   0.7375
Er101     Er     0.7375   0.5   0.2625
Er102     Er     0.5   0.7375   0.2625
Er103     Er     0.7375   0.7375   0.5
Er104     Er     0.7375   0.2625   0.5
Er105     Er     0.2625   0.7375   0.5
Er106     Er     0.5   0.2625   0.2625
Er107     Er     0.2625   0.5   0.2625
Er108     Er     0.2625   0.2625   0.5
Er109     Er     0.0   0.2375   0.2375
Er110     Er     0.7625   0.0   0.2375
Er111     Er     0.0   0.7625   0.2375
Er112     Er     0.2375   0.0   0.2375
Er113     Er     0.0   0.7625   0.7625
Er114     Er     0.2375   0.0   0.7625
Er115     Er     0.0   0.2375   0.7625
Er116     Er     0.7625   0.0   0.7625
Er117     Er     0.2375   0.2375   0.0
Er118     Er     0.2375   0.7625   0.0
Er119     Er     0.7625   0.2375   0.0
Er120     Er     0.7625   0.7625   0.0
loop_
_geom_bond_atom_site_label_1
_geom_bond_atom_site_label_2
_geom_bond_distance
_geom_bond_site_symmetry_2
_ccdc_geom_bond_type
V1     V4    10.0   .     S
V1     Er105    10.0   .     S
V1     Er97    10.0   .     S
V1     V2    10.0   .     S
V1     Ti33    10.0   .     S
V1     Ti78    10.0   .     S
V2     Er103    10.0   .     S
V2     V3    10.0   .     S
V2     Er97    10.0   .     S
V2     Ti33    10.0   .     S
V2     Ti90    10.0   .     S
V3     Er102    10.0   .     S
V3     V4    10.0   .     S
V3     Er103    10.0   .     S
V3     Ti26    10.0   .     S
V3     Ti90    10.0   .     S
V4     Er105    10.0   .     S
V4     Er102    10.0   .     S
V4     Ti26    10.0   .     S
V4     Ti78    10.0   .     S
V5     V8    10.0   .     S
V5     Er103    10.0   .     S
V5     Er100    10.0   .     S
V5     V6    10.0   .     S
V5     Ti57    10.0   .     S
V5     Ti86    10.0   .     S
V6     Er104    10.0   .     S
V6     V7    10.0   .     S
V6     Er100    10.0   .     S
V6     Ti57    10.0   .     S
V6     Ti73    10.0   .     S
V7     Er101    10.0   .     S
V7     V8    10.0   .     S
V7     Er104    10.0   .     S
V7     Ti50    10.0   .     S
V7     Ti73    10.0   .     S
V8     Er103    10.0   .     S
V8     Er101    10.0   .     S
V8     Ti50    10.0   .     S
V8     Ti86    10.0   .     S
V9     V12    10.0   .     S
V9     Er100    10.0   .     S
V9     Er97    10.0   .     S
V9     V10    10.0   .     S
V9     Ti30    10.0   .     S
V9     Ti54    10.0   .     S
V10     Er98    10.0   .     S
V10     V11    10.0   .     S
V10     Er97    10.0   .     S
V10     Ti30    10.0   .     S
V10     Ti46    10.0   .     S
V11     Er99    10.0   .     S
V11     V12    10.0   .     S
V11     Er98    10.0   .     S
V11     Ti22    10.0   .     S
V11     Ti46    10.0   .     S
V12     Er100    10.0   .     S
V12     Er99    10.0   .     S
V12     Ti22    10.0   .     S
V12     Ti54    10.0   .     S
V13     V16    10.0   .     S
V13     Er101    10.0   .     S
V13     Er106    10.0   .     S
V13     V14    10.0   .     S
V13     Ti21    10.0   .     S
V13     Ti53    10.0   .     S
V14     Er107    10.0   .     S
V14     V15    10.0   .     S
V14     Er106    10.0   .     S
V14     Ti21    10.0   .     S
V14     Ti45    10.0   .     S
V15     Er102    10.0   .     S
V15     V16    10.0   .     S
V15     Er107    10.0   .     S
V15     Ti29    10.0   .     S
V15     Ti45    10.0   .     S
V16     Er101    10.0   .     S
V16     Er102    10.0   .     S
V16     Ti29    10.0   .     S
V16     Ti53    10.0   .     S
V17     V18    10.0   1_556     S
V17     Er118    10.0   1_556     S
V17     V19    10.0   1_565     S
V17     Er114    10.0   1_565     S
V17     Ti31    10.0   1_556     S
V17     Ti36    10.0   1_565     S
V18     V20    10.0   1_565     S
V18     Er112    10.0   1_565     S
V18     Er118    10.0   .     S
V18     V17    10.0   1_554     S
V18     Ti27    10.0   1_565     S
V18     Ti31    10.0   .     S
V19     V20    10.0   1_556     S
V19     Er117    10.0   1_556     S
V19     Er114    10.0   .     S
V19     V17    10.0   1_545     S
V19     Ti23    10.0   1_556     S
V19     Ti36    10.0   .     S
V20     Er112    10.0   .     S
V20     V18    10.0   1_545     S
V20     Er117    10.0   .     S
V20     V19    10.0   1_554     S
V20     Ti23    10.0   .     S
V20     Ti27    10.0   .     S
Ti21     Er106    10.0   .     S
Ti21     Ti24    10.0   .     S
Ti21     Ti22    10.0   1_554     S
Ti21     Ti23    10.0   .     S
Ti22     Er99    10.0   .     S
Ti22     Ti21    10.0   1_556     S
Ti22     Ti23    10.0   1_556     S
Ti22     Ti24    10.0   1_556     S
Ti23     Er117    10.0   .     S
Ti23     V19    10.0   1_554     S
Ti23     Ti24    10.0   .     S
Ti23     Ti22    10.0   1_554     S
Ti24     Ti22    10.0   1_554     S
Ti24     Er119    10.0   .     S
Ti24     V40    10.0   .     S
Ti24     V37    10.0   1_554     S
Ti25     Er106    10.0   .     S
Ti25     V72    10.0   .     S
Ti25     V70    10.0   .     S
Ti25     Ti28    10.0   .     S
Ti25     Ti26    10.0   1_545     S
Ti25     Ti27    10.0   .     S
Ti26     Er102    10.0   .     S
Ti26     Ti25    10.0   1_565     S
Ti26     Ti28    10.0   1_565     S
Ti26     Ti27    10.0   1_565     S
Ti27     Er112    10.0   .     S
Ti27     V18    10.0   1_545     S
Ti27     Ti28    10.0   .     S
Ti27     Ti26    10.0   1_545     S
Ti28     Ti26    10.0   1_545     S
Ti28     Er110    10.0   .     S
Ti28     V40    10.0   .     S
Ti28     V39    10.0   1_545     S
Ti29     Er102    10.0   .     S
Ti29     Ti32    10.0   .     S
Ti29     Ti30    10.0   1_554     S
Ti29     Ti31    10.0   .     S
Ti30     Er97    10.0   .     S
Ti30     Ti29    10.0   1_556     S
Ti30     Ti32    10.0   1_556     S
Ti30     Ti31    10.0   1_556     S
Ti31     Er118    10.0   .     S
Ti31     V17    10.0   1_554     S
Ti31     Ti32    10.0   .     S
Ti31     Ti30    10.0   1_554     S
Ti32     Ti30    10.0   1_554     S
Ti32     Er120    10.0   .     S
Ti32     V39    10.0   .     S
Ti32     V38    10.0   1_554     S
Ti33     Er97    10.0   .     S
Ti33     Ti34    10.0   1_565     S
Ti33     Ti36    10.0   1_565     S
Ti33     Ti35    10.0   1_565     S
Ti34     Er99    10.0   .     S
Ti34     V69    10.0   .     S
Ti34     V71    10.0   .     S
Ti34     Ti35    10.0   .     S
Ti34     Ti33    10.0   1_545     S
Ti34     Ti36    10.0   .     S
Ti35     Er116    10.0   .     S
Ti35     V37    10.0   .     S
Ti35     V38    10.0   1_545     S
Ti35     Ti36    10.0   .     S
Ti35     Ti33    10.0   1_545     S
Ti36     Ti33    10.0   1_545     S
Ti36     Er114    10.0   .     S
Ti36     V17    10.0   1_545     S
V37     Ti24    10.0   1_556     S
V37     V40    10.0   1_556     S
V37     Er119    10.0   1_556     S
V37     Er116    10.0   .     S
V37     V38    10.0   1_545     S
V38     Ti32    10.0   1_556     S
V38     Ti35    10.0   1_565     S
V38     V39    10.0   1_556     S
V38     Er120    10.0   1_556     S
V38     V37    10.0   1_565     S
V38     Er116    10.0   1_565     S
V39     Ti28    10.0   1_565     S
V39     V40    10.0   1_565     S
V39     Er110    10.0   1_565     S
V39     Er120    10.0   .     S
V39     V38    10.0   1_554     S
V40     Er119    10.0   .     S
V40     V37    10.0   1_554     S
V40     Er110    10.0   .     S
V40     V39    10.0   1_545     S
V41     V44    10.0   1_655     S
V41     Er109    10.0   1_655     S
V41     Er119    10.0   .     S
V41     V42    10.0   1_554     S
V41     Ti51    10.0   1_655     S
V41     Ti55    10.0   .     S
V42     V41    10.0   1_556     S
V42     Er119    10.0   1_556     S
V42     V43    10.0   1_655     S
V42     Er115    10.0   1_655     S
V42     Ti55    10.0   1_556     S
V42     Ti60    10.0   1_655     S
V43     V44    10.0   1_556     S
V43     Er117    10.0   1_556     S
V43     Er115    10.0   .     S
V43     V42    10.0   1_455     S
V43     Ti47    10.0   1_556     S
V43     Ti60    10.0   .     S
V44     Er109    10.0   .     S
V44     V41    10.0   1_455     S
V44     Er117    10.0   .     S
V44     V43    10.0   1_554     S
V44     Ti47    10.0   .     S
V44     Ti51    10.0   .     S
Ti45     Er107    10.0   .     S
Ti45     Ti48    10.0   .     S
Ti45     Ti46    10.0   1_554     S
Ti45     Ti47    10.0   .     S
Ti46     Er98    10.0   .     S
Ti46     Ti45    10.0   1_556     S
Ti46     Ti48    10.0   1_556     S
Ti46     Ti47    10.0   1_556     S
Ti47     Er117    10.0   .     S
Ti47     V43    10.0   1_554     S
Ti47     Ti48    10.0   .     S
Ti47     Ti46    10.0   1_554     S
Ti48     Ti46    10.0   1_554     S
Ti48     Er118    10.0   .     S
Ti48     V64    10.0   .     S
Ti48     V62    10.0   1_554     S
Ti49     Er107    10.0   .     S
Ti49     V68    10.0   .     S
Ti49     V66    10.0   .     S
Ti49     Ti52    10.0   .     S
Ti49     Ti50    10.0   1_455     S
Ti49     Ti51    10.0   .     S
Ti50     Er101    10.0   .     S
Ti50     Ti49    10.0   1_655     S
Ti50     Ti51    10.0   1_655     S
Ti50     Ti52    10.0   1_655     S
Ti51     Er109    10.0   .     S
Ti51     V41    10.0   1_455     S
Ti51     Ti52    10.0   .     S
Ti51     Ti50    10.0   1_455     S
Ti52     Ti50    10.0   1_455     S
Ti52     Er111    10.0   .     S
Ti52     V64    10.0   .     S
Ti52     V63    10.0   1_455     S
Ti53     Er101    10.0   .     S
Ti53     Ti56    10.0   .     S
Ti53     Ti54    10.0   1_554     S
Ti53     Ti55    10.0   .     S
Ti54     Er100    10.0   .     S
Ti54     Ti53    10.0   1_556     S
Ti54     Ti55    10.0   1_556     S
Ti54     Ti56    10.0   1_556     S
Ti55     Er119    10.0   .     S
Ti55     V42    10.0   1_554     S
Ti55     Ti56    10.0   .     S
Ti55     Ti54    10.0   1_554     S
Ti56     Ti54    10.0   1_554     S
Ti56     Er120    10.0   .     S
Ti56     V63    10.0   .     S
Ti56     V61    10.0   1_554     S
Ti57     Er100    10.0   .     S
Ti57     Ti58    10.0   1_655     S
Ti57     Ti59    10.0   1_655     S
Ti57     Ti60    10.0   1_655     S
Ti58     Er98    10.0   .     S
Ti58     V65    10.0   .     S
Ti58     V67    10.0   .     S
Ti58     Ti60    10.0   .     S
Ti58     Ti57    10.0   1_455     S
Ti58     Ti59    10.0   .     S
Ti59     Er113    10.0   .     S
Ti59     V62    10.0   .     S
Ti59     V61    10.0   1_455     S
Ti59     Ti60    10.0   .     S
Ti59     Ti57    10.0   1_455     S
Ti60     Ti57    10.0   1_455     S
Ti60     Er115    10.0   .     S
Ti60     V42    10.0   1_455     S
V61     Ti56    10.0   1_556     S
V61     Ti59    10.0   1_655     S
V61     V63    10.0   1_556     S
V61     Er120    10.0   1_556     S
V61     V62    10.0   1_655     S
V61     Er113    10.0   1_655     S
V62     Ti48    10.0   1_556     S
V62     V64    10.0   1_556     S
V62     Er118    10.0   1_556     S
V62     Er113    10.0   .     S
V62     V61    10.0   1_455     S
V63     Ti52    10.0   1_655     S
V63     V64    10.0   1_655     S
V63     Er111    10.0   1_655     S
V63     Er120    10.0   .     S
V63     V61    10.0   1_554     S
V64     Er111    10.0   .     S
V64     V63    10.0   1_455     S
V64     Er118    10.0   .     S
V64     V62    10.0   1_554     S
V65     Er98    10.0   .     S
V65     V67    10.0   .     S
V65     V66    10.0   .     S
V65     Er108    10.0   .     S
V65     Ti74    10.0   .     S
V66     V68    10.0   .     S
V66     Er107    10.0   .     S
V66     Er108    10.0   .     S
V66     Ti74    10.0   .     S
V67     Er105    10.0   .     S
V67     V68    10.0   .     S
V67     Er98    10.0   .     S
V67     Ti85    10.0   .     S
V68     Er107    10.0   .     S
V68     Er105    10.0   .     S
V68     Ti85    10.0   .     S
V69     Er99    10.0   .     S
V69     V71    10.0   .     S
V69     V70    10.0   .     S
V69     Er104    10.0   .     S
V69     Ti89    10.0   .     S
V70     V72    10.0   .     S
V70     Er106    10.0   .     S
V70     Er104    10.0   .     S
V70     Ti89    10.0   .     S
V71     Er108    10.0   .     S
V71     V72    10.0   .     S
V71     Er99    10.0   .     S
V71     Ti77    10.0   .     S
V72     Er106    10.0   .     S
V72     Er108    10.0   .     S
V72     Ti77    10.0   .     S
Ti73     Er104    10.0   .     S
Ti73     Ti74    10.0   1_655     S
Ti73     Ti76    10.0   1_655     S
Ti73     Ti75    10.0   1_655     S
Ti74     Er108    10.0   .     S
Ti74     Ti76    10.0   .     S
Ti74     Ti73    10.0   1_455     S
Ti74     Ti75    10.0   .     S
Ti75     Er109    10.0   .     S
Ti75     V84    10.0   .     S
Ti75     V81    10.0   1_455     S
Ti75     Ti76    10.0   .     S
Ti75     Ti73    10.0   1_455     S
Ti76     Ti73    10.0   1_455     S
Ti76     Er115    10.0   .     S
Ti76     V96    10.0   .     S
Ti76     V93    10.0   1_455     S
Ti77     Er108    10.0   .     S
Ti77     Ti80    10.0   .     S
Ti77     Ti78    10.0   1_545     S
Ti77     Ti79    10.0   .     S
Ti78     Er105    10.0   .     S
Ti78     Ti77    10.0   1_565     S
Ti78     Ti79    10.0   1_565     S
Ti78     Ti80    10.0   1_565     S
Ti79     Er112    10.0   .     S
Ti79     V84    10.0   .     S
Ti79     V83    10.0   1_545     S
Ti79     Ti80    10.0   .     S
Ti79     Ti78    10.0   1_545     S
Ti80     Ti78    10.0   1_545     S
Ti80     Er114    10.0   .     S
Ti80     V96    10.0   .     S
Ti80     V95    10.0   1_545     S
V81     Ti75    10.0   1_655     S
V81     Er110    10.0   .     S
V81     V82    10.0   1_545     S
V81     V84    10.0   1_655     S
V81     Er109    10.0   1_655     S
V81     Ti92    10.0   .     S
V82     V83    10.0   1_655     S
V82     Er111    10.0   1_655     S
V82     V81    10.0   1_565     S
V82     Er110    10.0   1_565     S
V82     Ti87    10.0   1_655     S
V82     Ti92    10.0   1_565     S
V83     Ti79    10.0   1_565     S
V83     V84    10.0   1_565     S
V83     Er112    10.0   1_565     S
V83     Er111    10.0   .     S
V83     V82    10.0   1_455     S
V83     Ti87    10.0   .     S
V84     Er112    10.0   .     S
V84     V83    10.0   1_545     S
V84     Er109    10.0   .     S
V84     V81    10.0   1_455     S
Ti85     Er105    10.0   .     S
Ti85     Ti88    10.0   .     S
Ti85     Ti86    10.0   1_455     S
Ti85     Ti87    10.0   .     S
Ti86     Er103    10.0   .     S
Ti86     Ti85    10.0   1_655     S
Ti86     Ti87    10.0   1_655     S
Ti86     Ti88    10.0   1_655     S
Ti87     Er111    10.0   .     S
Ti87     V82    10.0   1_455     S
Ti87     Ti88    10.0   .     S
Ti87     Ti86    10.0   1_455     S
Ti88     Ti86    10.0   1_455     S
Ti88     Er113    10.0   .     S
Ti88     V95    10.0   .     S
Ti88     V94    10.0   1_455     S
Ti89     Er104    10.0   .     S
Ti89     Ti92    10.0   .     S
Ti89     Ti90    10.0   1_545     S
Ti89     Ti91    10.0   .     S
Ti90     Er103    10.0   .     S
Ti90     Ti89    10.0   1_565     S
Ti90     Ti91    10.0   1_565     S
Ti90     Ti92    10.0   1_565     S
Ti91     Er116    10.0   .     S
Ti91     V93    10.0   .     S
Ti91     V94    10.0   1_545     S
Ti91     Ti92    10.0   .     S
Ti91     Ti90    10.0   1_545     S
Ti92     Ti90    10.0   1_545     S
Ti92     Er110    10.0   .     S
Ti92     V82    10.0   1_545     S
V93     Ti76    10.0   1_655     S
V93     V96    10.0   1_655     S
V93     Er115    10.0   1_655     S
V93     Er116    10.0   .     S
V93     V94    10.0   1_545     S
V94     Ti88    10.0   1_655     S
V94     Ti91    10.0   1_565     S
V94     V95    10.0   1_655     S
V94     Er113    10.0   1_655     S
V94     V93    10.0   1_565     S
V94     Er116    10.0   1_565     S
V95     Ti80    10.0   1_565     S
V95     V96    10.0   1_565     S
V95     Er114    10.0   1_565     S
V95     Er113    10.0   .     S
V95     V94    10.0   1_455     S
V96     Er114    10.0   .     S
V96     V95    10.0   1_545     S
V96     Er115    10.0   .     S
V96     V93    10.0   1_455     S
Er109     V41    10.0   1_455     S
Er109     V81    10.0   1_455     S
Er110     V39    10.0   1_545     S
Er110     V82    10.0   1_545     S
Er111     V63    10.0   1_455     S
Er111     V82    10.0   1_455     S
Er112     V18    10.0   1_545     S
Er112     V83    10.0   1_545     S
Er113     V61    10.0   1_455     S
Er113     V94    10.0   1_455     S
Er114     V17    10.0   1_545     S
Er114     V95    10.0   1_545     S
Er115     V42    10.0   1_455     S
Er115     V93    10.0   1_455     S
Er116     V38    10.0   1_545     S
Er116     V94    10.0   1_545     S
Er117     V19    10.0   1_554     S
Er117     V43    10.0   1_554     S
Er118     V17    10.0   1_554     S
Er118     V62    10.0   1_554     S
Er119     V37    10.0   1_554     S
Er119     V42    10.0   1_554     S
Er120     V38    10.0   1_554     S
Er120     V61    10.0   1_554     S
