data_shoa
_audit_creation_date              2020-02-04
_audit_creation_method            'Pymatgen'
_symmetry_space_group_name_H-M    'P1'
_symmetry_Int_Tables_number       1
loop_
_symmetry_equiv_pos_as_xyz
  x,y,z
_cell_length_a                    81.7999
_cell_length_b                    81.7999
_cell_length_c                    81.7999
_cell_angle_alpha                 90.0
_cell_angle_beta                 90.0
_cell_angle_gamma                 90.0
loop_
_atom_site_label
_atom_site_type_symbol
_atom_site_fract_x
_atom_site_fract_y
_atom_site_fract_z
Ce1     Ce     0.8414   0.75   0.6586
Ce2     Ce     0.8414   0.6586   0.75
Ce3     Ce     0.75   0.6586   0.8414
Ce4     Ce     0.6586   0.75   0.8414
Ce5     Ce     0.6586   0.8414   0.75
Ce6     Ce     0.75   0.8414   0.6586
Ce7     Ce     0.6586   0.75   0.1586
Ce8     Ce     0.75   0.6586   0.1586
Ce9     Ce     0.75   0.1586   0.6586
Ce10     Ce     0.6586   0.1586   0.75
Ce11     Ce     0.1586   0.6586   0.75
Ce12     Ce     0.1586   0.75   0.6586
Ce13     Ce     0.25   0.6586   0.8414
Ce14     Ce     0.3414   0.75   0.8414
Ce15     Ce     0.8414   0.25   0.6586
Ce16     Ce     0.8414   0.3414   0.75
Ce17     Ce     0.6586   0.8414   0.25
Ce18     Ce     0.75   0.8414   0.3414
Ce19     Ce     0.6586   0.25   0.8414
Ce20     Ce     0.75   0.3414   0.8414
Ce21     Ce     0.25   0.3414   0.8414
Ce22     Ce     0.3414   0.25   0.8414
Ce23     Ce     0.25   0.8414   0.6586
Ce24     Ce     0.3414   0.8414   0.75
Ce25     Ce     0.8414   0.25   0.3414
Ce26     Ce     0.8414   0.3414   0.25
Ce27     Ce     0.3414   0.8414   0.25
Ce28     Ce     0.25   0.8414   0.3414
Ce29     Ce     0.8414   0.6586   0.25
Ce30     Ce     0.8414   0.75   0.3414
Ce31     Ce     0.6586   0.1586   0.25
Ce32     Ce     0.6586   0.25   0.1586
Ce33     Ce     0.25   0.6586   0.1586
Ce34     Ce     0.1586   0.6586   0.25
Ce35     Ce     0.1586   0.25   0.6586
Ce36     Ce     0.25   0.1586   0.6586
Ce37     Ce     0.75   0.3414   0.1586
Ce38     Ce     0.3414   0.1586   0.75
Ce39     Ce     0.1586   0.75   0.3414
Ce40     Ce     0.3414   0.75   0.1586
Ce41     Ce     0.1586   0.3414   0.75
Ce42     Ce     0.75   0.1586   0.3414
V43     V     0.4215   0.0   0.5
Er44     Er     0.3176   0.0   0.5
V45     V     0.5   0.0   0.4215
Er46     Er     0.5   0.0   0.3176
Er47     Er     0.5   0.0   0.6824
V48     V     0.5   0.0   0.5785
Er49     Er     0.6824   0.0   0.5
V50     V     0.5785   0.0   0.5
Ti51     Ti     0.25   0.9328   0.4328
Ti52     Ti     0.5672   0.9328   0.25
Ti53     Ti     0.25   0.9328   0.5672
Ti54     Ti     0.4328   0.9328   0.25
Ti55     Ti     0.75   0.9328   0.5672
Ti56     Ti     0.4328   0.9328   0.75
Ti57     Ti     0.75   0.9328   0.4328
Ti58     Ti     0.5672   0.9328   0.75
Er59     Er     0.5   0.0   0.1824
V60     V     0.5   0.0   0.0785
Er61     Er     0.5   0.8176   0.0
V62     V     0.5   0.9215   0.0
Er63     Er     0.5   0.0   0.8176
V64     V     0.5   0.0   0.9215
Er65     Er     0.5   0.1824   0.0
V66     V     0.5   0.0785   0.0
V67     V     0.5   0.4215   0.0
Er68     Er     0.5   0.3176   0.0
V69     V     0.4215   0.5   0.0
Er70     Er     0.3176   0.5   0.0
Er71     Er     0.6824   0.5   0.0
V72     V     0.5785   0.5   0.0
Er73     Er     0.5   0.6824   0.0
V74     V     0.5   0.5785   0.0
Ti75     Ti     0.25   0.5672   0.9328
Ti76     Ti     0.4328   0.25   0.9328
Ti77     Ti     0.25   0.4328   0.9328
Ti78     Ti     0.5672   0.25   0.9328
Ti79     Ti     0.75   0.4328   0.9328
Ti80     Ti     0.5672   0.75   0.9328
Ti81     Ti     0.75   0.5672   0.9328
Ti82     Ti     0.4328   0.75   0.9328
Er83     Er     0.1824   0.5   0.0
V84     V     0.0785   0.5   0.0
Er85     Er     0.0   0.5   0.8176
V86     V     0.0   0.5   0.9215
Er87     Er     0.8176   0.5   0.0
V88     V     0.9215   0.5   0.0
Er89     Er     0.0   0.5   0.1824
V90     V     0.0   0.5   0.0785
V91     V     0.0   0.5   0.4215
Er92     Er     0.0   0.5   0.3176
V93     V     0.0   0.4215   0.5
Er94     Er     0.0   0.3176   0.5
Er95     Er     0.0   0.6824   0.5
V96     V     0.0   0.5785   0.5
Er97     Er     0.0   0.5   0.6824
V98     V     0.0   0.5   0.5785
Ti99     Ti     0.9328   0.25   0.5672
Ti100     Ti     0.9328   0.4328   0.25
Ti101     Ti     0.9328   0.25   0.4328
Ti102     Ti     0.9328   0.5672   0.25
Ti103     Ti     0.9328   0.75   0.4328
Ti104     Ti     0.9328   0.5672   0.75
Ti105     Ti     0.9328   0.75   0.5672
Ti106     Ti     0.9328   0.4328   0.75
Er107     Er     0.1824   0.0   0.5
V108     V     0.0785   0.0   0.5
Er109     Er     0.0   0.8176   0.5
V110     V     0.0   0.9215   0.5
Er111     Er     0.8176   0.0   0.5
V112     V     0.9215   0.0   0.5
Er113     Er     0.0   0.1824   0.5
V114     V     0.0   0.0785   0.5
Ti115     Ti     0.0672   0.25   0.4328
Ti116     Ti     0.25   0.0672   0.4328
Ti117     Ti     0.0672   0.5672   0.25
Ti118     Ti     0.0672   0.25   0.5672
Ti119     Ti     0.0672   0.4328   0.25
Ti120     Ti     0.25   0.4328   0.0672
Ti121     Ti     0.5672   0.25   0.0672
Ti122     Ti     0.25   0.5672   0.0672
Ti123     Ti     0.4328   0.25   0.0672
Ti124     Ti     0.4328   0.0672   0.25
Ti125     Ti     0.25   0.0672   0.5672
Ti126     Ti     0.5672   0.0672   0.25
Ti127     Ti     0.75   0.5672   0.0672
Ti128     Ti     0.4328   0.75   0.0672
Ti129     Ti     0.75   0.4328   0.0672
Ti130     Ti     0.5672   0.75   0.0672
Ti131     Ti     0.75   0.0672   0.4328
Ti132     Ti     0.0672   0.75   0.5672
Ti133     Ti     0.0672   0.4328   0.75
Ti134     Ti     0.5672   0.0672   0.75
Ti135     Ti     0.75   0.0672   0.5672
Ti136     Ti     0.0672   0.75   0.4328
Ti137     Ti     0.0672   0.5672   0.75
Ti138     Ti     0.4328   0.0672   0.75
Ce139     Ce     0.3414   0.25   0.1586
Ce140     Ce     0.3414   0.1586   0.25
Ce141     Ce     0.25   0.3414   0.1586
Ce142     Ce     0.1586   0.3414   0.25
Ce143     Ce     0.25   0.1586   0.3414
Ce144     Ce     0.1586   0.25   0.3414
loop_
_geom_bond_atom_site_label_1
_geom_bond_atom_site_label_2
_geom_bond_distance
_geom_bond_site_symmetry_2
_ccdc_geom_bond_type
Ce1     Ti105    10.576   .     S
Ce1     Ce2    10.576   .     S
Ce1     Ce6    10.576   .     S
Ce2     Ti104    10.576   .     S
Ce2     Ce3    10.576   .     S
Ce3     Ti81    10.576   .     S
Ce3     Ce4    10.576   .     S
Ce4     Ti80    10.576   .     S
Ce4     Ce5    10.576   .     S
Ce5     Ti58    10.576   .     S
Ce5     Ce6    10.576   .     S
Ce6     Ti55    10.576   .     S
Ce7     Ti130    10.576   .     S
Ce7     Ce8    10.576   .     S
Ce7     Ce17    10.576   .     S
Ce8     Ti127    10.576   .     S
Ce8     Ce29    10.576   .     S
Ce9     Ti135    10.576   .     S
Ce9     Ce10    10.576   .     S
Ce9     Ce15    10.576   .     S
Ce10     Ti134    10.576   .     S
Ce10     Ce19    10.576   .     S
Ce11     Ti137    10.576   .     S
Ce11     Ce12    10.576   .     S
Ce11     Ce13    10.576   .     S
Ce12     Ti132    10.576   .     S
Ce12     Ce23    10.576   .     S
Ce13     Ti75    10.576   .     S
Ce13     Ce14    10.576   .     S
Ce14     Ti82    10.576   .     S
Ce14     Ce24    10.576   .     S
Ce15     Ti99    10.576   .     S
Ce15     Ce16    10.576   .     S
Ce16     Ti106    10.576   .     S
Ce16     Ce20    10.576   .     S
Ce17     Ti52    10.576   .     S
Ce17     Ce18    10.576   .     S
Ce18     Ti57    10.576   .     S
Ce18     Ce30    10.576   .     S
Ce19     Ti78    10.576   .     S
Ce19     Ce20    10.576   .     S
Ce20     Ti79    10.576   .     S
Ce21     Ti77    10.576   .     S
Ce21     Ce22    10.576   .     S
Ce21     Ce41    10.576   .     S
Ce22     Ti76    10.576   .     S
Ce22     Ce38    10.576   .     S
Ce23     Ti53    10.576   .     S
Ce23     Ce24    10.576   .     S
Ce24     Ti56    10.576   .     S
Ce25     Ti101    10.576   .     S
Ce25     Ce26    10.576   .     S
Ce25     Ce42    10.576   .     S
Ce26     Ti100    10.576   .     S
Ce26     Ce37    10.576   .     S
Ce27     Ti54    10.576   .     S
Ce27     Ce28    10.576   .     S
Ce27     Ce40    10.576   .     S
Ce28     Ti51    10.576   .     S
Ce28     Ce39    10.576   .     S
Ce29     Ti102    10.576   .     S
Ce29     Ce30    10.576   .     S
Ce30     Ti103    10.576   .     S
Ce31     Ti126    10.576   .     S
Ce31     Ce32    10.576   .     S
Ce31     Ce42    10.576   .     S
Ce32     Ti121    10.576   .     S
Ce32     Ce37    10.576   .     S
Ce33     Ti122    10.576   .     S
Ce33     Ce34    10.576   .     S
Ce33     Ce40    10.576   .     S
Ce34     Ti117    10.576   .     S
Ce34     Ce39    10.576   .     S
Ce35     Ti118    10.576   .     S
Ce35     Ce36    10.576   .     S
Ce35     Ce41    10.576   .     S
Ce36     Ti125    10.576   .     S
Ce36     Ce38    10.576   .     S
Ce37     Ti129    10.576   .     S
Ce38     Ti138    10.576   .     S
Ce39     Ti136    10.576   .     S
Ce40     Ti128    10.576   .     S
Ce41     Ti133    10.576   .     S
Ce42     Ti131    10.576   .     S
V43     V48    9.082   .     S
V43     V45    9.082   .     S
V43     Er44    8.499   .     S
Er44     Ti125    9.536   .     S
Er44     Ti116    9.536   .     S
Er44     Ti51    9.536   1_545     S
Er44     Ti53    9.536   1_545     S
V45     V50    9.082   .     S
V45     Er46    8.499   .     S
Er46     Ti124    9.536   .     S
Er46     Ti126    9.536   .     S
Er46     Ti52    9.536   1_545     S
Er46     Ti54    9.536   1_545     S
Er47     Ti134    9.536   .     S
Er47     Ti138    9.536   .     S
Er47     Ti56    9.536   1_545     S
Er47     Ti58    9.536   1_545     S
Er47     V48    8.499   .     S
V48     V50    9.082   .     S
Er49     Ti131    9.536   .     S
Er49     Ti135    9.536   .     S
Er49     Ti55    9.536   1_545     S
Er49     Ti57    9.536   1_545     S
Er49     V50    8.499   .     S
Ti51     Er44    9.536   1_565     S
Ti51     Er107    9.536   1_565     S
Ti51     Ti116    10.987   1_565     S
Ti51     Ti53    10.987   .     S
Ti52     Er46    9.536   1_565     S
Ti52     Er59    9.536   1_565     S
Ti52     Ti126    10.987   1_565     S
Ti52     Ti54    10.987   .     S
Ti53     Er44    9.536   1_565     S
Ti53     Er107    9.536   1_565     S
Ti53     Ti125    10.987   1_565     S
Ti54     Er46    9.536   1_565     S
Ti54     Er59    9.536   1_565     S
Ti54     Ti124    10.987   1_565     S
Ti55     Er49    9.536   1_565     S
Ti55     Er111    9.536   1_565     S
Ti55     Ti135    10.987   1_565     S
Ti55     Ti57    10.987   .     S
Ti56     Er47    9.536   1_565     S
Ti56     Er63    9.536   1_565     S
Ti56     Ti138    10.987   1_565     S
Ti56     Ti58    10.987   .     S
Ti57     Er49    9.536   1_565     S
Ti57     Er111    9.536   1_565     S
Ti57     Ti131    10.987   1_565     S
Ti58     Er47    9.536   1_565     S
Ti58     Er63    9.536   1_565     S
Ti58     Ti134    10.987   1_565     S
Er59     Ti52    9.536   1_545     S
Er59     Ti126    9.536   .     S
Er59     Ti54    9.536   1_545     S
Er59     Ti124    9.536   .     S
Er59     V60    8.499   .     S
V60     V62    9.082   1_545     S
V60     V66    9.082   .     S
Er61     Ti80    9.536   1_554     S
Er61     Ti130    9.536   .     S
Er61     Ti82    9.536   1_554     S
Er61     Ti128    9.536   .     S
Er61     V62    8.499   .     S
V62     V60    9.082   1_565     S
V62     V64    9.082   1_564     S
Er63     Ti58    9.536   1_545     S
Er63     Ti134    9.536   .     S
Er63     Ti56    9.536   1_545     S
Er63     Ti138    9.536   .     S
Er63     V64    8.499   .     S
V64     V62    9.082   1_546     S
V64     V66    9.082   1_556     S
Er65     Ti78    9.536   1_554     S
Er65     Ti121    9.536   .     S
Er65     Ti76    9.536   1_554     S
Er65     Ti123    9.536   .     S
Er65     V66    8.499   .     S
V66     V64    9.082   1_554     S
V67     V72    9.082   .     S
V67     V69    9.082   .     S
V67     Er68    8.499   .     S
Er68     Ti121    9.536   .     S
Er68     Ti123    9.536   .     S
Er68     Ti76    9.536   1_554     S
Er68     Ti78    9.536   1_554     S
V69     V74    9.082   .     S
V69     Er70    8.499   .     S
Er70     Ti120    9.536   .     S
Er70     Ti122    9.536   .     S
Er70     Ti75    9.536   1_554     S
Er70     Ti77    9.536   1_554     S
Er71     Ti127    9.536   .     S
Er71     Ti129    9.536   .     S
Er71     Ti79    9.536   1_554     S
Er71     Ti81    9.536   1_554     S
Er71     V72    8.499   .     S
V72     V74    9.082   .     S
Er73     Ti128    9.536   .     S
Er73     Ti130    9.536   .     S
Er73     Ti80    9.536   1_554     S
Er73     Ti82    9.536   1_554     S
Er73     V74    8.499   .     S
Ti75     Er70    9.536   1_556     S
Ti75     Er83    9.536   1_556     S
Ti75     Ti122    10.987   1_556     S
Ti75     Ti77    10.987   .     S
Ti76     Er65    9.536   1_556     S
Ti76     Er68    9.536   1_556     S
Ti76     Ti123    10.987   1_556     S
Ti76     Ti78    10.987   .     S
Ti77     Er70    9.536   1_556     S
Ti77     Er83    9.536   1_556     S
Ti77     Ti120    10.987   1_556     S
Ti78     Er65    9.536   1_556     S
Ti78     Er68    9.536   1_556     S
Ti78     Ti121    10.987   1_556     S
Ti79     Er71    9.536   1_556     S
Ti79     Er87    9.536   1_556     S
Ti79     Ti129    10.987   1_556     S
Ti79     Ti81    10.987   .     S
Ti80     Er61    9.536   1_556     S
Ti80     Er73    9.536   1_556     S
Ti80     Ti130    10.987   1_556     S
Ti80     Ti82    10.987   .     S
Ti81     Er71    9.536   1_556     S
Ti81     Er87    9.536   1_556     S
Ti81     Ti127    10.987   1_556     S
Ti82     Er61    9.536   1_556     S
Ti82     Er73    9.536   1_556     S
Ti82     Ti128    10.987   1_556     S
Er83     Ti75    9.536   1_554     S
Er83     Ti122    9.536   .     S
Er83     Ti77    9.536   1_554     S
Er83     Ti120    9.536   .     S
Er83     V84    8.499   .     S
V84     V86    9.082   1_554     S
V84     V90    9.082   .     S
Er85     Ti104    9.536   1_455     S
Er85     Ti137    9.536   .     S
Er85     Ti106    9.536   1_455     S
Er85     Ti133    9.536   .     S
Er85     V86    8.499   .     S
V86     V84    9.082   1_556     S
V86     V88    9.082   1_456     S
Er87     Ti81    9.536   1_554     S
Er87     Ti127    9.536   .     S
Er87     Ti79    9.536   1_554     S
Er87     Ti129    9.536   .     S
Er87     V88    8.499   .     S
V88     V86    9.082   1_654     S
V88     V90    9.082   1_655     S
Er89     Ti102    9.536   1_455     S
Er89     Ti117    9.536   .     S
Er89     Ti100    9.536   1_455     S
Er89     Ti119    9.536   .     S
Er89     V90    8.499   .     S
V90     V88    9.082   1_455     S
V91     V96    9.082   .     S
V91     V93    9.082   .     S
V91     Er92    8.499   .     S
Er92     Ti117    9.536   .     S
Er92     Ti119    9.536   .     S
Er92     Ti100    9.536   1_455     S
Er92     Ti102    9.536   1_455     S
V93     V98    9.082   .     S
V93     Er94    8.499   .     S
Er94     Ti115    9.536   .     S
Er94     Ti118    9.536   .     S
Er94     Ti99    9.536   1_455     S
Er94     Ti101    9.536   1_455     S
Er95     Ti132    9.536   .     S
Er95     Ti136    9.536   .     S
Er95     Ti103    9.536   1_455     S
Er95     Ti105    9.536   1_455     S
Er95     V96    8.499   .     S
V96     V98    9.082   .     S
Er97     Ti133    9.536   .     S
Er97     Ti137    9.536   .     S
Er97     Ti104    9.536   1_455     S
Er97     Ti106    9.536   1_455     S
Er97     V98    8.499   .     S
Ti99     Er94    9.536   1_655     S
Ti99     Er113    9.536   1_655     S
Ti99     Ti118    10.987   1_655     S
Ti99     Ti101    10.987   .     S
Ti100     Er89    9.536   1_655     S
Ti100     Er92    9.536   1_655     S
Ti100     Ti119    10.987   1_655     S
Ti100     Ti102    10.987   .     S
Ti101     Er94    9.536   1_655     S
Ti101     Er113    9.536   1_655     S
Ti101     Ti115    10.987   1_655     S
Ti102     Er89    9.536   1_655     S
Ti102     Er92    9.536   1_655     S
Ti102     Ti117    10.987   1_655     S
Ti103     Er95    9.536   1_655     S
Ti103     Er109    9.536   1_655     S
Ti103     Ti136    10.987   1_655     S
Ti103     Ti105    10.987   .     S
Ti104     Er85    9.536   1_655     S
Ti104     Er97    9.536   1_655     S
Ti104     Ti137    10.987   1_655     S
Ti104     Ti106    10.987   .     S
Ti105     Er95    9.536   1_655     S
Ti105     Er109    9.536   1_655     S
Ti105     Ti132    10.987   1_655     S
Ti106     Er85    9.536   1_655     S
Ti106     Er97    9.536   1_655     S
Ti106     Ti133    10.987   1_655     S
Er107     Ti53    9.536   1_545     S
Er107     Ti125    9.536   .     S
Er107     Ti51    9.536   1_545     S
Er107     Ti116    9.536   .     S
Er107     V108    8.499   .     S
V108     V110    9.082   1_545     S
V108     V114    9.082   .     S
Er109     Ti105    9.536   1_455     S
Er109     Ti132    9.536   .     S
Er109     Ti103    9.536   1_455     S
Er109     Ti136    9.536   .     S
Er109     V110    8.499   .     S
V110     V108    9.082   1_565     S
V110     V112    9.082   1_465     S
Er111     Ti55    9.536   1_545     S
Er111     Ti135    9.536   .     S
Er111     Ti57    9.536   1_545     S
Er111     Ti131    9.536   .     S
Er111     V112    8.499   .     S
V112     V110    9.082   1_645     S
V112     V114    9.082   1_655     S
Er113     Ti99    9.536   1_455     S
Er113     Ti118    9.536   .     S
Er113     Ti101    9.536   1_455     S
Er113     Ti115    9.536   .     S
Er113     V114    8.499   .     S
V114     V112    9.082   1_455     S
Ti115     Ce144    10.576   .     S
Ti115     Ti101    10.987   1_455     S
Ti115     Ti118    10.987   .     S
Ti116     Ce143    10.576   .     S
Ti116     Ti51    10.987   1_545     S
Ti116     Ti125    10.987   .     S
Ti117     Ti119    10.987   .     S
Ti117     Ti102    10.987   1_455     S
Ti118     Ti99    10.987   1_455     S
Ti119     Ce142    10.576   .     S
Ti119     Ti100    10.987   1_455     S
Ti120     Ce141    10.576   .     S
Ti120     Ti77    10.987   1_554     S
Ti120     Ti122    10.987   .     S
Ti121     Ti123    10.987   .     S
Ti121     Ti78    10.987   1_554     S
Ti122     Ti75    10.987   1_554     S
Ti123     Ce139    10.576   .     S
Ti123     Ti76    10.987   1_554     S
Ti124     Ce140    10.576   .     S
Ti124     Ti54    10.987   1_545     S
Ti124     Ti126    10.987   .     S
Ti125     Ti53    10.987   1_545     S
Ti126     Ti52    10.987   1_545     S
Ti127     Ti129    10.987   .     S
Ti127     Ti81    10.987   1_554     S
Ti128     Ti82    10.987   1_554     S
Ti128     Ti130    10.987   .     S
Ti129     Ti79    10.987   1_554     S
Ti130     Ti80    10.987   1_554     S
Ti131     Ti57    10.987   1_545     S
Ti131     Ti135    10.987   .     S
Ti132     Ti136    10.987   .     S
Ti132     Ti105    10.987   1_455     S
Ti133     Ti106    10.987   1_455     S
Ti133     Ti137    10.987   .     S
Ti134     Ti138    10.987   .     S
Ti134     Ti58    10.987   1_545     S
Ti135     Ti55    10.987   1_545     S
Ti136     Ti103    10.987   1_455     S
Ti137     Ti104    10.987   1_455     S
Ti138     Ti56    10.987   1_545     S
Ce139     Ce140    10.576   .     S
Ce139     Ce141    10.576   .     S
Ce140     Ce143    10.576   .     S
Ce141     Ce142    10.576   .     S
Ce142     Ce144    10.576   .     S
Ce143     Ce144    10.576   .     S
