data_sig
_audit_creation_date              2020-02-04
_audit_creation_method            'Pymatgen'
_symmetry_space_group_name_H-M    'P1'
_symmetry_Int_Tables_number       1
loop_
_symmetry_equiv_pos_as_xyz
  x,y,z
_cell_length_a                    82.586
_cell_length_b                    82.586
_cell_length_c                    43.6826
_cell_angle_alpha                 90.0
_cell_angle_beta                 90.0
_cell_angle_gamma                 90.0
loop_
_atom_site_label
_atom_site_type_symbol
_atom_site_fract_x
_atom_site_fract_y
_atom_site_fract_z
C1     C     0.1063   0.8937   0.1145
C2     C     0.1063   0.8937   0.8855
C3     C     0.8937   0.1063   0.1145
C4     C     0.8937   0.1063   0.8855
C5     C     0.3937   0.3937   0.3855
C6     C     0.3937   0.3937   0.6145
C7     C     0.6063   0.6063   0.6145
C8     C     0.6063   0.6063   0.3855
Er9     Er     0.9073   0.9073   0.5
Er10     Er     0.0927   0.0927   0.5
Er11     Er     0.4073   0.5927   0.0
Er12     Er     0.5927   0.4073   0.0
H13     H     0.5719   0.3424   0.5
H14     H     0.6576   0.4281   0.5
H15     H     0.3424   0.5719   0.5
H16     H     0.4281   0.6576   0.5
S17     S     0.3567   0.7916   0.0
Ne18     Ne     0.4518   0.8174   0.3171
O19     O     0.3668   0.865   0.1811
Na20     Na     0.526   0.906   0.3855
Na21     Na     0.526   0.906   0.6145
Ne22     Ne     0.4518   0.8174   0.6829
O23     O     0.3668   0.865   0.8189
S24     S     0.7916   0.3567   0.0
Ne25     Ne     0.8174   0.4518   0.6829
O26     O     0.865   0.3668   0.8189
Na27     Na     0.906   0.526   0.6145
Na28     Na     0.906   0.526   0.3855
Ne29     Ne     0.8174   0.4518   0.3171
O30     O     0.865   0.3668   0.1811
S31     S     0.6433   0.2084   0.0
Ne32     Ne     0.5482   0.1826   0.6829
O33     O     0.6332   0.135   0.8189
Na34     Na     0.474   0.094   0.6145
Na35     Na     0.474   0.094   0.3855
Ne36     Ne     0.5482   0.1826   0.3171
O37     O     0.6332   0.135   0.1811
Ce38     Ce     0.5557   0.292   0.0
Ce39     Ce     0.292   0.5557   0.0
Ce40     Ce     0.4443   0.708   0.0
Ce41     Ce     0.708   0.4443   0.0
He42     He     0.7264   0.8936   0.0
He43     He     0.8936   0.7264   0.0
Li44     Li     0.7775   0.6919   0.0
Li45     Li     0.6919   0.7775   0.0
Mg46     Mg     0.6255   0.767   0.1904
Mg47     Mg     0.767   0.6255   0.1904
Mg48     Mg     0.767   0.6255   0.8096
B49     B     0.6881   0.6881   0.6825
B50     B     0.6881   0.6881   0.3175
Ti51     Ti     0.7397   0.7397   0.5
Mg52     Mg     0.6255   0.767   0.8096
F53     F     0.5048   0.3642   0.6861
N54     N     0.4914   0.2643   0.8132
F55     F     0.6358   0.4952   0.6861
N56     N     0.7356   0.5086   0.8132
F57     F     0.4952   0.6358   0.6861
N58     N     0.5086   0.7356   0.8132
F59     F     0.3642   0.5048   0.6861
N60     N     0.2643   0.4914   0.8132
Be61     Be     0.5428   0.4572   0.8139
Be62     Be     0.4572   0.5428   0.8139
F63     F     0.3642   0.5048   0.3139
N64     N     0.2643   0.4914   0.1868
F65     F     0.4952   0.6358   0.3139
N66     N     0.5086   0.7356   0.1868
F67     F     0.6358   0.4952   0.3139
N68     N     0.7356   0.5086   0.1868
F69     F     0.5048   0.3642   0.3139
N70     N     0.4914   0.2643   0.1868
Be71     Be     0.5428   0.4572   0.1861
Be72     Be     0.4572   0.5428   0.1861
Mg73     Mg     0.3745   0.233   0.1904
Mg74     Mg     0.233   0.3745   0.1904
Mg75     Mg     0.233   0.3745   0.8096
B76     B     0.3119   0.3119   0.6825
B77     B     0.3119   0.3119   0.3175
Ti78     Ti     0.2603   0.2603   0.5
Mg79     Mg     0.3745   0.233   0.8096
He80     He     0.2736   0.1064   0.0
He81     He     0.1064   0.2736   0.0
Li82     Li     0.2225   0.3081   0.0
Li83     Li     0.3081   0.2225   0.0
S84     S     0.2084   0.6433   0.0
Ne85     Ne     0.1826   0.5482   0.3171
O86     O     0.135   0.6332   0.1811
Na87     Na     0.094   0.474   0.3855
Na88     Na     0.094   0.474   0.6145
Ne89     Ne     0.1826   0.5482   0.6829
O90     O     0.135   0.6332   0.8189
H91     H     0.8424   0.9281   0.0
H92     H     0.9281   0.8424   0.0
H93     H     0.1576   0.0719   0.0
H94     H     0.0719   0.1576   0.0
S95     S     0.7084   0.8567   0.5
O96     O     0.635   0.8668   0.6811
Ne97     Ne     0.6826   0.9518   0.8171
Na98     Na     0.594   0.026   0.1145
Na99     Na     0.594   0.026   0.8855
O100     O     0.635   0.8668   0.3189
Ne101     Ne     0.6826   0.9518   0.1829
S102     S     0.8567   0.7084   0.5
O103     O     0.8668   0.635   0.6811
Ne104     Ne     0.9518   0.6826   0.8171
Na105     Na     0.026   0.594   0.1145
Na106     Na     0.026   0.594   0.8855
O107     O     0.8668   0.635   0.3189
Ne108     Ne     0.9518   0.6826   0.1829
S109     S     0.2916   0.1433   0.5
Ne110     Ne     0.3174   0.0482   0.8171
O111     O     0.365   0.1332   0.6811
Na112     Na     0.406   0.974   0.1145
Na113     Na     0.406   0.974   0.8855
Ne114     Ne     0.3174   0.0482   0.1829
O115     O     0.365   0.1332   0.3189
S116     S     0.1433   0.2916   0.5
Ne117     Ne     0.0482   0.3174   0.8171
O118     O     0.1332   0.365   0.6811
Na119     Na     0.974   0.406   0.1145
Na120     Na     0.974   0.406   0.8855
Ne121     Ne     0.0482   0.3174   0.1829
O122     O     0.1332   0.365   0.3189
Ce123     Ce     0.208   0.0557   0.5
Ce124     Ce     0.9443   0.792   0.5
Ce125     Ce     0.792   0.9443   0.5
Ce126     Ce     0.0557   0.208   0.5
He127     He     0.3936   0.7736   0.5
He128     He     0.2264   0.6064   0.5
Li129     Li     0.1919   0.7225   0.5
Li130     Li     0.2775   0.8081   0.5
Mg131     Mg     0.267   0.8745   0.3096
Mg132     Mg     0.267   0.8745   0.6904
Mg133     Mg     0.1255   0.733   0.3096
B134     B     0.1881   0.8119   0.8175
B135     B     0.1881   0.8119   0.1825
Ti136     Ti     0.2397   0.7603   0.0
Mg137     Mg     0.1255   0.733   0.6904
F138     F     0.1358   0.0048   0.1861
N139     N     0.2356   0.9914   0.3132
F140     F     0.0048   0.1358   0.1861
N141     N     0.9914   0.2357   0.3132
F142     F     0.8642   0.9952   0.1861
N143     N     0.7644   0.0086   0.3132
F144     F     0.9952   0.8642   0.1861
N145     N     0.0086   0.7644   0.3132
Be146     Be     0.9572   0.9572   0.3139
Be147     Be     0.0428   0.0428   0.3139
F148     F     0.1358   0.0048   0.8139
N149     N     0.2357   0.9914   0.6868
F150     F     0.0048   0.1358   0.8139
N151     N     0.9914   0.2356   0.6868
F152     F     0.9952   0.8642   0.8139
N153     N     0.0086   0.7644   0.6868
F154     F     0.8642   0.9952   0.8139
N155     N     0.7644   0.0086   0.6868
Be156     Be     0.9572   0.9572   0.6861
Be157     Be     0.0428   0.0428   0.6861
Mg158     Mg     0.8745   0.267   0.3096
Mg159     Mg     0.8745   0.267   0.6904
Mg160     Mg     0.733   0.1255   0.3096
B161     B     0.8119   0.1881   0.8175
B162     B     0.8119   0.1881   0.1825
Ti163     Ti     0.7603   0.2397   0.0
Mg164     Mg     0.733   0.1255   0.6904
He165     He     0.7736   0.3936   0.5
He166     He     0.6064   0.2264   0.5
Li167     Li     0.7225   0.1919   0.5
Li168     Li     0.8081   0.2775   0.5
V169     V     0.5   0.0   0.75
V170     V     0.0   0.5   0.25
V171     V     0.0   0.5   0.75
V172     V     0.5   0.0   0.25
loop_
_geom_bond_atom_site_label_1
_geom_bond_atom_site_label_2
_geom_bond_distance
_geom_bond_site_symmetry_2
_ccdc_geom_bond_type
C1     B135    10.0   .     S
C1     C2    10.0   1_554     S
C1     F138    10.0   1_565     S
C1     F144    10.0   1_455     S
C2     B134    10.0   .     S
C2     C1    10.0   1_556     S
C2     F148    10.0   1_565     S
C2     F152    10.0   1_455     S
C3     B162    10.0   .     S
C3     C4    10.0   1_554     S
C3     F140    10.0   1_655     S
C3     F142    10.0   1_545     S
C4     B161    10.0   .     S
C4     C3    10.0   1_556     S
C4     F150    10.0   1_655     S
C4     F154    10.0   1_545     S
C5     B77    10.0   .     S
C5     C6    10.0   .     S
C5     F63    10.0   .     S
C5     F69    10.0   .     S
C6     B76    10.0   .     S
C6     F53    10.0   .     S
C6     F59    10.0   .     S
C7     B49    10.0   .     S
C7     C8    10.0   .     S
C7     F55    10.0   .     S
C7     F57    10.0   .     S
C8     B50    10.0   .     S
C8     F65    10.0   .     S
C8     F67    10.0   .     S
Er9     Be146    10.0   .     S
Er9     Be156    10.0   .     S
Er9     Ce124    10.0   .     S
Er9     Ce125    10.0   .     S
Er10     Be147    10.0   .     S
Er10     Be157    10.0   .     S
Er10     Ce126    10.0   .     S
Er10     Ce123    10.0   .     S
Er11     Be72    10.0   .     S
Er11     Be62    10.0   1_554     S
Er11     Ce39    10.0   .     S
Er11     Ce40    10.0   .     S
Er12     Be71    10.0   .     S
Er12     Be61    10.0   1_554     S
Er12     Ce41    10.0   .     S
Er12     Ce38    10.0   .     S
H13     He166    10.0   .     S
H13     F53    10.0   .     S
H13     F69    10.0   .     S
H13     H14    10.001   .     S
H14     He165    10.0   .     S
H14     F55    10.0   .     S
H14     F67    10.0   .     S
H15     He128    10.0   .     S
H15     F63    10.0   .     S
H15     F59    10.0   .     S
H15     H16    10.001   .     S
H16     He127    10.0   .     S
H16     F65    10.0   .     S
H16     F57    10.0   .     S
S17     Ti136    10.0   .     S
S17     O19    10.0   .     S
S17     O23    10.0   1_554     S
S17     Ce40    10.0   .     S
Ne18     O19    9.999   .     S
Ne18     Na20    10.0   .     S
Ne18     He127    10.0   .     S
Ne18     N66    10.0   .     S
O19     Na112    10.001   .     S
O19     Mg131    10.0   .     S
Na20     V172    10.0   1_565     S
Na20     Na21    10.0   .     S
Na20     O100    10.001   .     S
Na21     V169    10.0   1_565     S
Na21     Ne22    10.0   .     S
Na21     O96    10.001   .     S
Ne22     O23    9.999   .     S
Ne22     He127    10.0   .     S
Ne22     N58    10.0   .     S
O23     S17    10.0   1_556     S
O23     Na113    10.001   .     S
O23     Mg132    10.0   .     S
S24     Ti163    10.0   .     S
S24     O30    10.0   .     S
S24     O26    10.0   1_554     S
S24     Ce41    10.0   .     S
Ne25     O26    9.999   .     S
Ne25     Na27    10.0   .     S
Ne25     He165    10.0   .     S
Ne25     N56    10.0   .     S
O26     S24    10.0   1_556     S
O26     Na120    10.001   .     S
O26     Mg159    10.0   .     S
Na27     V171    10.0   1_655     S
Na27     Na28    10.0   .     S
Na27     O103    10.001   .     S
Na28     V170    10.0   1_655     S
Na28     Ne29    10.0   .     S
Na28     O107    10.001   .     S
Ne29     O30    9.999   .     S
Ne29     He165    10.0   .     S
Ne29     N68    10.0   .     S
O30     Na119    10.001   .     S
O30     Mg158    10.0   .     S
S31     Ti163    10.0   .     S
S31     O37    10.0   .     S
S31     O33    10.0   1_554     S
S31     Ce38    10.0   .     S
Ne32     O33    9.999   .     S
Ne32     Na34    10.0   .     S
Ne32     He166    10.0   .     S
Ne32     N54    10.0   .     S
O33     S31    10.0   1_556     S
O33     Na99    10.001   .     S
O33     Mg164    10.0   .     S
Na34     V169    10.0   .     S
Na34     Na35    10.0   .     S
Na34     O111    10.001   .     S
Na35     V172    10.0   .     S
Na35     Ne36    10.0   .     S
Na35     O115    10.001   .     S
Ne36     O37    9.999   .     S
Ne36     He166    10.0   .     S
Ne36     N70    10.0   .     S
O37     Na98    10.001   .     S
O37     Mg160    10.0   .     S
Ce38     N54    10.0   1_554     S
Ce38     N70    10.0   .     S
Ce39     N60    10.0   1_554     S
Ce39     N64    10.0   .     S
Ce39     S84    10.0   .     S
Ce40     N58    10.0   1_554     S
Ce40     N66    10.0   .     S
Ce41     N56    10.0   1_554     S
Ce41     N68    10.0   .     S
He42     Li45    10.0   .     S
He42     H91    10.0   .     S
He42     Ne97    10.0   1_554     S
He42     Ne101    10.0   .     S
He43     Li44    10.0   .     S
He43     H92    10.0   .     S
He43     Ne104    10.0   1_554     S
He43     Ne108    10.0   .     S
Li44     Li45    10.0   .     S
Li44     Mg47    10.0   .     S
Li44     Mg48    10.0   1_554     S
Li45     Mg46    10.0   .     S
Li45     Mg52    10.0   1_554     S
Mg46     N66    10.0   .     S
Mg46     B50    10.0   .     S
Mg46     O100    10.0   .     S
Mg47     N68    10.0   .     S
Mg47     B50    10.0   .     S
Mg47     O107    10.0   .     S
Mg48     N56    10.0   .     S
Mg48     B49    10.0   .     S
Mg48     O103    10.0   .     S
Mg48     Li44    10.0   1_556     S
B49     Ti51    10.0   .     S
B49     Mg52    10.0   .     S
B50     Ti51    10.0   .     S
Ti51     S95    10.0   .     S
Ti51     S102    10.0   .     S
Mg52     N58    10.0   .     S
Mg52     O96    10.0   .     S
Mg52     Li45    10.0   1_556     S
F53     N54    10.0   .     S
F53     Be61    10.0   .     S
N54     Ce38    10.0   1_556     S
N54     Mg79    10.0   .     S
F55     N56    10.0   .     S
F55     Be61    10.0   .     S
N56     Ce41    10.0   1_556     S
F57     N58    10.0   .     S
F57     Be62    10.0   .     S
N58     Ce40    10.0   1_556     S
F59     N60    10.0   .     S
F59     Be62    10.0   .     S
N60     Ce39    10.0   1_556     S
N60     Mg75    10.0   .     S
N60     Ne89    10.0   .     S
Be61     Er12    10.0   1_556     S
Be61     Be62    10.0   .     S
Be62     Er11    10.0   1_556     S
F63     N64    10.0   .     S
F63     Be72    10.0   .     S
N64     Mg74    10.0   .     S
N64     Ne85    10.0   .     S
F65     N66    10.0   .     S
F65     Be72    10.0   .     S
F67     N68    10.0   .     S
F67     Be71    10.0   .     S
F69     N70    10.0   .     S
F69     Be71    10.0   .     S
N70     Mg73    10.0   .     S
Be71     Be72    10.0   .     S
Mg73     B77    10.0   .     S
Mg73     O115    10.0   .     S
Mg73     Li83    10.0   .     S
Mg74     B77    10.0   .     S
Mg74     O122    10.0   .     S
Mg74     Li82    10.0   .     S
Mg75     B76    10.0   .     S
Mg75     O118    10.0   .     S
Mg75     Li82    10.0   1_556     S
B76     Ti78    10.0   .     S
B76     Mg79    10.0   .     S
B77     Ti78    10.0   .     S
Ti78     S109    10.0   .     S
Ti78     S116    10.0   .     S
Mg79     O111    10.0   .     S
Mg79     Li83    10.0   1_556     S
He80     Li83    10.0   .     S
He80     H93    10.0   .     S
He80     Ne110    10.0   1_554     S
He80     Ne114    10.0   .     S
He81     Li82    10.0   .     S
He81     H94    10.0   .     S
He81     Ne117    10.0   1_554     S
He81     Ne121    10.0   .     S
Li82     Mg75    10.0   1_554     S
Li82     Li83    10.0   .     S
Li83     Mg79    10.0   1_554     S
S84     Ti136    10.0   .     S
S84     O86    10.0   .     S
S84     O90    10.0   1_554     S
Ne85     O86    9.999   .     S
Ne85     Na87    10.0   .     S
Ne85     He128    10.0   .     S
O86     Na105    10.001   .     S
O86     Mg133    10.0   .     S
Na87     V170    10.0   .     S
Na87     Na88    10.0   .     S
Na87     O122    10.001   .     S
Na88     V171    10.0   .     S
Na88     Ne89    10.0   .     S
Na88     O118    10.001   .     S
Ne89     O90    9.999   .     S
Ne89     He128    10.0   .     S
O90     S84    10.0   1_556     S
O90     Na106    10.001   .     S
O90     Mg137    10.0   .     S
H91     F154    10.0   1_554     S
H91     F142    10.0   .     S
H91     H92    10.001   .     S
H92     F152    10.0   1_554     S
H92     F144    10.0   .     S
H93     F148    10.0   1_554     S
H93     F138    10.0   .     S
H93     H94    10.001   .     S
H94     F150    10.0   1_554     S
H94     F140    10.0   .     S
S95     O100    10.0   .     S
S95     O96    10.0   .     S
S95     Ce125    10.0   .     S
O96     Ne97    9.999   .     S
Ne97     Na99    10.0   1_565     S
Ne97     He42    10.0   1_556     S
Ne97     N155    10.0   1_565     S
Na98     V172    10.0   .     S
Na98     Na99    10.0   1_554     S
Na98     Ne101    10.0   1_545     S
Na99     Ne97    10.0   1_545     S
Na99     V169    10.0   .     S
Na99     Na98    10.0   1_556     S
O100     Ne101    9.999   .     S
Ne101     Na98    10.0   1_565     S
Ne101     N143    10.0   1_565     S
S102     O103    10.0   .     S
S102     O107    10.0   .     S
S102     Ce124    10.0   .     S
O103     Ne104    9.999   .     S
Ne104     Na106    10.0   1_655     S
Ne104     He43    10.0   1_556     S
Ne104     N153    10.0   1_655     S
Na105     V170    10.0   .     S
Na105     Na106    10.0   1_554     S
Na105     Ne108    10.0   1_455     S
Na106     Ne104    10.0   1_455     S
Na106     V171    10.0   .     S
Na106     Na105    10.0   1_556     S
O107     Ne108    9.999   .     S
Ne108     Na105    10.0   1_655     S
Ne108     N145    10.0   1_655     S
S109     O111    10.0   .     S
S109     O115    10.0   .     S
S109     Ce123    10.0   .     S
Ne110     O111    9.999   .     S
Ne110     Na113    10.0   1_545     S
Ne110     He80    10.0   1_556     S
Ne110     N149    10.0   1_545     S
Na112     V172    10.0   1_565     S
Na112     Na113    10.0   1_554     S
Na112     Ne114    10.0   1_565     S
Na113     Ne110    10.0   1_565     S
Na113     V169    10.0   1_565     S
Na113     Na112    10.0   1_556     S
Ne114     O115    9.999   .     S
Ne114     Na112    10.0   1_545     S
Ne114     N139    10.0   1_545     S
S116     O122    10.0   .     S
S116     O118    10.0   .     S
S116     Ce126    10.0   .     S
Ne117     O118    9.999   .     S
Ne117     Na120    10.0   1_455     S
Ne117     He81    10.0   1_556     S
Ne117     N151    10.0   1_455     S
Na119     V170    10.0   1_655     S
Na119     Na120    10.0   1_554     S
Na119     Ne121    10.0   1_655     S
Na120     Ne117    10.0   1_655     S
Na120     V171    10.0   1_655     S
Na120     Na119    10.0   1_556     S
Ne121     O122    9.999   .     S
Ne121     Na119    10.0   1_455     S
Ne121     N141    10.0   1_455     S
Ce123     N139    10.0   1_545     S
Ce123     N149    10.0   1_545     S
Ce124     N145    10.0   1_655     S
Ce124     N153    10.0   1_655     S
Ce125     N155    10.0   1_565     S
Ce125     N143    10.0   1_565     S
Ce126     N151    10.0   1_455     S
Ce126     N141    10.0   1_455     S
He127     Li130    10.0   .     S
He128     Li129    10.0   .     S
Li129     Li130    10.0   .     S
Li129     Mg133    10.0   .     S
Li129     Mg137    10.0   .     S
Li130     Mg131    10.0   .     S
Li130     Mg132    10.0   .     S
Mg131     N139    10.0   .     S
Mg131     B135    10.0   .     S
Mg132     N149    10.0   .     S
Mg132     B134    10.0   .     S
Mg133     N145    10.0   .     S
Mg133     B135    10.0   .     S
B134     Ti136    10.0   1_556     S
B134     Mg137    10.0   .     S
B135     Ti136    10.0   .     S
Ti136     B134    10.0   1_554     S
Mg137     N153    10.0   .     S
F138     C1    10.0   1_545     S
F138     N139    10.0   1_545     S
F138     Be147    10.0   .     S
N139     Ne114    10.0   1_565     S
N139     Ce123    10.0   1_565     S
N139     F138    10.0   1_565     S
F140     C3    10.0   1_455     S
F140     N141    10.0   1_455     S
F140     Be147    10.0   .     S
N141     Ne121    10.0   1_655     S
N141     Ce126    10.0   1_655     S
N141     F140    10.0   1_655     S
N141     Mg158    10.0   .     S
F142     C3    10.0   1_565     S
F142     N143    10.0   1_565     S
F142     Be146    10.0   .     S
N143     Ne101    10.0   1_545     S
N143     Ce125    10.0   1_545     S
N143     F142    10.0   1_545     S
N143     Mg160    10.0   .     S
F144     C1    10.0   1_655     S
F144     N145    10.0   1_655     S
F144     Be146    10.0   .     S
N145     Ne108    10.0   1_455     S
N145     Ce124    10.0   1_455     S
N145     F144    10.0   1_455     S
Be146     Be147    10.0   1_665     S
Be147     Be146    10.0   1_445     S
F148     H93    10.0   1_556     S
F148     C2    10.0   1_545     S
F148     N149    10.0   1_545     S
F148     Be157    10.0   .     S
N149     Ne110    10.0   1_565     S
N149     Ce123    10.0   1_565     S
N149     F148    10.0   1_565     S
F150     H94    10.0   1_556     S
F150     C4    10.0   1_455     S
F150     N151    10.0   1_455     S
F150     Be157    10.0   .     S
N151     Ne117    10.0   1_655     S
N151     Ce126    10.0   1_655     S
N151     F150    10.0   1_655     S
N151     Mg159    10.0   .     S
F152     H92    10.0   1_556     S
F152     C2    10.0   1_655     S
F152     N153    10.0   1_655     S
F152     Be156    10.0   .     S
N153     Ne104    10.0   1_455     S
N153     Ce124    10.0   1_455     S
N153     F152    10.0   1_455     S
F154     H91    10.0   1_556     S
F154     C4    10.0   1_565     S
F154     N155    10.0   1_565     S
F154     Be156    10.0   .     S
N155     Ne97    10.0   1_545     S
N155     Ce125    10.0   1_545     S
N155     F154    10.0   1_545     S
N155     Mg164    10.0   .     S
Be156     Be157    10.0   1_665     S
Be157     Be156    10.0   1_445     S
Mg158     B162    10.0   .     S
Mg158     Li168    10.0   .     S
Mg159     B161    10.0   .     S
Mg159     Li168    10.0   .     S
Mg160     B162    10.0   .     S
Mg160     Li167    10.0   .     S
B161     Ti163    10.0   1_556     S
B161     Mg164    10.0   .     S
B162     Ti163    10.0   .     S
Ti163     B161    10.0   1_554     S
Mg164     Li167    10.0   .     S
He165     Li168    10.0   .     S
He166     Li167    10.0   .     S
Li167     Li168    10.0   .     S
V169     Na21    10.0   1_545     S
V169     Na113    10.0   1_545     S
V170     Na28    10.0   1_455     S
V170     Na119    10.0   1_455     S
V171     Na27    10.0   1_455     S
V171     Na120    10.0   1_455     S
V172     Na20    10.0   1_545     S
V172     Na112    10.0   1_545     S
