data_sin
_audit_creation_date              2020-02-04
_audit_creation_method            'Pymatgen'
_symmetry_space_group_name_H-M    'P1'
_symmetry_Int_Tables_number       1
loop_
_symmetry_equiv_pos_as_xyz
  x,y,z
_cell_length_a                    69.2812
_cell_length_b                    69.2812
_cell_length_c                    69.2812
_cell_angle_alpha                 90.0
_cell_angle_beta                 90.0
_cell_angle_gamma                 90.0
loop_
_atom_site_label
_atom_site_type_symbol
_atom_site_fract_x
_atom_site_fract_y
_atom_site_fract_z
V1     V     0.6664   0.5   0.6664
V2     V     0.6664   0.6664   0.5
V3     V     0.5   0.6664   0.6664
V4     V     0.5836   0.5836   0.75
V5     V     0.5836   0.75   0.5836
V6     V     0.4164   0.75   0.5836
V7     V     0.75   0.5836   0.5836
V8     V     0.75   0.5836   0.4164
V9     V     0.5836   0.4164   0.75
V10     V     0.6664   0.5   0.8336
V11     V     0.75   0.4164   0.9164
V12     V     0.5   0.8336   0.6664
V13     V     0.4164   0.9164   0.75
V14     V     0.0   0.8336   0.3336
V15     V     0.0836   0.9164   0.25
V16     V     0.9164   0.75   0.4164
V17     V     0.8336   0.6664   0.5
V18     V     0.5   0.1664   0.8336
V19     V     0.8336   0.5   0.1664
V20     V     0.1664   0.8336   0.5
V21     V     0.6664   0.3336   0.0
V22     V     0.75   0.4164   0.0836
V23     V     0.5836   0.25   0.9164
V24     V     0.4164   0.25   0.9164
V25     V     0.5   0.3336   0.8336
V26     V     0.4164   0.0836   0.75
V27     V     0.3336   0.0   0.6664
V28     V     0.25   0.9164   0.5836
V29     V     0.25   0.9164   0.4164
V30     V     0.3336   0.8336   0.5
V31     V     0.25   0.0836   0.0836
V32     V     0.0836   0.0836   0.25
V33     V     0.1664   0.0   0.1664
V34     V     0.1664   0.0   0.3336
V35     V     0.3336   0.1664   0.0
V36     V     0.25   0.0836   0.9164
V37     V     0.3336   0.0   0.8336
V38     V     0.9164   0.25   0.0836
V39     V     0.8336   0.3336   0.0
V40     V     0.1664   0.1664   0.0
V41     V     0.0   0.1664   0.1664
V42     V     0.0836   0.25   0.0836
V43     V     0.0   0.3336   0.1664
V44     V     0.0   0.6664   0.3336
V45     V     0.0836   0.75   0.4164
V46     V     0.9164   0.5836   0.25
V47     V     0.9164   0.4164   0.25
V48     V     0.8336   0.5   0.3336
loop_
_geom_bond_atom_site_label_1
_geom_bond_atom_site_label_2
_geom_bond_distance
_geom_bond_site_symmetry_2
_ccdc_geom_bond_type
V1     V7    10.0   .     S
V1     V4    10.0   .     S
V1     V9    10.0   .     S
V2     V5    10.0   .     S
V2     V7    10.0   .     S
V2     V8    10.0   .     S
V3     V4    10.0   .     S
V3     V5    10.0   .     S
V3     V6    10.0   .     S
V4     V10    10.0   .     S
V5     V12    10.0   .     S
V6     V12    10.0   .     S
V6     V30    10.0   .     S
V7     V17    10.0   .     S
V8     V17    10.0   .     S
V8     V48    10.0   .     S
V9     V10    10.0   .     S
V9     V25    10.0   .     S
V10     V11    10.0   .     S
V11     V21    10.0   1_556     S
V11     V39    10.0   1_556     S
V12     V13    10.0   .     S
V13     V27    10.0   1_565     S
V13     V37    10.0   1_565     S
V14     V15    10.0   .     S
V14     V45    10.0   .     S
V14     V16    10.0   1_455     S
V15     V34    10.0   1_565     S
V15     V33    10.0   1_565     S
V16     V44    10.0   1_655     S
V16     V17    10.0   .     S
V16     V14    10.0   1_655     S
V18     V24    10.0   .     S
V18     V23    10.0   .     S
V18     V26    10.0   .     S
V19     V47    10.0   .     S
V19     V46    10.0   .     S
V19     V22    10.0   .     S
V20     V29    10.0   .     S
V20     V28    10.0   .     S
V20     V45    10.0   .     S
V21     V11    10.0   1_554     S
V21     V22    10.0   .     S
V21     V23    10.0   1_554     S
V22     V39    10.0   .     S
V23     V21    10.0   1_556     S
V23     V25    10.0   .     S
V24     V35    10.0   1_556     S
V24     V25    10.0   .     S
V26     V27    10.0   .     S
V26     V37    10.0   .     S
V27     V13    10.0   1_545     S
V27     V28    10.0   1_545     S
V28     V27    10.0   1_565     S
V28     V30    10.0   .     S
V29     V34    10.0   1_565     S
V29     V30    10.0   .     S
V31     V33    10.0   .     S
V31     V35    10.0   .     S
V31     V40    10.0   .     S
V32     V34    10.0   .     S
V32     V33    10.0   .     S
V32     V41    10.0   .     S
V33     V15    10.0   1_545     S
V34     V15    10.0   1_545     S
V34     V29    10.0   1_545     S
V35     V24    10.0   1_554     S
V35     V36    10.0   1_554     S
V36     V35    10.0   1_556     S
V36     V40    10.0   1_556     S
V36     V37    10.0   .     S
V37     V13    10.0   1_545     S
V38     V43    10.0   1_655     S
V38     V41    10.0   1_655     S
V38     V39    10.0   .     S
V39     V11    10.0   1_554     S
V40     V36    10.0   1_554     S
V40     V42    10.0   .     S
V41     V38    10.0   1_455     S
V41     V42    10.0   .     S
V42     V43    10.0   .     S
V43     V38    10.0   1_455     S
V43     V47    10.0   1_455     S
V44     V16    10.0   1_455     S
V44     V45    10.0   .     S
V44     V46    10.0   1_455     S
V46     V44    10.0   1_655     S
V46     V48    10.0   .     S
V47     V43    10.0   1_655     S
V47     V48    10.0   .     S
