data_six
_audit_creation_date              2020-02-04
_audit_creation_method            'Pymatgen'
_symmetry_space_group_name_H-M    'P1'
_symmetry_Int_Tables_number       1
loop_
_symmetry_equiv_pos_as_xyz
  x,y,z
_cell_length_a                    109.9602
_cell_length_b                    109.9602
_cell_length_c                    109.9602
_cell_angle_alpha                 90.0
_cell_angle_beta                 90.0
_cell_angle_gamma                 90.0
loop_
_atom_site_label
_atom_site_type_symbol
_atom_site_fract_x
_atom_site_fract_y
_atom_site_fract_z
Er1     Er     0.7978   0.6571   0.6571
Er2     Er     0.7978   0.5929   0.5929
Er3     Er     0.6571   0.4522   0.5929
Er4     Er     0.5929   0.4522   0.6571
Er5     Er     0.6571   0.7978   0.6571
Er6     Er     0.5929   0.7978   0.5929
Er7     Er     0.6571   0.6571   0.7978
Er8     Er     0.5929   0.5929   0.7978
Er9     Er     0.6571   0.5929   0.4522
Er10     Er     0.5929   0.6571   0.4522
Er11     Er     0.4522   0.5929   0.6571
Er12     Er     0.4522   0.6571   0.5929
Er13     Er     0.6571   0.2978   0.1571
Er14     Er     0.5929   0.2978   0.0929
Er15     Er     0.6571   0.0929   0.9522
Er16     Er     0.5929   0.1571   0.9522
Er17     Er     0.6571   0.1571   0.2978
Er18     Er     0.5929   0.0929   0.2978
Er19     Er     0.2978   0.6571   0.1571
Er20     Er     0.2978   0.5929   0.0929
Er21     Er     0.2978   0.1571   0.6571
Er22     Er     0.2978   0.0929   0.5929
Er23     Er     0.6571   0.9522   0.0929
Er24     Er     0.5929   0.9522   0.1571
Er25     Er     0.0929   0.9522   0.6571
Er26     Er     0.1571   0.9522   0.5929
Er27     Er     0.5478   0.8429   0.9071
Er28     Er     0.5478   0.9071   0.8429
Er29     Er     0.4071   0.9071   0.7022
Er30     Er     0.3429   0.8429   0.7022
V31     V     0.4836   0.8579   0.7021
V32     V     0.5479   0.8579   0.7664
V33     V     0.4836   0.7021   0.8579
V34     V     0.5479   0.7664   0.8579
V35     V     0.6079   0.7336   0.7979
V36     V     0.6079   0.7979   0.7336
V37     V     0.4521   0.6421   0.7336
V38     V     0.5164   0.6421   0.7979
V39     V     0.3921   0.7021   0.7664
V40     V     0.3921   0.7664   0.7021
V41     V     0.4521   0.7336   0.6421
V42     V     0.5164   0.7979   0.6421
Er43     Er     0.4071   0.7022   0.9071
Er44     Er     0.3429   0.7022   0.8429
Er45     Er     0.0929   0.6571   0.9522
Er46     Er     0.1571   0.5929   0.9522
Er47     Er     0.1571   0.6571   0.2978
Er48     Er     0.0929   0.5929   0.2978
Er49     Er     0.3429   0.0478   0.9071
Er50     Er     0.4071   0.0478   0.8429
V51     V     0.2979   0.0164   0.6421
V52     V     0.2336   0.9521   0.6421
V53     V     0.2979   0.1079   0.7336
V54     V     0.2336   0.1079   0.7979
V55     V     0.3579   0.0479   0.7664
V56     V     0.3579   0.9836   0.7021
V57     V     0.2664   0.0479   0.8579
V58     V     0.2021   0.9836   0.8579
V59     V     0.2021   0.8921   0.7664
V60     V     0.2664   0.8921   0.7021
V61     V     0.1421   0.0164   0.7979
V62     V     0.1421   0.9521   0.7336
Er63     Er     0.2022   0.9071   0.9071
Er64     Er     0.2022   0.8429   0.8429
Er65     Er     0.9071   0.8429   0.5478
Er66     Er     0.8429   0.9071   0.5478
Er67     Er     0.7022   0.9071   0.4071
Er68     Er     0.7022   0.8429   0.3429
V69     V     0.7021   0.8579   0.4836
V70     V     0.7664   0.8579   0.5479
V71     V     0.8579   0.7021   0.4836
V72     V     0.8579   0.7664   0.5479
V73     V     0.7979   0.7336   0.6079
V74     V     0.7336   0.7979   0.6079
V75     V     0.7979   0.6421   0.5164
V76     V     0.7336   0.6421   0.4521
V77     V     0.7021   0.7664   0.3921
V78     V     0.7664   0.7021   0.3921
V79     V     0.6421   0.7336   0.4521
V80     V     0.6421   0.7979   0.5164
Er81     Er     0.7978   0.0929   0.0929
Er82     Er     0.7978   0.1571   0.1571
V83     V     0.6421   0.9521   0.2336
V84     V     0.6421   0.0164   0.2979
V85     V     0.7664   0.0479   0.3579
V86     V     0.7021   0.9836   0.3579
V87     V     0.7021   0.8921   0.2664
V88     V     0.7664   0.8921   0.2021
V89     V     0.7336   0.1079   0.2979
V90     V     0.7979   0.1079   0.2336
V91     V     0.8579   0.0479   0.2664
V92     V     0.8579   0.9836   0.2021
V93     V     0.7336   0.9521   0.1421
V94     V     0.7979   0.0164   0.1421
Er95     Er     0.9071   0.9071   0.2022
Er96     Er     0.8429   0.8429   0.2022
Er97     Er     0.3429   0.9071   0.0478
Er98     Er     0.4071   0.8429   0.0478
V99     V     0.2664   0.7021   0.8921
V100     V     0.2021   0.7664   0.8921
V101     V     0.2979   0.6421   0.0164
V102     V     0.2336   0.6421   0.9521
V103     V     0.1421   0.7336   0.9521
V104     V     0.1421   0.7979   0.0164
V105     V     0.3579   0.7021   0.9836
V106     V     0.3579   0.7664   0.0479
V107     V     0.2021   0.8579   0.9836
V108     V     0.2664   0.8579   0.0479
V109     V     0.2979   0.7336   0.1079
V110     V     0.2336   0.7979   0.1079
Er111     Er     0.0478   0.9071   0.3429
Er112     Er     0.0478   0.8429   0.4071
Er113     Er     0.1571   0.7978   0.1571
Er114     Er     0.0929   0.7978   0.0929
Er115     Er     0.8429   0.7022   0.3429
Er116     Er     0.9071   0.7022   0.4071
V117     V     0.0164   0.6421   0.2979
V118     V     0.9521   0.6421   0.2336
V119     V     0.1079   0.7336   0.2979
V120     V     0.1079   0.7979   0.2336
V121     V     0.9836   0.7021   0.3579
V122     V     0.0479   0.7664   0.3579
V123     V     0.0479   0.8579   0.2664
V124     V     0.9836   0.8579   0.2021
V125     V     0.8921   0.7021   0.2664
V126     V     0.8921   0.7664   0.2021
V127     V     0.9521   0.7336   0.1421
V128     V     0.0164   0.7979   0.1421
Er129     Er     0.9522   0.0929   0.6571
Er130     Er     0.9522   0.1571   0.5929
Er131     Er     0.1571   0.4522   0.0929
Er132     Er     0.0929   0.4522   0.1571
V133     V     0.1079   0.2979   0.7336
V134     V     0.1079   0.2336   0.7979
V135     V     0.0164   0.2979   0.6421
V136     V     0.9521   0.2336   0.6421
V137     V     0.9836   0.3579   0.7021
V138     V     0.0479   0.3579   0.7664
V139     V     0.8921   0.2664   0.7021
V140     V     0.8921   0.2021   0.7664
V141     V     0.0479   0.2664   0.8579
V142     V     0.9836   0.2021   0.8579
V143     V     0.9521   0.1421   0.7336
V144     V     0.0164   0.1421   0.7979
Er145     Er     0.1571   0.1571   0.7978
Er146     Er     0.0929   0.0929   0.7978
Er147     Er     0.9071   0.2022   0.9071
Er148     Er     0.8429   0.2022   0.8429
Er149     Er     0.9071   0.3429   0.0478
Er150     Er     0.8429   0.4071   0.0478
V151     V     0.6421   0.2979   0.0164
V152     V     0.6421   0.2336   0.9521
V153     V     0.7336   0.2979   0.1079
V154     V     0.7979   0.2336   0.1079
V155     V     0.7021   0.3579   0.9836
V156     V     0.7664   0.3579   0.0479
V157     V     0.8579   0.2021   0.9836
V158     V     0.8579   0.2664   0.0479
V159     V     0.7021   0.2664   0.8921
V160     V     0.7664   0.2021   0.8921
V161     V     0.7336   0.1421   0.9521
V162     V     0.7979   0.1421   0.0164
Er163     Er     0.9071   0.4071   0.7022
Er164     Er     0.8429   0.3429   0.7022
Er165     Er     0.7022   0.3429   0.8429
Er166     Er     0.7022   0.4071   0.9071
V167     V     0.8579   0.5479   0.7664
V168     V     0.8579   0.4836   0.7021
V169     V     0.7021   0.4836   0.8579
V170     V     0.7664   0.5479   0.8579
V171     V     0.7979   0.6079   0.7336
V172     V     0.7336   0.6079   0.7979
V173     V     0.6421   0.5164   0.7979
V174     V     0.6421   0.4521   0.7336
V175     V     0.7664   0.3921   0.7021
V176     V     0.7021   0.3921   0.7664
V177     V     0.7336   0.4521   0.6421
V178     V     0.7979   0.5164   0.6421
Er179     Er     0.8429   0.5478   0.9071
Er180     Er     0.9071   0.5478   0.8429
Er181     Er     0.0478   0.4071   0.8429
Er182     Er     0.0478   0.3429   0.9071
Er183     Er     0.9522   0.6571   0.0929
Er184     Er     0.9522   0.5929   0.1571
V185     V     0.0164   0.4521   0.1079
V186     V     0.9521   0.5164   0.1079
V187     V     0.0479   0.3921   0.9836
V188     V     0.9836   0.3921   0.0479
V189     V     0.1079   0.4521   0.0164
V190     V     0.1079   0.5164   0.9521
V191     V     0.8921   0.4836   0.0479
V192     V     0.8921   0.5479   0.9836
V193     V     0.0479   0.4836   0.8921
V194     V     0.9836   0.5479   0.8921
V195     V     0.0164   0.6079   0.9521
V196     V     0.9521   0.6079   0.0164
Er197     Er     0.0929   0.1571   0.4522
Er198     Er     0.1571   0.0929   0.4522
Er199     Er     0.9071   0.0478   0.3429
Er200     Er     0.8429   0.0478   0.4071
V201     V     0.0479   0.8921   0.4836
V202     V     0.9836   0.8921   0.5479
V203     V     0.8921   0.0479   0.4836
V204     V     0.8921   0.9836   0.5479
V205     V     0.9521   0.0164   0.6079
V206     V     0.0164   0.9521   0.6079
V207     V     0.1079   0.0164   0.4521
V208     V     0.1079   0.9521   0.5164
V209     V     0.0164   0.1079   0.4521
V210     V     0.9521   0.1079   0.5164
V211     V     0.9836   0.0479   0.3921
V212     V     0.0479   0.9836   0.3921
Er213     Er     0.2022   0.3429   0.3429
Er214     Er     0.2022   0.4071   0.4071
V215     V     0.2979   0.5164   0.1421
V216     V     0.2336   0.4521   0.1421
V217     V     0.3579   0.5479   0.2664
V218     V     0.3579   0.4836   0.2021
V219     V     0.2979   0.6079   0.2336
V220     V     0.2336   0.6079   0.2979
V221     V     0.2021   0.4836   0.3579
V222     V     0.2664   0.5479   0.3579
V223     V     0.1421   0.5164   0.2979
V224     V     0.1421   0.4521   0.2336
V225     V     0.2021   0.3921   0.2664
V226     V     0.2664   0.3921   0.2021
Er227     Er     0.3429   0.4071   0.5478
Er228     Er     0.4071   0.3429   0.5478
Er229     Er     0.4071   0.5478   0.3429
Er230     Er     0.3429   0.5478   0.4071
V231     V     0.4521   0.5164   0.6079
V232     V     0.5164   0.4521   0.6079
V233     V     0.3921   0.4836   0.5479
V234     V     0.3921   0.5479   0.4836
V235     V     0.5164   0.6079   0.4521
V236     V     0.4521   0.6079   0.5164
V237     V     0.4836   0.5479   0.3921
V238     V     0.5479   0.4836   0.3921
V239     V     0.4836   0.3921   0.5479
V240     V     0.5479   0.3921   0.4836
V241     V     0.6079   0.4521   0.5164
V242     V     0.6079   0.5164   0.4521
Er243     Er     0.5478   0.3429   0.4071
Er244     Er     0.5478   0.4071   0.3429
Er245     Er     0.4522   0.1571   0.0929
Er246     Er     0.4522   0.0929   0.1571
Er247     Er     0.3429   0.3429   0.2022
Er248     Er     0.4071   0.4071   0.2022
V249     V     0.3921   0.2021   0.2664
V250     V     0.3921   0.2664   0.2021
V251     V     0.5164   0.1421   0.2979
V252     V     0.4521   0.1421   0.2336
V253     V     0.4836   0.2021   0.3579
V254     V     0.5479   0.2664   0.3579
V255     V     0.6079   0.2979   0.2336
V256     V     0.6079   0.2336   0.2979
V257     V     0.5479   0.3579   0.2664
V258     V     0.4836   0.3579   0.2021
V259     V     0.5164   0.2979   0.1421
V260     V     0.4521   0.2336   0.1421
Er261     Er     0.1571   0.2978   0.6571
Er262     Er     0.0929   0.2978   0.5929
Er263     Er     0.4071   0.2022   0.4071
Er264     Er     0.3429   0.2022   0.3429
V265     V     0.1421   0.2979   0.5164
V266     V     0.1421   0.2336   0.4521
V267     V     0.3579   0.2664   0.5479
V268     V     0.3579   0.2021   0.4836
V269     V     0.2021   0.3579   0.4836
V270     V     0.2664   0.3579   0.5479
V271     V     0.2979   0.2336   0.6079
V272     V     0.2336   0.2979   0.6079
V273     V     0.2664   0.2021   0.3921
V274     V     0.2021   0.2664   0.3921
V275     V     0.2979   0.1421   0.5164
V276     V     0.2336   0.1421   0.4521
V277     V     0.4521   0.1079   0.0164
V278     V     0.5164   0.1079   0.9521
V279     V     0.3921   0.9836   0.0479
V280     V     0.3921   0.0479   0.9836
V281     V     0.4521   0.0164   0.1079
V282     V     0.5164   0.9521   0.1079
V283     V     0.4836   0.8921   0.0479
V284     V     0.5479   0.8921   0.9836
V285     V     0.4836   0.0479   0.8921
V286     V     0.5479   0.9836   0.8921
V287     V     0.6079   0.9521   0.0164
V288     V     0.6079   0.0164   0.9521
loop_
_geom_bond_atom_site_label_1
_geom_bond_atom_site_label_2
_geom_bond_distance
_geom_bond_site_symmetry_2
_ccdc_geom_bond_type
Er1     Er2    9.996   .     S
Er1     V73    10.001   .     S
Er1     V171    10.001   .     S
Er2     V178    10.001   .     S
Er2     V75    10.001   .     S
Er3     Er4    9.996   .     S
Er3     V241    10.001   .     S
Er3     V177    10.001   .     S
Er4     V232    10.001   .     S
Er4     V174    10.001   .     S
Er5     Er6    9.996   .     S
Er5     V74    10.001   .     S
Er5     V36    10.001   .     S
Er6     V80    10.001   .     S
Er6     V42    10.001   .     S
Er7     Er8    9.996   .     S
Er7     V172    10.001   .     S
Er7     V35    10.001   .     S
Er8     V38    10.001   .     S
Er8     V173    10.001   .     S
Er9     Er10    9.996   .     S
Er9     V242    10.001   .     S
Er9     V76    10.001   .     S
Er10     V235    10.001   .     S
Er10     V79    10.001   .     S
Er11     Er12    9.996   .     S
Er11     V231    10.001   .     S
Er11     V37    10.001   .     S
Er12     V236    10.001   .     S
Er12     V41    10.001   .     S
Er13     Er14    9.996   .     S
Er13     V255    10.001   .     S
Er13     V153    10.001   .     S
Er14     V151    10.001   .     S
Er14     V259    10.001   .     S
Er15     Er16    9.996   .     S
Er15     V288    10.001   .     S
Er15     V161    10.001   .     S
Er16     V152    10.001   .     S
Er16     V278    10.001   .     S
Er17     Er18    9.996   .     S
Er17     V256    10.001   .     S
Er17     V89    10.001   .     S
Er18     V84    10.001   .     S
Er18     V251    10.001   .     S
Er19     Er20    9.996   .     S
Er19     V219    10.001   .     S
Er19     V109    10.001   .     S
Er20     V101    10.001   .     S
Er20     V215    10.001   .     S
Er21     Er22    9.996   .     S
Er21     V271    10.001   .     S
Er21     V53    10.001   .     S
Er22     V51    10.001   .     S
Er22     V275    10.001   .     S
Er23     Er24    9.996   .     S
Er23     V287    10.001   .     S
Er23     V93    10.001   .     S
Er24     V83    10.001   .     S
Er24     V282    10.001   .     S
Er25     Er26    9.996   .     S
Er25     V206    10.001   .     S
Er25     V62    10.001   .     S
Er26     V52    10.001   .     S
Er26     V208    10.001   .     S
Er27     Er28    9.996   .     S
Er27     V34    10.001   .     S
Er27     V284    10.001   .     S
Er28     V32    10.001   .     S
Er28     V286    10.001   .     S
Er29     Er30    9.996   .     S
Er29     V31    10.001   .     S
Er29     V56    10.001   .     S
Er30     V40    10.001   .     S
Er30     V60    10.001   .     S
V31     V32    9.999   .     S
V31     V42    10.0   .     S
V32     V36    10.0   .     S
V33     V34    9.999   .     S
V33     V38    10.0   .     S
V33     Er43    10.001   .     S
V34     V35    10.0   .     S
V35     V36    9.999   .     S
V37     V38    9.999   .     S
V37     V39    10.0   .     S
V39     V40    9.999   .     S
V39     Er44    10.001   .     S
V40     V41    10.0   .     S
V41     V42    9.999   .     S
Er43     Er44    9.996   .     S
Er43     V105    10.001   .     S
Er44     V99    10.001   .     S
Er45     Er46    9.996   .     S
Er45     V103    10.001   .     S
Er45     V195    10.001   .     S
Er46     V102    10.001   .     S
Er46     V190    10.001   .     S
Er47     Er48    9.996   .     S
Er47     V119    10.001   .     S
Er47     V220    10.001   .     S
Er48     V117    10.001   .     S
Er48     V223    10.001   .     S
Er49     Er50    9.996   .     S
Er49     V57    10.001   .     S
Er49     V280    10.001   .     S
Er50     V55    10.001   .     S
Er50     V285    10.001   .     S
V51     V52    9.999   1_545     S
V51     V56    10.0   1_545     S
V52     V51    9.999   1_565     S
V52     V60    10.0   .     S
V53     V54    9.999   .     S
V53     V55    10.0   .     S
V54     V57    10.0   .     S
V54     Er145    10.001   .     S
V55     V56    9.999   1_545     S
V56     V51    10.0   1_565     S
V56     V55    9.999   1_565     S
V57     V58    9.999   1_545     S
V58     V57    9.999   1_565     S
V58     V61    10.0   1_565     S
V58     Er63    10.001   .     S
V59     V60    9.999   .     S
V59     V62    10.0   .     S
V59     Er64    10.001   .     S
V61     V62    9.999   1_545     S
V61     V58    10.0   1_545     S
V61     Er146    10.001   .     S
V62     V61    9.999   1_565     S
Er63     Er64    9.996   .     S
Er63     V107    10.001   .     S
Er64     V100    10.001   .     S
Er65     Er66    9.996   .     S
Er65     V72    10.001   .     S
Er65     V202    10.001   .     S
Er66     V70    10.001   .     S
Er66     V204    10.001   .     S
Er67     Er68    9.996   .     S
Er67     V69    10.001   .     S
Er67     V86    10.001   .     S
Er68     V77    10.001   .     S
Er68     V87    10.001   .     S
V69     V70    9.999   .     S
V69     V80    10.0   .     S
V70     V74    10.0   .     S
V71     V72    9.999   .     S
V71     V75    10.0   .     S
V71     Er116    10.001   .     S
V72     V73    10.0   .     S
V73     V74    9.999   .     S
V75     V76    9.999   .     S
V76     V78    10.0   .     S
V77     V78    9.999   .     S
V77     V79    10.0   .     S
V78     Er115    10.001   .     S
V79     V80    9.999   .     S
Er81     Er82    9.996   .     S
Er81     V162    10.001   .     S
Er81     V94    10.001   .     S
Er82     V90    10.001   .     S
Er82     V154    10.001   .     S
V83     V84    9.999   1_565     S
V83     V87    10.0   .     S
V84     V83    9.999   1_545     S
V84     V86    10.0   1_545     S
V85     V86    9.999   1_545     S
V85     V89    10.0   .     S
V85     Er200    10.001   .     S
V86     V84    10.0   1_565     S
V86     V85    9.999   1_565     S
V87     V88    9.999   .     S
V88     V93    10.0   .     S
V88     Er96    10.001   .     S
V89     V90    9.999   .     S
V90     V91    10.0   .     S
V91     V92    9.999   1_545     S
V91     Er199    10.001   .     S
V92     V91    9.999   1_565     S
V92     V94    10.0   1_565     S
V92     Er95    10.001   .     S
V93     V94    9.999   1_565     S
V94     V93    9.999   1_545     S
V94     V92    10.0   1_545     S
Er95     Er96    9.996   .     S
Er95     V124    10.001   .     S
Er96     V126    10.001   .     S
Er97     Er98    9.996   .     S
Er97     V108    10.001   .     S
Er97     V279    10.001   .     S
Er98     V106    10.001   .     S
Er98     V283    10.001   .     S
V99     V100    9.999   .     S
V99     V102    10.0   .     S
V100     V103    10.0   .     S
V101     V102    9.999   1_554     S
V101     V105    10.0   1_554     S
V102     V101    9.999   1_556     S
V103     V104    9.999   1_556     S
V104     V103    9.999   1_554     S
V104     V107    10.0   1_554     S
V104     Er114    10.001   .     S
V105     V101    10.0   1_556     S
V105     V106    9.999   1_556     S
V106     V105    9.999   1_554     S
V106     V109    10.0   .     S
V107     V104    10.0   1_556     S
V107     V108    9.999   1_556     S
V108     V107    9.999   1_554     S
V108     V110    10.0   .     S
V109     V110    9.999   .     S
V110     Er113    10.001   .     S
Er111     Er112    9.996   .     S
Er111     V123    10.001   .     S
Er111     V212    10.001   .     S
Er112     V122    10.001   .     S
Er112     V201    10.001   .     S
Er113     Er114    9.996   .     S
Er113     V120    10.001   .     S
Er114     V128    10.001   .     S
Er115     Er116    9.996   .     S
Er115     V125    10.001   .     S
Er116     V121    10.001   .     S
V117     V118    9.999   1_455     S
V117     V121    10.0   1_455     S
V118     V117    9.999   1_655     S
V118     V125    10.0   .     S
V118     Er184    10.001   .     S
V119     V120    9.999   .     S
V119     V122    10.0   .     S
V120     V123    10.0   .     S
V121     V117    10.0   1_655     S
V121     V122    9.999   1_655     S
V122     V121    9.999   1_455     S
V123     V124    9.999   1_455     S
V124     V123    9.999   1_655     S
V124     V128    10.0   1_655     S
V125     V126    9.999   .     S
V126     V127    10.0   .     S
V127     V128    9.999   1_655     S
V127     Er183    10.001   .     S
V128     V127    9.999   1_455     S
V128     V124    10.0   1_455     S
Er129     Er130    9.996   .     S
Er129     V205    10.001   .     S
Er129     V143    10.001   .     S
Er130     V136    10.001   .     S
Er130     V210    10.001   .     S
Er131     Er132    9.996   .     S
Er131     V189    10.001   .     S
Er131     V216    10.001   .     S
Er132     V185    10.001   .     S
Er132     V224    10.001   .     S
V133     V134    9.999   .     S
V133     V138    10.0   .     S
V133     Er261    10.001   .     S
V134     V141    10.0   .     S
V134     Er145    10.001   .     S
V135     V136    9.999   1_455     S
V135     V137    10.0   1_455     S
V135     Er262    10.001   .     S
V136     V135    9.999   1_655     S
V136     V139    10.0   .     S
V137     V135    10.0   1_655     S
V137     V138    9.999   1_655     S
V137     Er163    10.001   .     S
V138     V137    9.999   1_455     S
V138     Er181    10.001   .     S
V139     V140    9.999   .     S
V139     Er164    10.001   .     S
V140     V143    10.0   .     S
V140     Er148    10.001   .     S
V141     V142    9.999   1_455     S
V141     Er182    10.001   .     S
V142     V141    9.999   1_655     S
V142     V144    10.0   1_655     S
V142     Er147    10.001   .     S
V143     V144    9.999   1_655     S
V144     V143    9.999   1_455     S
V144     V142    10.0   1_455     S
V144     Er146    10.001   .     S
Er145     Er146    9.996   .     S
Er147     Er148    9.996   .     S
Er147     V157    10.001   .     S
Er148     V160    10.001   .     S
Er149     Er150    9.996   .     S
Er149     V188    10.001   .     S
Er149     V158    10.001   .     S
Er150     V156    10.001   .     S
Er150     V191    10.001   .     S
V151     V152    9.999   1_554     S
V151     V155    10.0   1_554     S
V152     V151    9.999   1_556     S
V152     V159    10.0   .     S
V153     V154    9.999   .     S
V153     V156    10.0   .     S
V154     V158    10.0   .     S
V155     V151    10.0   1_556     S
V155     V156    9.999   1_556     S
V155     Er166    10.001   .     S
V156     V155    9.999   1_554     S
V157     V158    9.999   1_556     S
V157     V162    10.0   1_556     S
V158     V157    9.999   1_554     S
V159     V160    9.999   .     S
V159     Er165    10.001   .     S
V160     V161    10.0   .     S
V161     V162    9.999   1_556     S
V162     V161    9.999   1_554     S
V162     V157    10.0   1_554     S
Er163     Er164    9.996   .     S
Er163     V168    10.001   .     S
Er164     V175    10.001   .     S
Er165     Er166    9.996   .     S
Er165     V176    10.001   .     S
Er166     V169    10.001   .     S
V167     V168    9.999   .     S
V167     V171    10.0   .     S
V167     Er180    10.001   .     S
V168     V178    10.0   .     S
V169     V170    9.999   .     S
V169     V173    10.0   .     S
V170     V172    10.0   .     S
V170     Er179    10.001   .     S
V171     V172    9.999   .     S
V173     V174    9.999   .     S
V174     V176    10.0   .     S
V175     V176    9.999   .     S
V175     V177    10.0   .     S
V177     V178    9.999   .     S
Er179     Er180    9.996   .     S
Er179     V192    10.001   .     S
Er180     V194    10.001   .     S
Er181     Er182    9.996   .     S
Er181     V193    10.001   .     S
Er182     V187    10.001   .     S
Er183     Er184    9.996   .     S
Er183     V196    10.001   .     S
Er184     V186    10.001   .     S
V185     V186    9.999   1_455     S
V185     V188    10.0   1_455     S
V186     V185    9.999   1_655     S
V186     V191    10.0   .     S
V187     V188    9.999   1_456     S
V187     V189    10.0   1_556     S
V188     V187    9.999   1_654     S
V188     V185    10.0   1_655     S
V189     V187    10.0   1_554     S
V189     V190    9.999   1_554     S
V190     V189    9.999   1_556     S
V190     V193    10.0   .     S
V191     V192    9.999   1_554     S
V192     V191    9.999   1_556     S
V192     V196    10.0   1_556     S
V193     V194    9.999   1_455     S
V194     V193    9.999   1_655     S
V194     V195    10.0   1_655     S
V195     V196    9.999   1_456     S
V195     V194    10.0   1_455     S
V196     V195    9.999   1_654     S
V196     V192    10.0   1_554     S
Er197     Er198    9.996   .     S
Er197     V266    10.001   .     S
Er197     V209    10.001   .     S
Er198     V207    10.001   .     S
Er198     V276    10.001   .     S
Er199     Er200    9.996   .     S
Er199     V211    10.001   .     S
Er200     V203    10.001   .     S
V201     V202    9.999   1_455     S
V201     V208    10.0   .     S
V202     V201    9.999   1_655     S
V202     V206    10.0   1_655     S
V203     V204    9.999   1_545     S
V203     V210    10.0   .     S
V204     V203    9.999   1_565     S
V204     V205    10.0   1_565     S
V205     V206    9.999   1_645     S
V205     V204    10.0   1_545     S
V206     V205    9.999   1_465     S
V206     V202    10.0   1_455     S
V207     V208    9.999   1_545     S
V207     V212    10.0   1_545     S
V208     V207    9.999   1_565     S
V209     V210    9.999   1_455     S
V209     V211    10.0   1_455     S
V210     V209    9.999   1_655     S
V211     V212    9.999   1_645     S
V211     V209    10.0   1_655     S
V212     V211    9.999   1_465     S
V212     V207    10.0   1_565     S
Er213     Er214    9.996   .     S
Er213     V274    10.001   .     S
Er213     V225    10.001   .     S
Er214     V221    10.001   .     S
Er214     V269    10.001   .     S
V215     V216    9.999   .     S
V215     V218    10.0   .     S
V216     V226    10.0   .     S
V217     V218    9.999   .     S
V217     V219    10.0   .     S
V217     Er229    10.001   .     S
V218     Er248    10.001   .     S
V219     V220    9.999   .     S
V220     V222    10.0   .     S
V221     V222    9.999   .     S
V221     V223    10.0   .     S
V222     Er230    10.001   .     S
V223     V224    9.999   .     S
V224     V225    10.0   .     S
V225     V226    9.999   .     S
V226     Er247    10.001   .     S
Er227     Er228    9.996   .     S
Er227     V233    10.001   .     S
Er227     V270    10.001   .     S
Er228     V239    10.001   .     S
Er228     V267    10.001   .     S
Er229     Er230    9.996   .     S
Er229     V237    10.001   .     S
Er230     V234    10.001   .     S
V231     V232    9.999   .     S
V231     V233    10.0   .     S
V232     V239    10.0   .     S
V233     V234    9.999   .     S
V234     V236    10.0   .     S
V235     V236    9.999   .     S
V235     V237    10.0   .     S
V237     V238    9.999   .     S
V238     V242    10.0   .     S
V238     Er244    10.001   .     S
V239     V240    9.999   .     S
V240     V241    10.0   .     S
V240     Er243    10.001   .     S
V241     V242    9.999   .     S
Er243     Er244    9.996   .     S
Er243     V254    10.001   .     S
Er244     V257    10.001   .     S
Er245     Er246    9.996   .     S
Er245     V260    10.001   .     S
Er245     V277    10.001   .     S
Er246     V252    10.001   .     S
Er246     V281    10.001   .     S
Er247     Er248    9.996   .     S
Er247     V250    10.001   .     S
Er248     V258    10.001   .     S
V249     V250    9.999   .     S
V249     V252    10.0   .     S
V249     Er264    10.001   .     S
V250     V260    10.0   .     S
V251     V252    9.999   .     S
V251     V253    10.0   .     S
V253     V254    9.999   .     S
V253     Er263    10.001   .     S
V254     V256    10.0   .     S
V255     V256    9.999   .     S
V255     V257    10.0   .     S
V257     V258    9.999   .     S
V258     V259    10.0   .     S
V259     V260    9.999   .     S
Er261     Er262    9.996   .     S
Er261     V272    10.001   .     S
Er262     V265    10.001   .     S
Er263     Er264    9.996   .     S
Er263     V268    10.001   .     S
Er264     V273    10.001   .     S
V265     V266    9.999   .     S
V265     V269    10.0   .     S
V266     V274    10.0   .     S
V267     V268    9.999   .     S
V267     V271    10.0   .     S
V268     V275    10.0   .     S
V269     V270    9.999   .     S
V270     V272    10.0   .     S
V271     V272    9.999   .     S
V273     V274    9.999   .     S
V273     V276    10.0   .     S
V275     V276    9.999   .     S
V277     V278    9.999   1_554     S
V277     V280    10.0   1_554     S
V278     V277    9.999   1_556     S
V278     V285    10.0   .     S
V279     V280    9.999   1_564     S
V279     V281    10.0   1_565     S
V280     V279    9.999   1_546     S
V280     V277    10.0   1_556     S
V281     V279    10.0   1_545     S
V281     V282    9.999   1_545     S
V282     V281    9.999   1_565     S
V282     V283    10.0   .     S
V283     V284    9.999   1_554     S
V284     V283    9.999   1_556     S
V284     V287    10.0   1_556     S
V285     V286    9.999   1_545     S
V286     V285    9.999   1_565     S
V286     V288    10.0   1_565     S
V287     V288    9.999   1_564     S
V287     V284    10.0   1_554     S
V288     V287    9.999   1_546     S
V288     V286    10.0   1_545     S
