data_siy
_audit_creation_date              2020-02-04
_audit_creation_method            'Pymatgen'
_symmetry_space_group_name_H-M    'P1'
_symmetry_Int_Tables_number       1
loop_
_symmetry_equiv_pos_as_xyz
  x,y,z
_cell_length_a                    58.7853
_cell_length_b                    58.7853
_cell_length_c                    58.7853
_cell_angle_alpha                 90.0
_cell_angle_beta                 90.0
_cell_angle_gamma                 90.0
loop_
_atom_site_label
_atom_site_type_symbol
_atom_site_fract_x
_atom_site_fract_y
_atom_site_fract_z
V1     V     0.4014   0.5986   0.0851
V2     V     0.5986   0.5986   0.0851
V3     V     0.5986   0.4014   0.0851
V4     V     0.4014   0.4014   0.0851
Er5     Er     0.3036   0.5   0.1833
Er6     Er     0.5   0.3036   0.1833
Er7     Er     0.6964   0.5   0.1833
Er8     Er     0.5   0.6964   0.1833
V9     V     0.4014   0.5986   0.9149
V10     V     0.4014   0.4014   0.9149
V11     V     0.5986   0.4014   0.9149
V12     V     0.5986   0.5986   0.9149
Er13     Er     0.5   0.6964   0.8167
Er14     Er     0.6964   0.5   0.8167
Er15     Er     0.5   0.3036   0.8167
Er16     Er     0.3036   0.5   0.8167
V17     V     0.5986   0.0851   0.5986
V18     V     0.4014   0.0851   0.5986
V19     V     0.4014   0.0851   0.4014
V20     V     0.5986   0.0851   0.4014
Er21     Er     0.6964   0.1833   0.5
Er22     Er     0.5   0.1833   0.3036
Er23     Er     0.3036   0.1833   0.5
Er24     Er     0.5   0.1833   0.6964
V25     V     0.5986   0.9149   0.4014
V26     V     0.4014   0.9149   0.4014
V27     V     0.4014   0.9149   0.5986
V28     V     0.5986   0.9149   0.5986
Er29     Er     0.6964   0.8167   0.5
Er30     Er     0.5   0.8167   0.6964
Er31     Er     0.3036   0.8167   0.5
Er32     Er     0.5   0.8167   0.3036
V33     V     0.0851   0.4014   0.5986
V34     V     0.0851   0.5986   0.5986
V35     V     0.0851   0.5986   0.4014
V36     V     0.0851   0.4014   0.4014
Er37     Er     0.1833   0.3036   0.5
Er38     Er     0.1833   0.5   0.3036
Er39     Er     0.1833   0.6964   0.5
Er40     Er     0.1833   0.5   0.6964
V41     V     0.9149   0.5986   0.4014
V42     V     0.9149   0.5986   0.5986
V43     V     0.9149   0.4014   0.5986
V44     V     0.9149   0.4014   0.4014
Er45     Er     0.8167   0.3036   0.5
Er46     Er     0.8167   0.5   0.3036
Er47     Er     0.8167   0.5   0.6964
Er48     Er     0.8167   0.6964   0.5
loop_
_geom_bond_atom_site_label_1
_geom_bond_atom_site_label_2
_geom_bond_distance
_geom_bond_site_symmetry_2
_ccdc_geom_bond_type
V1     Er5    9.999   .     S
V1     Er8    9.999   .     S
V1     V9    10.001   1_554     S
V2     Er7    9.999   .     S
V2     Er8    9.999   .     S
V2     V12    10.001   1_554     S
V3     Er6    9.999   .     S
V3     Er7    9.999   .     S
V3     V11    10.001   1_554     S
V4     Er5    9.999   .     S
V4     Er6    9.999   .     S
V4     V10    10.001   1_554     S
Er5     Er38    10.004   .     S
Er6     Er22    10.004   .     S
Er7     Er46    10.004   .     S
Er8     Er32    10.004   .     S
V9     Er16    9.999   .     S
V9     Er13    9.999   .     S
V9     V1    10.001   1_556     S
V10     Er15    9.999   .     S
V10     Er16    9.999   .     S
V10     V4    10.001   1_556     S
V11     Er15    9.999   .     S
V11     Er14    9.999   .     S
V11     V3    10.001   1_556     S
V12     Er13    9.999   .     S
V12     Er14    9.999   .     S
V12     V2    10.001   1_556     S
Er13     Er30    10.004   .     S
Er14     Er47    10.004   .     S
Er15     Er24    10.004   .     S
Er16     Er40    10.004   .     S
V17     Er24    9.999   .     S
V17     Er21    9.999   .     S
V17     V28    10.001   1_545     S
V18     Er23    9.999   .     S
V18     Er24    9.999   .     S
V18     V27    10.001   1_545     S
V19     Er22    9.999   .     S
V19     Er23    9.999   .     S
V19     V26    10.001   1_545     S
V20     Er22    9.999   .     S
V20     Er21    9.999   .     S
V20     V25    10.001   1_545     S
Er21     Er45    10.004   .     S
Er23     Er37    10.004   .     S
V25     Er32    9.999   .     S
V25     Er29    9.999   .     S
V25     V20    10.001   1_565     S
V26     Er31    9.999   .     S
V26     Er32    9.999   .     S
V26     V19    10.001   1_565     S
V27     Er31    9.999   .     S
V27     Er30    9.999   .     S
V27     V18    10.001   1_565     S
V28     Er29    9.999   .     S
V28     Er30    9.999   .     S
V28     V17    10.001   1_565     S
Er29     Er48    10.004   .     S
Er31     Er39    10.004   .     S
V33     Er37    9.999   .     S
V33     Er40    9.999   .     S
V33     V43    10.001   1_455     S
V34     Er39    9.999   .     S
V34     Er40    9.999   .     S
V34     V42    10.001   1_455     S
V35     Er38    9.999   .     S
V35     Er39    9.999   .     S
V35     V41    10.001   1_455     S
V36     Er37    9.999   .     S
V36     Er38    9.999   .     S
V36     V44    10.001   1_455     S
V41     Er46    9.999   .     S
V41     Er48    9.999   .     S
V41     V35    10.001   1_655     S
V42     Er47    9.999   .     S
V42     Er48    9.999   .     S
V42     V34    10.001   1_655     S
V43     Er45    9.999   .     S
V43     Er47    9.999   .     S
V43     V33    10.001   1_655     S
V44     Er46    9.999   .     S
V44     Er45    9.999   .     S
V44     V36    10.001   1_655     S
