data_sjt
_audit_creation_date              2020-02-04
_audit_creation_method            'Pymatgen'
_symmetry_space_group_name_H-M    'P1'
_symmetry_Int_Tables_number       1
loop_
_symmetry_equiv_pos_as_xyz
  x,y,z
_cell_length_a                    28.4063
_cell_length_b                    28.4063
_cell_length_c                    34.8
_cell_angle_alpha                 90.0
_cell_angle_beta                 90.0
_cell_angle_gamma                 120.0
loop_
_atom_site_label
_atom_site_type_symbol
_atom_site_fract_x
_atom_site_fract_y
_atom_site_fract_z
V1     V     0.6645   0.8215   0.3337
V2     V     0.8215   0.6645   0.333
V3     V     0.8215   0.157   0.0004
V4     V     0.157   0.8215   0.6663
V5     V     0.843   0.6645   0.667
V6     V     0.3355   0.1785   0.3337
V7     V     0.157   0.3355   0.667
V8     V     0.843   0.1785   0.6663
V9     V     0.3355   0.157   0.9996
V10     V     0.1785   0.843   0.0004
V11     V     0.1785   0.3355   0.333
Ti12     Ti     0.5   0.5   0.1578
Ti13     Ti     0.5   0.0   0.1755
Ti14     Ti     0.0   0.5   0.4911
Ti15     Ti     0.5   0.0   0.8245
Ti16     Ti     0.0   0.5   0.8422
Er17     Er     0.8366   0.1634   0.3333
Er18     Er     0.1634   0.8366   0.3333
Ce19     Ce     0.0   0.0   0.1667
Er20     Er     0.8366   0.6732   0.0
Er21     Er     0.1634   0.3268   0.0
Ce22     Ce     0.0   0.0   0.8333
Er23     Er     0.6732   0.8366   0.6667
Er24     Er     0.3268   0.1634   0.6667
Ce25     Ce     0.0   0.0   0.5
Ti26     Ti     0.5   0.5   0.5089
V27     V     0.6645   0.843   0.9996
loop_
_geom_bond_atom_site_label_1
_geom_bond_atom_site_label_2
_geom_bond_distance
_geom_bond_site_symmetry_2
_ccdc_geom_bond_type
V1     Ti26    9.987   .     S
V1     Ti12    10.002   .     S
V1     Ti13    10.076   1_565     S
V1     Ce25    10.085   1_665     S
V2     Ti26    10.002   .     S
V2     Ti12    9.987   .     S
V2     Ti14    10.076   1_655     S
V2     Ce19    10.085   1_665     S
V3     Ti13    9.987   .     S
V3     Ti15    10.002   1_554     S
V3     Ti16    10.076   1_654     S
V3     Ce19    10.085   1_655     S
V4     Ti14    9.987   .     S
V4     Ti16    10.002   .     S
V4     Ti15    10.076   1_565     S
V4     Ce25    10.085   1_565     S
V5     Ti14    10.002   1_655     S
V5     Ti16    9.987   1_655     S
V5     Ce22    10.085   1_665     S
V5     Ti26    10.076   .     S
V6     Ti26    9.987   .     S
V6     Ti12    10.002   .     S
V6     Ti13    10.076   .     S
V6     Ce25    10.085   .     S
V7     Ti16    9.987   .     S
V7     Ti14    10.002   .     S
V7     Ce22    10.085   .     S
V7     Ti26    10.076   .     S
V8     Ti16    10.002   1_655     S
V8     Ti14    9.987   1_655     S
V8     Ti15    10.076   .     S
V8     Ce25    10.085   1_655     S
V9     Ti15    9.987   .     S
V9     Ti13    10.002   1_556     S
V9     Ti12    10.076   1_556     S
V9     Ce22    10.085   .     S
V10     Ti15    10.002   1_564     S
V10     Ti13    9.987   1_565     S
V10     Ti16    10.076   1_554     S
V10     Ce19    10.085   1_565     S
V11     Ti26    10.002   .     S
V11     Ti12    9.987   .     S
V11     Ti14    10.076   .     S
V11     Ce19    10.085   .     S
Ti12     V9    10.076   1_554     S
Ti12     V27    10.076   1_554     S
Ti12     Er21    9.937   .     S
Ti12     Er20    9.937   .     S
Ti13     V27    10.002   1_544     S
Ti13     V9    10.002   1_554     S
Ti13     V10    9.987   1_545     S
Ti13     V1    10.076   1_545     S
Ti13     Er18    9.937   1_545     S
Ti13     Er17    9.937   .     S
Ti14     V5    10.002   1_455     S
Ti14     V8    9.987   1_455     S
Ti14     V2    10.076   1_455     S
Ti14     Er18    9.937   .     S
Ti14     Er17    9.937   1_455     S
Ti15     V10    10.002   1_546     S
Ti15     V3    10.002   1_556     S
Ti15     V27    9.987   1_545     S
Ti15     V4    10.076   1_545     S
Ti15     Er23    9.937   1_545     S
Ti15     Er24    9.937   .     S
Ti16     V5    9.987   1_455     S
Ti16     V8    10.002   1_455     S
Ti16     V10    10.076   1_556     S
Ti16     V3    10.076   1_456     S
Ti16     Er20    9.937   1_456     S
Ti16     Er21    9.937   1_556     S
Er17     Ce25    9.913   1_655     S
Er17     Ce19    9.913   1_655     S
Er17     Ti14    9.937   1_655     S
Er18     Ce25    9.913   1_565     S
Er18     Ce19    9.913   1_565     S
Er18     Ti13    9.937   1_565     S
Ce19     V2    10.085   1_445     S
Ce19     V10    10.085   1_545     S
Ce19     V3    10.085   1_455     S
Ce19     Er17    9.913   1_455     S
Ce19     Er18    9.913   1_545     S
Ce19     Er20    9.913   1_445     S
Ce19     Er21    9.913   .     S
Er20     Ce19    9.913   1_665     S
Er20     Ce22    9.913   1_664     S
Er20     Ti16    9.937   1_654     S
Er21     Ce22    9.913   1_554     S
Er21     Ti16    9.937   1_554     S
Ce22     V27    10.085   1_445     S
Ce22     V5    10.085   1_445     S
Ce22     Er20    9.913   1_446     S
Ce22     Er21    9.913   1_556     S
Ce22     Er23    9.913   1_445     S
Ce22     Er24    9.913   .     S
Er23     Ce22    9.913   1_665     S
Er23     Ce25    9.913   1_665     S
Er23     Ti15    9.937   1_565     S
Er23     Ti26    9.937   .     S
Er24     Ce25    9.913   .     S
Er24     Ti26    9.937   .     S
Ce25     V1    10.085   1_445     S
Ce25     V8    10.085   1_455     S
Ce25     V4    10.085   1_545     S
Ce25     Er17    9.913   1_455     S
Ce25     Er18    9.913   1_545     S
Ce25     Er23    9.913   1_445     S
V27     Ti13    10.002   1_566     S
V27     Ti15    9.987   1_565     S
V27     Ti12    10.076   1_556     S
V27     Ce22    10.085   1_665     S
