data_skd
_audit_creation_date              2020-02-04
_audit_creation_method            'Pymatgen'
_symmetry_space_group_name_H-M    'P1'
_symmetry_Int_Tables_number       1
loop_
_symmetry_equiv_pos_as_xyz
  x,y,z
_cell_length_a                    33.6579
_cell_length_b                    19.9998
_cell_length_c                    31.9311
_cell_angle_alpha                 90.0
_cell_angle_beta                 90.0
_cell_angle_gamma                 90.0
loop_
_atom_site_label
_atom_site_type_symbol
_atom_site_fract_x
_atom_site_fract_y
_atom_site_fract_z
V1     V     0.8514   0.125   0.6356
V2     V     0.8514   0.625   0.6356
V3     V     0.1485   0.125   0.6356
V4     V     0.1485   0.625   0.6356
V5     V     0.8514   0.375   0.3644
V6     V     0.8514   0.875   0.3644
V7     V     0.1485   0.375   0.3644
V8     V     0.1485   0.875   0.3644
V9     V     0.6486   0.125   0.8644
V10     V     0.6486   0.625   0.8644
V11     V     0.3514   0.125   0.8644
V12     V     0.3514   0.625   0.8644
V13     V     0.6486   0.375   0.1356
V14     V     0.6486   0.875   0.1356
V15     V     0.3514   0.375   0.1356
V16     V     0.3514   0.875   0.1356
loop_
_geom_bond_atom_site_label_1
_geom_bond_atom_site_label_2
_geom_bond_distance
_geom_bond_site_symmetry_2
_ccdc_geom_bond_type
V1     V3    10.0   1_655     S
V1     V2    10.0   .     S
V1     V2    10.0   1_545     S
V1     V5    10.0   .     S
V1     V6    10.0   1_545     S
V1     V9    10.0   .     S
V2     V4    10.0   1_655     S
V2     V1    10.0   1_565     S
V2     V6    10.0   .     S
V2     V5    10.0   .     S
V2     V10    10.0   .     S
V3     V1    10.0   1_455     S
V3     V4    10.0   .     S
V3     V4    10.0   1_545     S
V3     V8    10.0   1_545     S
V3     V7    10.0   .     S
V3     V11    10.0   .     S
V4     V2    10.0   1_455     S
V4     V3    10.0   1_565     S
V4     V7    10.0   .     S
V4     V8    10.0   .     S
V4     V12    10.0   .     S
V5     V7    10.0   1_655     S
V5     V6    10.0   1_545     S
V5     V6    10.0   .     S
V5     V13    10.0   .     S
V6     V1    10.0   1_565     S
V6     V8    10.0   1_655     S
V6     V5    10.0   1_565     S
V6     V14    10.0   .     S
V7     V5    10.0   1_455     S
V7     V8    10.0   1_545     S
V7     V8    10.0   .     S
V7     V15    10.0   .     S
V8     V3    10.0   1_565     S
V8     V6    10.0   1_455     S
V8     V7    10.0   1_565     S
V8     V16    10.0   .     S
V9     V11    10.0   .     S
V9     V10    10.0   .     S
V9     V10    10.0   1_545     S
V9     V13    10.0   1_556     S
V9     V14    10.0   1_546     S
V10     V12    10.0   .     S
V10     V9    10.0   1_565     S
V10     V14    10.0   1_556     S
V10     V13    10.0   1_556     S
V11     V12    10.0   .     S
V11     V12    10.0   1_545     S
V11     V16    10.0   1_546     S
V11     V15    10.0   1_556     S
V12     V11    10.0   1_565     S
V12     V15    10.0   1_556     S
V12     V16    10.0   1_556     S
V13     V9    10.0   1_554     S
V13     V10    10.0   1_554     S
V13     V15    10.0   .     S
V13     V14    10.0   1_545     S
V13     V14    10.0   .     S
V14     V10    10.0   1_554     S
V14     V9    10.0   1_564     S
V14     V16    10.0   .     S
V14     V13    10.0   1_565     S
V15     V12    10.0   1_554     S
V15     V11    10.0   1_554     S
V15     V16    10.0   1_545     S
V15     V16    10.0   .     S
V16     V11    10.0   1_564     S
V16     V12    10.0   1_554     S
V16     V15    10.0   1_565     S
