data_skg
_audit_creation_date              2020-02-04
_audit_creation_method            'Pymatgen'
_symmetry_space_group_name_H-M    'P1'
_symmetry_Int_Tables_number       1
loop_
_symmetry_equiv_pos_as_xyz
  x,y,z
_cell_length_a                    38.6092
_cell_length_b                    32.7209
_cell_length_c                    20.0
_cell_angle_alpha                 90.0
_cell_angle_beta                 90.0
_cell_angle_gamma                 90.0
loop_
_atom_site_label
_atom_site_type_symbol
_atom_site_fract_x
_atom_site_fract_y
_atom_site_fract_z
V1     V     0.6921   0.3867   0.375
V2     V     0.6921   0.3867   0.875
V3     V     0.8079   0.6133   0.125
V4     V     0.8079   0.6133   0.625
V5     V     0.0579   0.6367   0.25
V6     V     0.0579   0.6367   0.75
V7     V     0.9421   0.8633   0.0
V8     V     0.9421   0.8633   0.5
V9     V     0.3079   0.6133   0.375
V10     V     0.3079   0.6133   0.875
V11     V     0.1921   0.3867   0.125
V12     V     0.1921   0.3867   0.625
V13     V     0.6921   0.8867   0.125
V14     V     0.6921   0.8867   0.625
V15     V     0.8079   0.1133   0.375
V16     V     0.8079   0.1133   0.875
V17     V     0.4421   0.8633   0.25
V18     V     0.4421   0.8633   0.75
V19     V     0.5579   0.6367   0.0
V20     V     0.5579   0.6367   0.5
V21     V     0.4421   0.3633   0.0
V22     V     0.4421   0.3633   0.5
V23     V     0.5579   0.1367   0.25
V24     V     0.5579   0.1367   0.75
V25     V     0.9421   0.3633   0.25
V26     V     0.9421   0.3633   0.75
V27     V     0.0579   0.1367   0.0
V28     V     0.0579   0.1367   0.5
V29     V     0.1921   0.8867   0.375
V30     V     0.1921   0.8867   0.875
V31     V     0.3079   0.1133   0.125
V32     V     0.3079   0.1133   0.625
loop_
_geom_bond_atom_site_label_1
_geom_bond_atom_site_label_2
_geom_bond_distance
_geom_bond_site_symmetry_2
_ccdc_geom_bond_type
V1     V20    10.0   .     S
V1     V3    10.0   .     S
V1     V4    10.0   .     S
V1     V2    10.0   1_554     S
V1     V2    10.0   .     S
V1     V25    10.0   .     S
V1     V22    10.0   .     S
V1     V23    10.0   .     S
V1     V15    10.0   .     S
V2     V19    10.0   1_556     S
V2     V4    10.0   .     S
V2     V3    10.0   1_556     S
V2     V1    10.0   1_556     S
V2     V26    10.0   .     S
V2     V21    10.0   1_556     S
V2     V24    10.0   .     S
V2     V16    10.0   .     S
V3     V19    10.0   .     S
V3     V2    10.0   1_554     S
V3     V4    10.0   .     S
V3     V4    10.0   1_554     S
V3     V25    10.0   .     S
V3     V5    10.0   1_655     S
V3     V7    10.0   .     S
V3     V13    10.0   .     S
V4     V20    10.0   .     S
V4     V3    10.0   1_556     S
V4     V26    10.0   .     S
V4     V6    10.0   1_655     S
V4     V8    10.0   .     S
V4     V14    10.0   .     S
V5     V25    10.0   1_455     S
V5     V29    10.0   .     S
V5     V7    10.0   1_455     S
V5     V8    10.0   1_455     S
V5     V6    10.0   1_554     S
V5     V6    10.0   .     S
V5     V3    10.0   1_455     S
V5     V9    10.0   .     S
V5     V11    10.0   .     S
V6     V26    10.0   1_455     S
V6     V30    10.0   .     S
V6     V8    10.0   1_455     S
V6     V7    10.0   1_456     S
V6     V5    10.0   1_556     S
V6     V4    10.0   1_455     S
V6     V10    10.0   .     S
V6     V12    10.0   .     S
V7     V30    10.0   1_654     S
V7     V5    10.0   1_655     S
V7     V6    10.0   1_654     S
V7     V8    10.0   .     S
V7     V8    10.0   1_554     S
V7     V13    10.0   .     S
V7     V16    10.0   1_564     S
V7     V27    10.0   1_665     S
V8     V29    10.0   1_655     S
V8     V6    10.0   1_655     S
V8     V5    10.0   1_655     S
V8     V7    10.0   1_556     S
V8     V14    10.0   .     S
V8     V15    10.0   1_565     S
V8     V28    10.0   1_665     S
V9     V22    10.0   .     S
V9     V20    10.0   .     S
V9     V17    10.0   .     S
V9     V11    10.0   .     S
V9     V12    10.0   .     S
V9     V10    10.0   1_554     S
V9     V10    10.0   .     S
V9     V29    10.0   .     S
V10     V21    10.0   1_556     S
V10     V19    10.0   1_556     S
V10     V18    10.0   .     S
V10     V12    10.0   .     S
V10     V11    10.0   1_556     S
V10     V9    10.0   1_556     S
V10     V30    10.0   .     S
V11     V21    10.0   .     S
V11     V10    10.0   1_554     S
V11     V12    10.0   .     S
V11     V12    10.0   1_554     S
V11     V25    10.0   1_455     S
V11     V27    10.0   .     S
V11     V31    10.0   .     S
V12     V22    10.0   .     S
V12     V11    10.0   1_556     S
V12     V26    10.0   1_455     S
V12     V28    10.0   .     S
V12     V32    10.0   .     S
V13     V23    10.0   1_565     S
V13     V16    10.0   1_564     S
V13     V15    10.0   1_565     S
V13     V14    10.0   .     S
V13     V14    10.0   1_554     S
V13     V17    10.0   .     S
V13     V19    10.0   .     S
V14     V24    10.0   1_565     S
V14     V15    10.0   1_565     S
V14     V16    10.0   1_565     S
V14     V13    10.0   1_556     S
V14     V18    10.0   .     S
V14     V20    10.0   .     S
V15     V23    10.0   .     S
V15     V14    10.0   1_545     S
V15     V13    10.0   1_545     S
V15     V16    10.0   1_554     S
V15     V16    10.0   .     S
V15     V8    10.0   1_545     S
V15     V28    10.0   1_655     S
V15     V25    10.0   .     S
V16     V24    10.0   .     S
V16     V13    10.0   1_546     S
V16     V14    10.0   1_545     S
V16     V15    10.0   1_556     S
V16     V7    10.0   1_546     S
V16     V27    10.0   1_656     S
V16     V26    10.0   .     S
V17     V23    10.0   1_565     S
V17     V20    10.0   .     S
V17     V19    10.0   .     S
V17     V18    10.0   1_554     S
V17     V18    10.0   .     S
V17     V29    10.0   .     S
V17     V31    10.0   1_565     S
V18     V24    10.0   1_565     S
V18     V19    10.0   1_556     S
V18     V20    10.0   .     S
V18     V17    10.0   1_556     S
V18     V30    10.0   .     S
V18     V32    10.0   1_565     S
V19     V2    10.0   1_554     S
V19     V21    10.0   .     S
V19     V10    10.0   1_554     S
V19     V18    10.0   1_554     S
V19     V20    10.0   .     S
V19     V20    10.0   1_554     S
V20     V22    10.0   .     S
V20     V19    10.0   1_556     S
V21     V10    10.0   1_554     S
V21     V2    10.0   1_554     S
V21     V23    10.0   .     S
V21     V24    10.0   1_554     S
V21     V22    10.0   .     S
V21     V22    10.0   1_554     S
V21     V31    10.0   .     S
V22     V24    10.0   .     S
V22     V23    10.0   .     S
V22     V21    10.0   1_556     S
V22     V32    10.0   .     S
V23     V13    10.0   1_545     S
V23     V17    10.0   1_545     S
V23     V24    10.0   1_554     S
V23     V24    10.0   .     S
V23     V31    10.0   .     S
V24     V14    10.0   1_545     S
V24     V18    10.0   1_545     S
V24     V21    10.0   1_556     S
V24     V23    10.0   1_556     S
V24     V32    10.0   .     S
V25     V5    10.0   1_655     S
V25     V11    10.0   1_655     S
V25     V27    10.0   1_655     S
V25     V28    10.0   1_655     S
V25     V26    10.0   1_554     S
V25     V26    10.0   .     S
V26     V6    10.0   1_655     S
V26     V12    10.0   1_655     S
V26     V28    10.0   1_655     S
V26     V27    10.0   1_656     S
V26     V25    10.0   1_556     S
V27     V7    10.0   1_445     S
V27     V16    10.0   1_454     S
V27     V25    10.0   1_455     S
V27     V26    10.0   1_454     S
V27     V28    10.0   .     S
V27     V28    10.0   1_554     S
V27     V31    10.0   .     S
V27     V30    10.0   1_544     S
V28     V8    10.0   1_445     S
V28     V15    10.0   1_455     S
V28     V26    10.0   1_455     S
V28     V25    10.0   1_455     S
V28     V27    10.0   1_556     S
V28     V32    10.0   .     S
V28     V29    10.0   1_545     S
V29     V8    10.0   1_455     S
V29     V28    10.0   1_565     S
V29     V32    10.0   1_565     S
V29     V31    10.0   1_565     S
V29     V30    10.0   1_554     S
V29     V30    10.0   .     S
V30     V7    10.0   1_456     S
V30     V27    10.0   1_566     S
V30     V31    10.0   1_566     S
V30     V32    10.0   1_565     S
V30     V29    10.0   1_556     S
V31     V17    10.0   1_545     S
V31     V30    10.0   1_544     S
V31     V29    10.0   1_545     S
V31     V32    10.0   .     S
V31     V32    10.0   1_554     S
V32     V18    10.0   1_545     S
V32     V29    10.0   1_545     S
V32     V30    10.0   1_545     S
V32     V31    10.0   1_556     S
