data_skl
_audit_creation_date              2020-02-04
_audit_creation_method            'Pymatgen'
_symmetry_space_group_name_H-M    'P1'
_symmetry_Int_Tables_number       1
loop_
_symmetry_equiv_pos_as_xyz
  x,y,z
_cell_length_a                    20.0
_cell_length_b                    20.0
_cell_length_c                    35.9466
_cell_angle_alpha                 90.0
_cell_angle_beta                 90.0
_cell_angle_gamma                 90.0
loop_
_atom_site_label
_atom_site_type_symbol
_atom_site_fract_x
_atom_site_fract_y
_atom_site_fract_z
V1     V     0.375   0.0008   0.4805
V2     V     0.375   0.5008   0.4805
V3     V     0.875   0.0008   0.4805
V4     V     0.875   0.5008   0.4805
V5     V     0.375   0.2492   0.4805
V6     V     0.375   0.7492   0.4805
V7     V     0.875   0.2492   0.4805
V8     V     0.875   0.7492   0.4805
V9     V     0.2508   0.125   0.0195
V10     V     0.2508   0.625   0.0195
V11     V     0.7508   0.125   0.0195
V12     V     0.7508   0.625   0.0195
V13     V     0.4992   0.125   0.0195
V14     V     0.4992   0.625   0.0195
V15     V     0.9992   0.125   0.0195
V16     V     0.9992   0.625   0.0195
Er17     Er     0.125   0.375   0.25
Er18     Er     0.125   0.875   0.25
Er19     Er     0.625   0.375   0.25
Er20     Er     0.625   0.875   0.25
V21     V     0.0008   0.375   0.9805
V22     V     0.0008   0.875   0.9805
V23     V     0.5008   0.375   0.9805
V24     V     0.5008   0.875   0.9805
V25     V     0.2492   0.375   0.9805
V26     V     0.2492   0.875   0.9805
V27     V     0.7492   0.375   0.9805
V28     V     0.7492   0.875   0.9805
V29     V     0.125   0.2508   0.5195
V30     V     0.125   0.7508   0.5195
V31     V     0.625   0.2508   0.5195
V32     V     0.625   0.7508   0.5195
V33     V     0.125   0.4992   0.5195
V34     V     0.125   0.9992   0.5195
V35     V     0.625   0.4992   0.5195
V36     V     0.625   0.9992   0.5195
Er37     Er     0.375   0.125   0.75
Er38     Er     0.375   0.625   0.75
Er39     Er     0.875   0.125   0.75
Er40     Er     0.875   0.625   0.75
loop_
_geom_bond_atom_site_label_1
_geom_bond_atom_site_label_2
_geom_bond_distance
_geom_bond_site_symmetry_2
_ccdc_geom_bond_type
V1     Er20    10.0   1_545     S
V1     Er18    10.0   1_545     S
V1     Er37    10.0   .     S
V2     Er19    10.0   .     S
V2     Er17    10.0   .     S
V2     Er38    10.0   .     S
V3     Er18    10.0   1_645     S
V3     Er20    10.0   1_545     S
V3     Er39    10.0   .     S
V4     Er17    10.0   1_655     S
V4     Er19    10.0   .     S
V4     Er40    10.0   .     S
V5     Er19    10.0   .     S
V5     Er17    10.0   .     S
V5     Er37    10.0   .     S
V6     Er20    10.0   .     S
V6     Er18    10.0   .     S
V6     Er38    10.0   .     S
V7     Er17    10.0   1_655     S
V7     Er19    10.0   .     S
V7     Er39    10.0   .     S
V8     Er18    10.0   1_655     S
V8     Er20    10.0   .     S
V8     Er40    10.0   .     S
V9     Er17    10.0   .     S
V9     Er18    10.0   1_545     S
V9     Er37    10.0   1_554     S
V10     Er18    10.0   .     S
V10     Er17    10.0   .     S
V10     Er38    10.0   1_554     S
V11     Er19    10.0   .     S
V11     Er20    10.0   1_545     S
V11     Er39    10.0   1_554     S
V12     Er20    10.0   .     S
V12     Er19    10.0   .     S
V12     Er40    10.0   1_554     S
V13     Er19    10.0   .     S
V13     Er20    10.0   1_545     S
V13     Er37    10.0   1_554     S
V14     Er20    10.0   .     S
V14     Er19    10.0   .     S
V14     Er38    10.0   1_554     S
V15     Er17    10.0   1_655     S
V15     Er18    10.0   1_645     S
V15     Er39    10.0   1_554     S
V16     Er18    10.0   1_655     S
V16     Er17    10.0   1_655     S
V16     Er40    10.0   1_554     S
Er17     V7    10.0   1_455     S
Er17     V4    10.0   1_455     S
Er17     V29    10.0   .     S
Er17     V33    10.0   .     S
Er17     V15    10.0   1_455     S
Er17     V21    10.0   1_554     S
Er17     V25    10.0   1_554     S
Er17     V16    10.0   1_455     S
Er17     Er18    10.0   1_545     S
Er17     Er18    10.0   .     S
Er17     Er19    10.0   .     S
Er17     Er19    10.0   1_455     S
Er18     V8    10.0   1_455     S
Er18     V3    10.0   1_465     S
Er18     V30    10.0   .     S
Er18     V34    10.0   .     S
Er18     V1    10.0   1_565     S
Er18     V16    10.0   1_455     S
Er18     V22    10.0   1_554     S
Er18     V26    10.0   1_554     S
Er18     V9    10.0   1_565     S
Er18     V15    10.0   1_465     S
Er18     Er17    10.0   1_565     S
Er18     Er20    10.0   .     S
Er18     Er20    10.0   1_455     S
Er19     V31    10.0   .     S
Er19     V35    10.0   .     S
Er19     V23    10.0   1_554     S
Er19     V27    10.0   1_554     S
Er19     Er20    10.0   1_545     S
Er19     Er20    10.0   .     S
Er19     Er17    10.0   1_655     S
Er20     V1    10.0   1_565     S
Er20     V32    10.0   .     S
Er20     V36    10.0   .     S
Er20     V3    10.0   1_565     S
Er20     V24    10.0   1_554     S
Er20     V28    10.0   1_554     S
Er20     V11    10.0   1_565     S
Er20     V13    10.0   1_565     S
Er20     Er19    10.0   1_565     S
Er20     Er18    10.0   1_655     S
V21     Er17    10.0   1_556     S
V21     Er39    10.0   1_455     S
V21     Er40    10.0   1_455     S
V22     Er18    10.0   1_556     S
V22     Er40    10.0   1_455     S
V22     Er39    10.0   1_465     S
V23     Er19    10.0   1_556     S
V23     Er37    10.0   .     S
V23     Er38    10.0   .     S
V24     Er20    10.0   1_556     S
V24     Er38    10.0   .     S
V24     Er37    10.0   1_565     S
V25     Er17    10.0   1_556     S
V25     Er37    10.0   .     S
V25     Er38    10.0   .     S
V26     Er18    10.0   1_556     S
V26     Er38    10.0   .     S
V26     Er37    10.0   1_565     S
V27     Er19    10.0   1_556     S
V27     Er39    10.0   .     S
V27     Er40    10.0   .     S
V28     Er20    10.0   1_556     S
V28     Er40    10.0   .     S
V28     Er39    10.0   1_565     S
V29     Er39    10.0   1_455     S
V29     Er37    10.0   .     S
V30     Er40    10.0   1_455     S
V30     Er38    10.0   .     S
V31     Er37    10.0   .     S
V31     Er39    10.0   .     S
V32     Er38    10.0   .     S
V32     Er40    10.0   .     S
V33     Er40    10.0   1_455     S
V33     Er38    10.0   .     S
V34     Er39    10.0   1_465     S
V34     Er37    10.0   1_565     S
V35     Er38    10.0   .     S
V35     Er40    10.0   .     S
V36     Er37    10.0   1_565     S
V36     Er39    10.0   1_565     S
Er37     V36    10.0   1_545     S
Er37     V34    10.0   1_545     S
Er37     V9    10.0   1_556     S
Er37     V13    10.0   1_556     S
Er37     V24    10.0   1_545     S
Er37     V26    10.0   1_545     S
Er37     Er39    10.0   1_455     S
Er37     Er39    10.0   .     S
Er37     Er38    10.0   .     S
Er37     Er38    10.0   1_545     S
Er38     V10    10.0   1_556     S
Er38     V14    10.0   1_556     S
Er38     Er40    10.0   1_455     S
Er38     Er40    10.0   .     S
Er38     Er37    10.0   1_565     S
Er39     V34    10.0   1_645     S
Er39     V29    10.0   1_655     S
Er39     V36    10.0   1_545     S
Er39     V21    10.0   1_655     S
Er39     V11    10.0   1_556     S
Er39     V15    10.0   1_556     S
Er39     V22    10.0   1_645     S
Er39     V28    10.0   1_545     S
Er39     Er37    10.0   1_655     S
Er39     Er40    10.0   .     S
Er39     Er40    10.0   1_545     S
Er40     V33    10.0   1_655     S
Er40     V30    10.0   1_655     S
Er40     V22    10.0   1_655     S
Er40     V12    10.0   1_556     S
Er40     V16    10.0   1_556     S
Er40     V21    10.0   1_655     S
Er40     Er38    10.0   1_655     S
Er40     Er39    10.0   1_565     S
