data_skla
_audit_creation_date              2020-02-04
_audit_creation_method            'Pymatgen'
_symmetry_space_group_name_H-M    'P1'
_symmetry_Int_Tables_number       1
loop_
_symmetry_equiv_pos_as_xyz
  x,y,z
_cell_length_a                    47.6905
_cell_length_b                    47.6905
_cell_length_c                    72.5761
_cell_angle_alpha                 90.0
_cell_angle_beta                 90.0
_cell_angle_gamma                 90.0
loop_
_atom_site_label
_atom_site_type_symbol
_atom_site_fract_x
_atom_site_fract_y
_atom_site_fract_z
S1     S     0.5866   0.8596   0.6256
S2     S     0.5866   0.6404   0.6256
Ce3     Ce     0.4859   0.75   0.5247
S4     S     0.9134   0.8596   0.6256
S5     S     0.9134   0.6404   0.6256
Ce6     Ce     0.0141   0.75   0.5247
S7     S     0.1404   0.4134   0.8744
S8     S     0.3596   0.4134   0.8744
Ce9     Ce     0.25   0.5141   0.9753
S10     S     0.3596   0.0866   0.8744
S11     S     0.1404   0.0866   0.8744
Ce12     Ce     0.25   0.9859   0.9753
V13     V     0.25   0.6171   0.22
Ti14     Ti     0.25   0.6438   0.1036
Er15     Er     0.1458   0.5723   0.3144
Er16     Er     0.3542   0.5723   0.3144
V17     V     0.3829   0.75   0.28
Ti18     Ti     0.3562   0.75   0.3964
Er19     Er     0.4277   0.8542   0.1856
Er20     Er     0.4277   0.6458   0.1856
V21     V     0.25   0.8829   0.22
Ti22     Ti     0.25   0.8562   0.1036
Er23     Er     0.1458   0.9277   0.3144
Er24     Er     0.3542   0.9277   0.3144
V25     V     0.1171   0.75   0.28
Ti26     Ti     0.1438   0.75   0.3964
Er27     Er     0.0723   0.8542   0.1856
Er28     Er     0.0723   0.6458   0.1856
S29     S     0.4134   0.3596   0.3744
S30     S     0.4134   0.1404   0.3744
Ce31     Ce     0.5141   0.25   0.4753
S32     S     0.0866   0.1404   0.3744
S33     S     0.0866   0.3596   0.3744
Ce34     Ce     0.9859   0.25   0.4753
S35     S     0.8596   0.5866   0.1256
S36     S     0.6404   0.5866   0.1256
Ce37     Ce     0.75   0.4859   0.0247
S38     S     0.6404   0.9134   0.1256
S39     S     0.8596   0.9134   0.1256
Ce40     Ce     0.75   0.0141   0.0247
Ti41     Ti     0.6438   0.25   0.6036
V42     V     0.6171   0.25   0.72
Er43     Er     0.5723   0.1458   0.8144
Er44     Er     0.5723   0.3542   0.8144
Ti45     Ti     0.75   0.3562   0.8964
V46     V     0.75   0.3829   0.78
Er47     Er     0.8542   0.4277   0.6856
Er48     Er     0.6458   0.4277   0.6856
Ti49     Ti     0.8562   0.25   0.6036
V50     V     0.8829   0.25   0.72
Er51     Er     0.9277   0.1458   0.8144
Er52     Er     0.9277   0.3542   0.8144
Ti53     Ti     0.75   0.1438   0.8964
V54     V     0.75   0.1171   0.78
Er55     Er     0.8542   0.0723   0.6856
Er56     Er     0.6458   0.0723   0.6856
loop_
_geom_bond_atom_site_label_1
_geom_bond_atom_site_label_2
_geom_bond_distance
_geom_bond_site_symmetry_2
_ccdc_geom_bond_type
S1     Er56    11.394   1_565     S
S1     S2    10.452   .     S
S1     Ce3    10.195   .     S
S2     Er48    11.394   .     S
S2     Ce3    10.195   .     S
Ce3     Ti18    11.179   .     S
S4     Er55    11.394   1_565     S
S4     S5    10.452   .     S
S4     Ce6    10.195   1_655     S
S5     Er47    11.394   .     S
S5     Ce6    10.195   1_655     S
Ce6     Ti26    11.179   .     S
Ce6     S4    10.195   1_455     S
Ce6     S5    10.195   1_455     S
S7     Er52    11.394   1_455     S
S7     S8    10.452   .     S
S7     Ce9    10.195   .     S
S8     Er44    11.394   .     S
S8     Ce9    10.195   .     S
Ce9     Ti14    11.179   1_556     S
S10     Er43    11.394   .     S
S10     S11    10.452   .     S
S10     Ce12    10.195   1_545     S
S11     Er51    11.394   1_455     S
S11     Ce12    10.195   1_545     S
Ce12     Ti22    11.179   1_556     S
Ce12     S10    10.195   1_565     S
Ce12     S11    10.195   1_565     S
V13     Er20    8.942   .     S
V13     Er28    8.942   .     S
V13     Ti14    8.543   .     S
V13     Er16    8.732   .     S
V13     Er15    8.732   .     S
Ti14     Ce9    11.179   1_554     S
Ti14     Er20    10.357   .     S
Ti14     Er28    10.357   .     S
Ti14     Ti22    10.129   .     S
Er15     Er28    10.586   .     S
Er15     S33    11.394   .     S
Er15     Er16    9.937   .     S
Er15     Ti26    10.357   .     S
Er15     V25    8.942   .     S
Er16     Er20    10.586   .     S
Er16     S29    11.394   .     S
Er16     Ti18    10.357   .     S
Er16     V17    8.942   .     S
V17     Er24    8.942   .     S
V17     Ti18    8.543   .     S
V17     Er19    8.732   .     S
V17     Er20    8.732   .     S
Ti18     Er24    10.357   .     S
Ti18     Ti26    10.129   .     S
Er19     Er24    10.586   .     S
Er19     S38    11.394   .     S
Er19     Er20    9.937   .     S
Er19     Ti22    10.357   .     S
Er19     V21    8.942   .     S
Er20     S36    11.394   .     S
V21     Er27    8.942   .     S
V21     Ti22    8.543   .     S
V21     Er24    8.732   .     S
V21     Er23    8.732   .     S
Ti22     Ce12    11.179   1_554     S
Ti22     Er27    10.357   .     S
Er23     Er27    10.586   .     S
Er23     S32    11.394   1_565     S
Er23     Er24    9.937   .     S
Er23     Ti26    10.357   .     S
Er23     V25    8.942   .     S
Er24     S30    11.394   1_565     S
V25     Ti26    8.543   .     S
V25     Er27    8.732   .     S
V25     Er28    8.732   .     S
Er27     S39    11.394   1_455     S
Er27     Er28    9.937   .     S
Er28     S35    11.394   1_455     S
S29     S30    10.452   .     S
S29     Ce31    10.195   .     S
S30     Er24    11.394   1_545     S
S30     Ce31    10.195   .     S
Ce31     Ti41    11.179   .     S
S32     Er23    11.394   1_545     S
S32     S33    10.452   .     S
S32     Ce34    10.195   1_455     S
S33     Ce34    10.195   1_455     S
Ce34     Ti49    11.179   .     S
Ce34     S32    10.195   1_655     S
Ce34     S33    10.195   1_655     S
S35     Er28    11.394   1_655     S
S35     S36    10.452   .     S
S35     Ce37    10.195   .     S
S36     Ce37    10.195   .     S
Ce37     Ti45    11.179   1_554     S
S38     S39    10.452   .     S
S38     Ce40    10.195   1_565     S
S39     Er27    11.394   1_655     S
S39     Ce40    10.195   1_565     S
Ce40     Ti53    11.179   1_554     S
Ce40     S38    10.195   1_545     S
Ce40     S39    10.195   1_545     S
Ti41     Er48    10.357   .     S
Ti41     Er56    10.357   .     S
Ti41     V42    8.543   .     S
Ti41     Ti49    10.129   .     S
V42     Er48    8.942   .     S
V42     Er56    8.942   .     S
V42     Er44    8.732   .     S
V42     Er43    8.732   .     S
Er43     Er56    10.586   .     S
Er43     Er44    9.937   .     S
Er43     Ti53    10.357   .     S
Er43     V54    8.942   .     S
Er44     Er48    10.586   .     S
Er44     Ti45    10.357   .     S
Er44     V46    8.942   .     S
Ti45     Ce37    11.179   1_556     S
Ti45     Er52    10.357   .     S
Ti45     V46    8.543   .     S
Ti45     Ti53    10.129   .     S
V46     Er52    8.942   .     S
V46     Er47    8.732   .     S
V46     Er48    8.732   .     S
Er47     Er52    10.586   .     S
Er47     Er48    9.937   .     S
Er47     Ti49    10.357   .     S
Er47     V50    8.942   .     S
Ti49     Er55    10.357   .     S
Ti49     V50    8.543   .     S
V50     Er55    8.942   .     S
V50     Er52    8.732   .     S
V50     Er51    8.732   .     S
Er51     Er55    10.586   .     S
Er51     S11    11.394   1_655     S
Er51     Er52    9.937   .     S
Er51     Ti53    10.357   .     S
Er51     V54    8.942   .     S
Er52     S7    11.394   1_655     S
Ti53     Ce40    11.179   1_556     S
Ti53     V54    8.543   .     S
V54     Er55    8.732   .     S
V54     Er56    8.732   .     S
Er55     S4    11.394   1_545     S
Er55     Er56    9.937   .     S
Er56     S1    11.394   1_545     S
