data_sku
_audit_creation_date              2020-02-04
_audit_creation_method            'Pymatgen'
_symmetry_space_group_name_H-M    'P1'
_symmetry_Int_Tables_number       1
loop_
_symmetry_equiv_pos_as_xyz
  x,y,z
_cell_length_a                    34.4152
_cell_length_b                    34.4152
_cell_length_c                    34.4152
_cell_angle_alpha                 90.0
_cell_angle_beta                 90.0
_cell_angle_gamma                 90.0
loop_
_atom_site_label
_atom_site_type_symbol
_atom_site_fract_x
_atom_site_fract_y
_atom_site_fract_z
Er1     Er     0.75   0.75   0.75
V2     V     0.8547   0.3547   0.5
V3     V     0.1453   0.3547   0.5
V4     V     0.8547   0.6453   0.5
V5     V     0.1453   0.6453   0.5
V6     V     0.3547   0.5   0.8547
V7     V     0.3547   0.5   0.1453
V8     V     0.6453   0.5   0.8547
V9     V     0.6453   0.5   0.1453
V10     V     0.5   0.8547   0.3547
V11     V     0.5   0.1453   0.3547
V12     V     0.5   0.8547   0.6453
V13     V     0.5   0.1453   0.6453
Er14     Er     0.25   0.25   0.75
Er15     Er     0.25   0.75   0.25
Er16     Er     0.75   0.25   0.25
Er17     Er     0.75   0.25   0.75
V18     V     0.6453   0.8547   0.0
V19     V     0.6453   0.1453   0.0
V20     V     0.3547   0.8547   0.0
V21     V     0.3547   0.1453   0.0
Er22     Er     0.25   0.75   0.75
V23     V     0.8547   0.0   0.6453
V24     V     0.1453   0.0   0.6453
V25     V     0.8547   0.0   0.3547
V26     V     0.1453   0.0   0.3547
Er27     Er     0.75   0.75   0.25
V28     V     0.0   0.6453   0.8547
V29     V     0.0   0.6453   0.1453
V30     V     0.0   0.3547   0.8547
V31     V     0.0   0.3547   0.1453
Er32     Er     0.25   0.25   0.25
loop_
_geom_bond_atom_site_label_1
_geom_bond_atom_site_label_2
_geom_bond_distance
_geom_bond_site_symmetry_2
_ccdc_geom_bond_type
Er1     V28    10.0   1_655     S
Er1     V23    10.0   1_565     S
Er1     V18    10.0   1_556     S
Er1     V12    10.0   .     S
Er1     V8    10.0   .     S
Er1     V4    10.0   .     S
V2     V3    10.0   1_655     S
V2     V4    10.0   .     S
V2     Er16    10.0   .     S
V2     Er17    10.0   .     S
V3     V2    10.0   1_455     S
V3     V5    10.0   .     S
V3     Er14    10.0   .     S
V3     Er32    10.0   .     S
V4     V5    10.0   1_655     S
V4     Er27    10.0   .     S
V5     V4    10.0   1_455     S
V5     Er15    10.0   .     S
V5     Er22    10.0   .     S
V6     V7    10.0   1_556     S
V6     V8    10.0   .     S
V6     Er14    10.0   .     S
V6     Er22    10.0   .     S
V7     V6    10.0   1_554     S
V7     V9    10.0   .     S
V7     Er15    10.0   .     S
V7     Er32    10.0   .     S
V8     V9    10.0   1_556     S
V8     Er17    10.0   .     S
V9     V8    10.0   1_554     S
V9     Er16    10.0   .     S
V9     Er27    10.0   .     S
V10     V11    10.0   1_565     S
V10     V12    10.0   .     S
V10     Er15    10.0   .     S
V10     Er27    10.0   .     S
V11     V10    10.0   1_545     S
V11     V13    10.0   .     S
V11     Er16    10.0   .     S
V11     Er32    10.0   .     S
V12     V13    10.0   1_565     S
V12     Er22    10.0   .     S
V13     V12    10.0   1_545     S
V13     Er14    10.0   .     S
V13     Er17    10.0   .     S
Er14     V24    10.0   .     S
Er14     V30    10.0   .     S
Er14     V21    10.0   1_556     S
Er15     V29    10.0   .     S
Er15     V20    10.0   .     S
Er15     V26    10.0   1_565     S
Er16     V25    10.0   .     S
Er16     V19    10.0   .     S
Er16     V31    10.0   1_655     S
Er17     V23    10.0   .     S
Er17     V19    10.0   1_556     S
Er17     V30    10.0   1_655     S
V18     Er1    10.0   1_554     S
V18     V19    10.0   1_565     S
V18     V20    10.0   .     S
V18     Er27    10.0   .     S
V19     Er17    10.0   1_554     S
V19     V18    10.0   1_545     S
V19     V21    10.0   .     S
V20     V21    10.0   1_565     S
V20     Er22    10.0   1_554     S
V21     V20    10.0   1_545     S
V21     Er32    10.0   .     S
V21     Er14    10.0   1_554     S
Er22     V28    10.0   .     S
Er22     V24    10.0   1_565     S
Er22     V20    10.0   1_556     S
V23     Er1    10.0   1_545     S
V23     V24    10.0   1_655     S
V23     V25    10.0   .     S
V24     Er22    10.0   1_545     S
V24     V23    10.0   1_455     S
V24     V26    10.0   .     S
V25     V26    10.0   1_655     S
V25     Er27    10.0   1_545     S
V26     V25    10.0   1_455     S
V26     Er32    10.0   .     S
V26     Er15    10.0   1_545     S
Er27     V29    10.0   1_655     S
Er27     V25    10.0   1_565     S
V28     Er1    10.0   1_455     S
V28     V29    10.0   1_556     S
V28     V30    10.0   .     S
V29     Er27    10.0   1_455     S
V29     V28    10.0   1_554     S
V29     V31    10.0   .     S
V30     Er17    10.0   1_455     S
V30     V31    10.0   1_556     S
V31     V30    10.0   1_554     S
V31     Er32    10.0   .     S
V31     Er16    10.0   1_455     S
