data_sme
_audit_creation_date              2020-02-04
_audit_creation_method            'Pymatgen'
_symmetry_space_group_name_H-M    'P1'
_symmetry_Int_Tables_number       1
loop_
_symmetry_equiv_pos_as_xyz
  x,y,z
_cell_length_a                    30.2303
_cell_length_b                    30.2303
_cell_length_c                    20.0004
_cell_angle_alpha                 90.0
_cell_angle_beta                 90.0
_cell_angle_gamma                 120.0
loop_
_atom_site_label
_atom_site_type_symbol
_atom_site_fract_x
_atom_site_fract_y
_atom_site_fract_z
V1     V     0.5243   0.6667   0.4167
V2     V     0.6667   0.5243   0.0833
V3     V     0.809   0.809   0.75
V4     V     0.3333   0.4757   0.9167
V5     V     0.4757   0.3333   0.5833
V6     V     0.191   0.191   0.25
V7     V     0.4757   0.1423   0.0833
V8     V     0.191   0.0   0.75
V9     V     0.3333   0.8577   0.4167
V10     V     0.5243   0.8577   0.9167
V11     V     0.809   0.0   0.25
V12     V     0.6667   0.1423   0.5833
V13     V     0.1423   0.4757   0.4167
V14     V     0.8577   0.3333   0.0833
V15     V     0.0   0.191   0.75
V16     V     0.1423   0.6667   0.9167
V17     V     0.0   0.809   0.25
V18     V     0.8577   0.5243   0.5833
loop_
_geom_bond_atom_site_label_1
_geom_bond_atom_site_label_2
_geom_bond_distance
_geom_bond_site_symmetry_2
_ccdc_geom_bond_type
V1     V13    10.0   .     S
V1     V9    10.0   .     S
V1     V5    10.0   .     S
V1     V11    10.0   1_565     S
V1     V3    10.0   .     S
V1     V2    10.0   .     S
V2     V7    10.0   .     S
V2     V14    10.0   .     S
V2     V4    10.0   1_554     S
V2     V3    10.0   1_554     S
V2     V17    10.0   1_655     S
V3     V8    10.0   1_665     S
V3     V15    10.0   1_665     S
V3     V18    10.0   .     S
V3     V10    10.0   .     S
V3     V2    10.0   1_556     S
V4     V16    10.0   .     S
V4     V10    10.0   .     S
V4     V2    10.0   1_556     S
V4     V15    10.0   .     S
V4     V6    10.0   1_556     S
V4     V5    10.0   .     S
V5     V12    10.0   .     S
V5     V18    10.0   .     S
V5     V6    10.0   .     S
V5     V8    10.0   .     S
V6     V11    10.0   1_455     S
V6     V17    10.0   1_545     S
V6     V13    10.0   .     S
V6     V7    10.0   .     S
V6     V4    10.0   1_554     S
V7     V14    10.0   .     S
V7     V9    10.0   1_545     S
V7     V8    10.0   1_554     S
V7     V10    10.0   1_544     S
V8     V15    10.0   .     S
V8     V3    10.0   1_445     S
V8     V16    10.0   1_545     S
V8     V7    10.0   1_556     S
V8     V9    10.0   1_545     S
V9     V13    10.0   .     S
V9     V12    10.0   1_565     S
V9     V17    10.0   .     S
V9     V7    10.0   1_565     S
V9     V8    10.0   1_565     S
V10     V16    10.0   .     S
V10     V7    10.0   1_566     S
V10     V12    10.0   1_565     S
V10     V11    10.0   1_566     S
V11     V17    10.0   1_645     S
V11     V6    10.0   1_655     S
V11     V1    10.0   1_545     S
V11     V10    10.0   1_544     S
V11     V12    10.0   .     S
V11     V14    10.0   .     S
V12     V18    10.0   .     S
V12     V9    10.0   1_545     S
V12     V15    10.0   1_655     S
V12     V10    10.0   1_545     S
V13     V14    10.0   1_455     S
V13     V15    10.0   .     S
V13     V18    10.0   1_455     S
V14     V16    10.0   1_654     S
V14     V13    10.0   1_655     S
V14     V15    10.0   1_654     S
V15     V3    10.0   1_445     S
V15     V12    10.0   1_455     S
V15     V14    10.0   1_456     S
V16     V14    10.0   1_456     S
V16     V8    10.0   1_565     S
V16     V18    10.0   1_455     S
V16     V17    10.0   1_556     S
V17     V11    10.0   1_465     S
V17     V6    10.0   1_565     S
V17     V2    10.0   1_455     S
V17     V16    10.0   1_554     S
V17     V18    10.0   1_455     S
V18     V13    10.0   1_655     S
V18     V16    10.0   1_655     S
V18     V17    10.0   1_655     S
