data_smg
_audit_creation_date              2020-02-04
_audit_creation_method            'Pymatgen'
_symmetry_space_group_name_H-M    'P1'
_symmetry_Int_Tables_number       1
loop_
_symmetry_equiv_pos_as_xyz
  x,y,z
_cell_length_a                    29.8988
_cell_length_b                    29.8988
_cell_length_c                    26.7541
_cell_angle_alpha                 90.0
_cell_angle_beta                 90.0
_cell_angle_gamma                 120.0
loop_
_atom_site_label
_atom_site_type_symbol
_atom_site_fract_x
_atom_site_fract_y
_atom_site_fract_z
V1     V     0.246   0.9126   0.0833
V2     V     0.4207   0.0   0.75
V3     V     0.0874   0.3333   0.0833
V4     V     0.3333   0.246   0.9167
V5     V     0.9126   0.246   0.4167
V6     V     0.4207   0.4207   0.25
V7     V     0.0   0.4207   0.75
V8     V     0.3333   0.0874   0.4167
V9     V     0.246   0.3333   0.5833
V10     V     0.0874   0.754   0.5833
V11     V     0.6667   0.9126   0.5833
V12     V     0.0   0.5793   0.25
V13     V     0.754   0.6667   0.4167
V14     V     0.5793   0.5793   0.75
V15     V     0.754   0.0874   0.9167
V16     V     0.5793   0.0   0.25
V17     V     0.9126   0.6667   0.9167
V18     V     0.6667   0.754   0.0833
loop_
_geom_bond_atom_site_label_1
_geom_bond_atom_site_label_2
_geom_bond_distance
_geom_bond_site_symmetry_2
_ccdc_geom_bond_type
V1     V12    10.0   .     S
V1     V17    10.0   1_454     S
V1     V2    10.0   1_564     S
V1     V4    10.0   1_564     S
V1     V8    10.0   1_565     S
V1     V16    10.0   1_565     S
V2     V11    10.0   1_545     S
V2     V15    10.0   .     S
V2     V1    10.0   1_546     S
V2     V4    10.0   .     S
V2     V8    10.0   .     S
V2     V10    10.0   1_545     S
V3     V4    10.0   1_554     S
V3     V6    10.0   .     S
V3     V5    10.0   1_455     S
V3     V12    10.0   .     S
V3     V7    10.0   1_554     S
V3     V15    10.0   1_454     S
V4     V6    10.0   1_556     S
V4     V3    10.0   1_556     S
V4     V1    10.0   1_546     S
V4     V9    10.0   .     S
V4     V14    10.0   .     S
V5     V11    10.0   1_545     S
V5     V16    10.0   .     S
V5     V7    10.0   1_655     S
V5     V9    10.0   1_655     S
V5     V3    10.0   1_655     S
V5     V12    10.0   1_655     S
V6     V4    10.0   1_554     S
V6     V18    10.0   .     S
V6     V13    10.0   .     S
V6     V9    10.0   .     S
V6     V8    10.0   .     S
V7     V17    10.0   1_455     S
V7     V10    10.0   .     S
V7     V5    10.0   1_455     S
V7     V9    10.0   .     S
V7     V3    10.0   1_556     S
V7     V15    10.0   1_455     S
V8     V9    10.0   .     S
V8     V10    10.0   1_545     S
V8     V1    10.0   1_545     S
V8     V16    10.0   .     S
V9     V5    10.0   1_455     S
V9     V14    10.0   .     S
V10     V17    10.0   1_455     S
V10     V2    10.0   1_565     S
V10     V8    10.0   1_565     S
V10     V12    10.0   .     S
V10     V13    10.0   1_455     S
V11     V15    10.0   1_565     S
V11     V2    10.0   1_565     S
V11     V16    10.0   1_565     S
V11     V5    10.0   1_565     S
V11     V14    10.0   .     S
V11     V13    10.0   .     S
V12     V17    10.0   1_454     S
V12     V5    10.0   1_455     S
V12     V13    10.0   1_455     S
V13     V18    10.0   .     S
V13     V14    10.0   .     S
V13     V12    10.0   1_655     S
V13     V10    10.0   1_655     S
V14     V18    10.0   1_556     S
V14     V17    10.0   .     S
V15     V11    10.0   1_545     S
V15     V7    10.0   1_655     S
V15     V3    10.0   1_656     S
V15     V16    10.0   1_556     S
V15     V18    10.0   1_546     S
V16     V11    10.0   1_545     S
V16     V1    10.0   1_545     S
V16     V15    10.0   1_554     S
V16     V18    10.0   1_545     S
V17     V12    10.0   1_656     S
V17     V1    10.0   1_656     S
V17     V10    10.0   1_655     S
V17     V7    10.0   1_655     S
V17     V18    10.0   1_556     S
V18     V14    10.0   1_554     S
V18     V17    10.0   1_554     S
V18     V16    10.0   1_565     S
V18     V15    10.0   1_564     S
