data_smq
_audit_creation_date              2020-02-04
_audit_creation_method            'Pymatgen'
_symmetry_space_group_name_H-M    'P1'
_symmetry_Int_Tables_number       1
loop_
_symmetry_equiv_pos_as_xyz
  x,y,z
_cell_length_a                    29.2436
_cell_length_b                    29.2436
_cell_length_c                    29.2436
_cell_angle_alpha                 90.0
_cell_angle_beta                 90.0
_cell_angle_gamma                 90.0
loop_
_atom_site_label
_atom_site_type_symbol
_atom_site_fract_x
_atom_site_fract_y
_atom_site_fract_z
V1     V     0.2678   0.0   0.2024
V2     V     0.7322   0.0   0.2024
V3     V     0.2024   0.2678   0.0
V4     V     0.2024   0.7322   0.0
V5     V     0.0   0.2024   0.7322
V6     V     0.0   0.2024   0.2678
V7     V     0.0   0.7976   0.2678
V8     V     0.7976   0.7322   0.0
V9     V     0.2678   0.0   0.7976
V10     V     0.0   0.7976   0.7322
V11     V     0.7976   0.2678   0.0
V12     V     0.7322   0.0   0.7976
V13     V     0.5   0.2322   0.2976
V14     V     0.2976   0.5   0.2322
V15     V     0.2322   0.2976   0.5
V16     V     0.2322   0.7024   0.5
V17     V     0.2976   0.5   0.7678
V18     V     0.5   0.7678   0.2976
V19     V     0.7024   0.5   0.2322
V20     V     0.7678   0.7024   0.5
V21     V     0.7024   0.5   0.7678
V22     V     0.5   0.7678   0.7024
V23     V     0.5   0.2322   0.7024
V24     V     0.7678   0.2976   0.5
loop_
_geom_bond_atom_site_label_1
_geom_bond_atom_site_label_2
_geom_bond_distance
_geom_bond_site_symmetry_2
_ccdc_geom_bond_type
V1     V6    10.0   .     S
V1     V7    10.0   1_545     S
V1     V3    10.0   .     S
V1     V4    10.0   1_545     S
V1     V13    10.0   .     S
V1     V18    10.0   1_545     S
V2     V6    10.0   1_655     S
V2     V7    10.0   1_645     S
V2     V8    10.0   1_545     S
V2     V11    10.0   .     S
V2     V13    10.0   .     S
V2     V18    10.0   1_545     S
V3     V9    10.0   1_554     S
V3     V5    10.0   1_554     S
V3     V6    10.0   .     S
V3     V14    10.0   .     S
V3     V17    10.0   1_554     S
V4     V1    10.0   1_565     S
V4     V9    10.0   1_564     S
V4     V7    10.0   .     S
V4     V10    10.0   1_554     S
V4     V17    10.0   1_554     S
V4     V14    10.0   .     S
V5     V3    10.0   1_556     S
V5     V11    10.0   1_456     S
V5     V9    10.0   .     S
V5     V12    10.0   1_455     S
V5     V15    10.0   .     S
V5     V24    10.0   1_455     S
V6     V2    10.0   1_455     S
V6     V11    10.0   1_455     S
V6     V15    10.0   .     S
V6     V24    10.0   1_455     S
V7     V1    10.0   1_565     S
V7     V2    10.0   1_465     S
V7     V8    10.0   1_455     S
V7     V20    10.0   1_455     S
V7     V16    10.0   .     S
V8     V7    10.0   1_655     S
V8     V2    10.0   1_565     S
V8     V12    10.0   1_564     S
V8     V10    10.0   1_654     S
V8     V19    10.0   .     S
V8     V21    10.0   1_554     S
V9     V3    10.0   1_556     S
V9     V4    10.0   1_546     S
V9     V10    10.0   1_545     S
V9     V22    10.0   1_545     S
V9     V23    10.0   .     S
V10     V9    10.0   1_565     S
V10     V4    10.0   1_556     S
V10     V8    10.0   1_456     S
V10     V12    10.0   1_465     S
V10     V16    10.0   .     S
V10     V20    10.0   1_455     S
V11     V5    10.0   1_654     S
V11     V6    10.0   1_655     S
V11     V12    10.0   1_554     S
V11     V21    10.0   1_554     S
V11     V19    10.0   .     S
V12     V8    10.0   1_546     S
V12     V11    10.0   1_556     S
V12     V5    10.0   1_655     S
V12     V10    10.0   1_645     S
V12     V23    10.0   .     S
V12     V22    10.0   1_545     S
V13     V14    10.0   .     S
V13     V19    10.0   .     S
V13     V15    10.0   .     S
V13     V24    10.0   .     S
V14     V15    10.0   .     S
V14     V16    10.0   .     S
V14     V18    10.0   .     S
V15     V23    10.0   .     S
V15     V17    10.0   .     S
V16     V22    10.0   .     S
V16     V18    10.0   .     S
V16     V17    10.0   .     S
V17     V4    10.0   1_556     S
V17     V22    10.0   .     S
V17     V23    10.0   .     S
V17     V3    10.0   1_556     S
V18     V19    10.0   .     S
V18     V20    10.0   .     S
V18     V2    10.0   1_565     S
V18     V1    10.0   1_565     S
V19     V20    10.0   .     S
V19     V24    10.0   .     S
V20     V22    10.0   .     S
V20     V21    10.0   .     S
V20     V10    10.0   1_655     S
V20     V7    10.0   1_655     S
V21     V24    10.0   .     S
V21     V22    10.0   .     S
V21     V23    10.0   .     S
V21     V8    10.0   1_556     S
V21     V11    10.0   1_556     S
V22     V12    10.0   1_565     S
V22     V9    10.0   1_565     S
V23     V24    10.0   .     S
V24     V5    10.0   1_655     S
V24     V6    10.0   1_655     S
