data_sms
_audit_creation_date              2020-02-04
_audit_creation_method            'Pymatgen'
_symmetry_space_group_name_H-M    'P1'
_symmetry_Int_Tables_number       1
loop_
_symmetry_equiv_pos_as_xyz
  x,y,z
_cell_length_a                    25.186
_cell_length_b                    25.186
_cell_length_c                    38.9226
_cell_angle_alpha                 90.0
_cell_angle_beta                 90.0
_cell_angle_gamma                 120.0
loop_
_atom_site_label
_atom_site_type_symbol
_atom_site_fract_x
_atom_site_fract_y
_atom_site_fract_z
V1     V     0.8677   0.1323   0.3951
V2     V     0.1323   0.2647   0.6049
V3     V     0.1323   0.8677   0.6049
V4     V     0.2647   0.1323   0.3951
V5     V     0.8676   0.7353   0.3951
V6     V     0.7353   0.8676   0.6049
V7     V     0.4657   0.9314   0.2716
V8     V     0.201   0.799   0.0618
V9     V     0.0686   0.5343   0.2716
V10     V     0.201   0.402   0.0618
V11     V     0.598   0.799   0.0618
V12     V     0.4657   0.5343   0.2716
V13     V     0.799   0.201   0.9382
V14     V     0.9314   0.4657   0.7284
V15     V     0.799   0.598   0.9382
V16     V     0.402   0.201   0.9382
V17     V     0.5343   0.0686   0.7284
V18     V     0.5343   0.4657   0.7284
loop_
_geom_bond_atom_site_label_1
_geom_bond_atom_site_label_2
_geom_bond_distance
_geom_bond_site_symmetry_2
_ccdc_geom_bond_type
V1     V4    10.0   1_655     S
V1     V6    10.0   1_545     S
V1     V2    10.0   1_655     S
V1     V5    10.0   1_545     S
V1     V7    10.0   1_545     S
V1     V9    10.0   1_655     S
V2     V4    10.0   .     S
V2     V3    10.0   1_545     S
V2     V1    10.0   1_455     S
V2     V6    10.0   1_445     S
V2     V14    10.0   1_455     S
V2     V18    10.0   .     S
V3     V2    10.0   1_565     S
V3     V5    10.0   1_455     S
V3     V4    10.0   1_565     S
V3     V6    10.0   1_455     S
V3     V17    10.0   1_565     S
V3     V14    10.0   1_455     S
V4     V1    10.0   1_455     S
V4     V3    10.0   1_545     S
V4     V5    10.0   1_445     S
V4     V7    10.0   1_545     S
V4     V12    10.0   .     S
V5     V3    10.0   1_655     S
V5     V4    10.0   1_665     S
V5     V6    10.0   .     S
V5     V1    10.0   1_565     S
V5     V9    10.0   1_655     S
V5     V12    10.0   .     S
V6     V1    10.0   1_565     S
V6     V2    10.0   1_665     S
V6     V3    10.0   1_655     S
V6     V17    10.0   1_565     S
V6     V18    10.0   .     S
V7     V8    10.0   .     S
V7     V9    10.0   .     S
V7     V11    10.0   .     S
V7     V12    10.0   .     S
V7     V4    10.0   1_565     S
V7     V1    10.0   1_565     S
V8     V11    10.0   .     S
V8     V9    10.0   .     S
V8     V10    10.0   .     S
V8     V16    10.0   1_564     S
V8     V15    10.0   1_454     S
V9     V10    10.0   .     S
V9     V12    10.0   .     S
V9     V5    10.0   1_455     S
V9     V1    10.0   1_455     S
V10     V12    10.0   .     S
V10     V11    10.0   .     S
V10     V16    10.0   1_554     S
V10     V13    10.0   1_454     S
V11     V12    10.0   .     S
V11     V15    10.0   1_554     S
V11     V13    10.0   1_564     S
V13     V14    10.0   .     S
V13     V15    10.0   .     S
V13     V17    10.0   .     S
V13     V16    10.0   .     S
V13     V11    10.0   1_546     S
V13     V10    10.0   1_656     S
V14     V2    10.0   1_655     S
V14     V15    10.0   .     S
V14     V18    10.0   .     S
V14     V17    10.0   .     S
V14     V3    10.0   1_655     S
V15     V18    10.0   .     S
V15     V16    10.0   .     S
V15     V11    10.0   1_556     S
V15     V8    10.0   1_656     S
V16     V17    10.0   .     S
V16     V18    10.0   .     S
V16     V10    10.0   1_556     S
V16     V8    10.0   1_546     S
V17     V3    10.0   1_545     S
V17     V18    10.0   .     S
V17     V6    10.0   1_545     S
