data_snh
_audit_creation_date              2020-02-04
_audit_creation_method            'Pymatgen'
_symmetry_space_group_name_H-M    'P1'
_symmetry_Int_Tables_number       1
loop_
_symmetry_equiv_pos_as_xyz
  x,y,z
_cell_length_a                    27.3204
_cell_length_b                    27.3204
_cell_length_c                    27.3204
_cell_angle_alpha                 90.0
_cell_angle_beta                 90.0
_cell_angle_gamma                 90.0
loop_
_atom_site_label
_atom_site_type_symbol
_atom_site_fract_x
_atom_site_fract_y
_atom_site_fract_z
V1     V     0.183   0.5   0.317
V2     V     0.183   0.5   0.683
V3     V     0.817   0.5   0.317
V4     V     0.817   0.5   0.683
V5     V     0.817   0.683   0.0
V6     V     0.183   0.683   0.0
V7     V     0.817   0.317   0.0
V8     V     0.183   0.317   0.0
V9     V     0.5   0.317   0.183
V10     V     0.5   0.683   0.183
V11     V     0.5   0.317   0.817
V12     V     0.5   0.683   0.817
V13     V     0.683   0.0   0.817
V14     V     0.683   0.0   0.183
V15     V     0.317   0.0   0.817
V16     V     0.317   0.0   0.183
V17     V     0.0   0.817   0.683
V18     V     0.0   0.183   0.683
V19     V     0.0   0.817   0.317
V20     V     0.0   0.183   0.317
V21     V     0.317   0.183   0.5
V22     V     0.683   0.183   0.5
V23     V     0.317   0.817   0.5
V24     V     0.683   0.817   0.5
loop_
_geom_bond_atom_site_label_1
_geom_bond_atom_site_label_2
_geom_bond_distance
_geom_bond_site_symmetry_2
_ccdc_geom_bond_type
V1     V20    10.0   .     S
V1     V19    10.0   .     S
V1     V3    10.0   1_455     S
V1     V2    10.0   .     S
V1     V6    10.0   .     S
V1     V8    10.0   .     S
V2     V17    10.0   .     S
V2     V18    10.0   .     S
V2     V4    10.0   1_455     S
V2     V6    10.0   1_556     S
V2     V8    10.0   1_556     S
V3     V1    10.0   1_655     S
V3     V19    10.0   1_655     S
V3     V20    10.0   1_655     S
V3     V4    10.0   .     S
V3     V5    10.0   .     S
V3     V7    10.0   .     S
V4     V2    10.0   1_655     S
V4     V18    10.0   1_655     S
V4     V17    10.0   1_655     S
V4     V5    10.0   1_556     S
V4     V7    10.0   1_556     S
V5     V4    10.0   1_554     S
V5     V6    10.0   1_655     S
V5     V7    10.0   .     S
V5     V10    10.0   .     S
V5     V12    10.0   1_554     S
V6     V2    10.0   1_554     S
V6     V5    10.0   1_455     S
V6     V8    10.0   .     S
V6     V10    10.0   .     S
V6     V12    10.0   1_554     S
V7     V4    10.0   1_554     S
V7     V8    10.0   1_655     S
V7     V9    10.0   .     S
V7     V11    10.0   1_554     S
V8     V2    10.0   1_554     S
V8     V7    10.0   1_455     S
V8     V9    10.0   .     S
V8     V11    10.0   1_554     S
V9     V11    10.0   1_554     S
V9     V10    10.0   .     S
V9     V14    10.0   .     S
V9     V16    10.0   .     S
V10     V12    10.0   1_554     S
V10     V14    10.0   1_565     S
V10     V16    10.0   1_565     S
V11     V9    10.0   1_556     S
V11     V7    10.0   1_556     S
V11     V8    10.0   1_556     S
V11     V12    10.0   .     S
V11     V13    10.0   .     S
V11     V15    10.0   .     S
V12     V10    10.0   1_556     S
V12     V6    10.0   1_556     S
V12     V5    10.0   1_556     S
V12     V13    10.0   1_565     S
V12     V15    10.0   1_565     S
V13     V12    10.0   1_545     S
V13     V14    10.0   1_556     S
V13     V15    10.0   .     S
V13     V22    10.0   .     S
V13     V24    10.0   1_545     S
V14     V10    10.0   1_545     S
V14     V13    10.0   1_554     S
V14     V16    10.0   .     S
V14     V22    10.0   .     S
V14     V24    10.0   1_545     S
V15     V12    10.0   1_545     S
V15     V16    10.0   1_556     S
V15     V21    10.0   .     S
V15     V23    10.0   1_545     S
V16     V10    10.0   1_545     S
V16     V15    10.0   1_554     S
V16     V21    10.0   .     S
V16     V23    10.0   1_545     S
V17     V4    10.0   1_455     S
V17     V24    10.0   1_455     S
V17     V23    10.0   .     S
V17     V18    10.0   1_565     S
V17     V19    10.0   .     S
V18     V4    10.0   1_455     S
V18     V21    10.0   .     S
V18     V22    10.0   1_455     S
V18     V17    10.0   1_545     S
V18     V20    10.0   .     S
V19     V3    10.0   1_455     S
V19     V23    10.0   .     S
V19     V24    10.0   1_455     S
V19     V20    10.0   1_565     S
V20     V3    10.0   1_455     S
V20     V22    10.0   1_455     S
V20     V21    10.0   .     S
V20     V19    10.0   1_545     S
V21     V23    10.0   1_545     S
V21     V22    10.0   .     S
V22     V18    10.0   1_655     S
V22     V20    10.0   1_655     S
V22     V24    10.0   1_545     S
V23     V21    10.0   1_565     S
V23     V15    10.0   1_565     S
V23     V16    10.0   1_565     S
V23     V24    10.0   .     S
V24     V17    10.0   1_655     S
V24     V19    10.0   1_655     S
V24     V22    10.0   1_565     S
V24     V14    10.0   1_565     S
V24     V13    10.0   1_565     S
