data_sno
_audit_creation_date              2020-02-04
_audit_creation_method            'Pymatgen'
_symmetry_space_group_name_H-M    'P1'
_symmetry_Int_Tables_number       1
loop_
_symmetry_equiv_pos_as_xyz
  x,y,z
_cell_length_a                    44.7066
_cell_length_b                    44.7066
_cell_length_c                    20.0
_cell_angle_alpha                 90.0
_cell_angle_beta                 90.0
_cell_angle_gamma                 90.0
loop_
_atom_site_label
_atom_site_type_symbol
_atom_site_fract_x
_atom_site_fract_y
_atom_site_fract_z
V1     V     0.5969   0.0   0.375
V2     V     0.5969   0.0   0.875
V3     V     0.9031   0.0   0.125
V4     V     0.9031   0.0   0.625
V5     V     0.75   0.1531   0.0
V6     V     0.75   0.1531   0.5
V7     V     0.75   0.8469   0.25
V8     V     0.75   0.8469   0.75
V9     V     0.25   0.1531   0.25
V10     V     0.25   0.1531   0.75
V11     V     0.0969   0.0   0.375
V12     V     0.0969   0.0   0.875
V13     V     0.25   0.8469   0.0
V14     V     0.25   0.8469   0.5
V15     V     0.4031   0.0   0.125
V16     V     0.4031   0.0   0.625
V17     V     0.4031   0.5   0.375
V18     V     0.4031   0.5   0.875
V19     V     0.25   0.3469   0.0
V20     V     0.25   0.3469   0.5
V21     V     0.25   0.6531   0.25
V22     V     0.25   0.6531   0.75
V23     V     0.0969   0.5   0.125
V24     V     0.0969   0.5   0.625
V25     V     0.75   0.3469   0.25
V26     V     0.75   0.3469   0.75
V27     V     0.9031   0.5   0.375
V28     V     0.9031   0.5   0.875
V29     V     0.75   0.6531   0.0
V30     V     0.75   0.6531   0.5
V31     V     0.5969   0.5   0.125
V32     V     0.5969   0.5   0.625
loop_
_geom_bond_atom_site_label_1
_geom_bond_atom_site_label_2
_geom_bond_distance
_geom_bond_site_symmetry_2
_ccdc_geom_bond_type
V1     V6    10.0   .     S
V1     V7    10.0   1_545     S
V1     V2    10.0   1_554     S
V1     V2    10.0   .     S
V1     V16    10.0   .     S
V1     V15    10.0   .     S
V2     V5    10.0   1_556     S
V2     V8    10.0   1_545     S
V2     V1    10.0   1_556     S
V2     V15    10.0   1_556     S
V2     V16    10.0   .     S
V3     V5    10.0   .     S
V3     V7    10.0   1_545     S
V3     V4    10.0   .     S
V3     V4    10.0   1_554     S
V3     V11    10.0   1_655     S
V3     V12    10.0   1_654     S
V4     V6    10.0   .     S
V4     V8    10.0   1_545     S
V4     V3    10.0   1_556     S
V4     V12    10.0   1_655     S
V4     V11    10.0   1_655     S
V5     V25    10.0   .     S
V5     V26    10.0   1_554     S
V5     V2    10.0   1_554     S
V5     V6    10.0   .     S
V5     V6    10.0   1_554     S
V6     V26    10.0   .     S
V6     V25    10.0   .     S
V6     V5    10.0   1_556     S
V7     V30    10.0   .     S
V7     V29    10.0   .     S
V7     V1    10.0   1_565     S
V7     V3    10.0   1_565     S
V7     V8    10.0   1_554     S
V7     V8    10.0   .     S
V8     V29    10.0   1_556     S
V8     V30    10.0   .     S
V8     V2    10.0   1_565     S
V8     V4    10.0   1_565     S
V8     V7    10.0   1_556     S
V9     V11    10.0   .     S
V9     V15    10.0   .     S
V9     V10    10.0   1_554     S
V9     V10    10.0   .     S
V9     V19    10.0   .     S
V9     V20    10.0   .     S
V10     V12    10.0   .     S
V10     V16    10.0   .     S
V10     V9    10.0   1_556     S
V10     V20    10.0   .     S
V10     V19    10.0   1_556     S
V11     V3    10.0   1_455     S
V11     V4    10.0   1_455     S
V11     V14    10.0   1_545     S
V11     V12    10.0   1_554     S
V11     V12    10.0   .     S
V12     V4    10.0   1_455     S
V12     V3    10.0   1_456     S
V12     V13    10.0   1_546     S
V12     V11    10.0   1_556     S
V13     V12    10.0   1_564     S
V13     V15    10.0   1_565     S
V13     V14    10.0   .     S
V13     V14    10.0   1_554     S
V13     V22    10.0   1_554     S
V13     V21    10.0   .     S
V14     V11    10.0   1_565     S
V14     V16    10.0   1_565     S
V14     V13    10.0   1_556     S
V14     V21    10.0   .     S
V14     V22    10.0   .     S
V15     V2    10.0   1_554     S
V15     V13    10.0   1_545     S
V15     V16    10.0   .     S
V15     V16    10.0   1_554     S
V16     V14    10.0   1_545     S
V16     V15    10.0   1_556     S
V17     V32    10.0   .     S
V17     V31    10.0   .     S
V17     V20    10.0   .     S
V17     V21    10.0   .     S
V17     V18    10.0   1_554     S
V17     V18    10.0   .     S
V18     V31    10.0   1_556     S
V18     V32    10.0   .     S
V18     V19    10.0   1_556     S
V18     V22    10.0   .     S
V18     V17    10.0   1_556     S
V19     V10    10.0   1_554     S
V19     V18    10.0   1_554     S
V19     V23    10.0   .     S
V19     V20    10.0   .     S
V19     V20    10.0   1_554     S
V20     V24    10.0   .     S
V20     V19    10.0   1_556     S
V21     V23    10.0   .     S
V21     V22    10.0   1_554     S
V21     V22    10.0   .     S
V22     V13    10.0   1_556     S
V22     V24    10.0   .     S
V22     V21    10.0   1_556     S
V23     V24    10.0   .     S
V23     V24    10.0   1_554     S
V23     V27    10.0   1_455     S
V23     V28    10.0   1_454     S
V24     V23    10.0   1_556     S
V24     V28    10.0   1_455     S
V24     V27    10.0   1_455     S
V25     V27    10.0   .     S
V25     V31    10.0   .     S
V25     V26    10.0   1_554     S
V25     V26    10.0   .     S
V26     V5    10.0   1_556     S
V26     V28    10.0   .     S
V26     V32    10.0   .     S
V26     V25    10.0   1_556     S
V27     V23    10.0   1_655     S
V27     V24    10.0   1_655     S
V27     V30    10.0   .     S
V27     V28    10.0   1_554     S
V27     V28    10.0   .     S
V28     V24    10.0   1_655     S
V28     V23    10.0   1_656     S
V28     V29    10.0   1_556     S
V28     V27    10.0   1_556     S
V29     V8    10.0   1_554     S
V29     V28    10.0   1_554     S
V29     V31    10.0   .     S
V29     V30    10.0   .     S
V29     V30    10.0   1_554     S
V30     V32    10.0   .     S
V30     V29    10.0   1_556     S
V31     V18    10.0   1_554     S
V31     V32    10.0   .     S
V31     V32    10.0   1_554     S
V32     V31    10.0   1_556     S
