data_snr
_audit_creation_date              2020-02-04
_audit_creation_method            'Pymatgen'
_symmetry_space_group_name_H-M    'P1'
_symmetry_Int_Tables_number       1
loop_
_symmetry_equiv_pos_as_xyz
  x,y,z
_cell_length_a                    39.3482
_cell_length_b                    39.3482
_cell_length_c                    39.3482
_cell_angle_alpha                 90.0
_cell_angle_beta                 90.0
_cell_angle_gamma                 90.0
loop_
_atom_site_label
_atom_site_type_symbol
_atom_site_fract_x
_atom_site_fract_y
_atom_site_fract_z
V1     V     0.3421   0.2096   0.4142
V2     V     0.1579   0.0858   0.2904
V3     V     0.4142   0.3421   0.2096
V4     V     0.2904   0.1579   0.0858
V5     V     0.2096   0.4142   0.3421
V6     V     0.0858   0.2904   0.1579
V7     V     0.3421   0.5858   0.2096
V8     V     0.1579   0.7096   0.0858
V9     V     0.2096   0.6579   0.4142
V10     V     0.0858   0.8421   0.2904
V11     V     0.4142   0.7904   0.3421
V12     V     0.2904   0.9142   0.1579
V13     V     0.2096   0.5858   0.6579
V14     V     0.0858   0.7096   0.8421
V15     V     0.3421   0.7904   0.5858
V16     V     0.1579   0.9142   0.7096
V17     V     0.4142   0.6579   0.7904
V18     V     0.2904   0.8421   0.9142
V19     V     0.5858   0.2096   0.3421
V20     V     0.7096   0.0858   0.1579
V21     V     0.6579   0.4142   0.2096
V22     V     0.8421   0.2904   0.0858
V23     V     0.7904   0.3421   0.4142
V24     V     0.9142   0.1579   0.2904
V25     V     0.5858   0.6579   0.2096
V26     V     0.7096   0.8421   0.0858
V27     V     0.7904   0.5858   0.3421
V28     V     0.9142   0.7096   0.1579
V29     V     0.6579   0.7904   0.4142
V30     V     0.8421   0.9142   0.2904
V31     V     0.6579   0.5858   0.7904
V32     V     0.8421   0.7096   0.9142
V33     V     0.5858   0.7904   0.6579
V34     V     0.7096   0.9142   0.8421
V35     V     0.7904   0.6579   0.5858
V36     V     0.9142   0.8421   0.7096
V37     V     0.2096   0.3421   0.5858
V38     V     0.0858   0.1579   0.7096
V39     V     0.4142   0.2096   0.6579
V40     V     0.2904   0.0858   0.8421
V41     V     0.3421   0.4142   0.7904
V42     V     0.1579   0.2904   0.9142
V43     V     0.6579   0.2096   0.5858
V44     V     0.8421   0.0858   0.7096
V45     V     0.5858   0.3421   0.7904
V46     V     0.7096   0.1579   0.9142
V47     V     0.7904   0.4142   0.6579
V48     V     0.9142   0.2904   0.8421
loop_
_geom_bond_atom_site_label_1
_geom_bond_atom_site_label_2
_geom_bond_distance
_geom_bond_site_symmetry_2
_ccdc_geom_bond_type
V1     V19    10.0   .     S
V1     V39    10.0   .     S
V1     V37    10.0   .     S
V1     V2    10.0   .     S
V1     V5    10.0   .     S
V1     V3    10.0   .     S
V2     V6    10.0   .     S
V2     V4    10.0   .     S
V2     V12    10.0   1_545     S
V2     V10    10.0   1_545     S
V2     V24    10.0   1_455     S
V3     V7    10.0   .     S
V3     V21    10.0   .     S
V3     V19    10.0   .     S
V3     V4    10.0   .     S
V3     V5    10.0   .     S
V4     V6    10.0   .     S
V4     V12    10.0   1_545     S
V4     V42    10.0   1_554     S
V4     V40    10.0   1_554     S
V5     V7    10.0   .     S
V5     V9    10.0   .     S
V5     V37    10.0   .     S
V5     V6    10.0   .     S
V6     V24    10.0   1_455     S
V6     V22    10.0   1_455     S
V6     V42    10.0   1_554     S
V7     V25    10.0   .     S
V7     V8    10.0   .     S
V7     V11    10.0   .     S
V7     V9    10.0   .     S
V8     V10    10.0   .     S
V8     V12    10.0   .     S
V8     V18    10.0   1_554     S
V8     V14    10.0   1_554     S
V8     V28    10.0   1_455     S
V9     V15    10.0   .     S
V9     V13    10.0   .     S
V9     V10    10.0   .     S
V9     V11    10.0   .     S
V10     V12    10.0   .     S
V10     V2    10.0   1_565     S
V10     V30    10.0   1_455     S
V10     V28    10.0   1_455     S
V11     V29    10.0   .     S
V11     V25    10.0   .     S
V11     V15    10.0   .     S
V11     V12    10.0   .     S
V12     V4    10.0   1_565     S
V12     V2    10.0   1_565     S
V12     V18    10.0   1_554     S
V13     V41    10.0   .     S
V13     V37    10.0   .     S
V13     V14    10.0   .     S
V13     V15    10.0   .     S
V13     V17    10.0   .     S
V14     V16    10.0   .     S
V14     V18    10.0   .     S
V14     V8    10.0   1_556     S
V14     V36    10.0   1_455     S
V14     V32    10.0   1_455     S
V15     V33    10.0   .     S
V15     V17    10.0   .     S
V15     V16    10.0   .     S
V16     V40    10.0   1_565     S
V16     V38    10.0   1_565     S
V16     V18    10.0   .     S
V16     V36    10.0   1_455     S
V17     V41    10.0   .     S
V17     V31    10.0   .     S
V17     V33    10.0   .     S
V17     V18    10.0   .     S
V18     V40    10.0   1_565     S
V18     V12    10.0   1_556     S
V18     V8    10.0   1_556     S
V19     V43    10.0   .     S
V19     V20    10.0   .     S
V19     V21    10.0   .     S
V19     V23    10.0   .     S
V20     V22    10.0   .     S
V20     V24    10.0   .     S
V20     V30    10.0   1_545     S
V20     V26    10.0   1_545     S
V20     V46    10.0   1_554     S
V21     V27    10.0   .     S
V21     V25    10.0   .     S
V21     V22    10.0   .     S
V21     V23    10.0   .     S
V22     V24    10.0   .     S
V22     V6    10.0   1_655     S
V22     V48    10.0   1_554     S
V22     V46    10.0   1_554     S
V23     V27    10.0   .     S
V23     V47    10.0   .     S
V23     V43    10.0   .     S
V23     V24    10.0   .     S
V24     V2    10.0   1_655     S
V24     V6    10.0   1_655     S
V24     V30    10.0   1_545     S
V25     V26    10.0   .     S
V25     V27    10.0   .     S
V25     V29    10.0   .     S
V26     V20    10.0   1_565     S
V26     V30    10.0   .     S
V26     V28    10.0   .     S
V26     V32    10.0   1_554     S
V26     V34    10.0   1_554     S
V27     V35    10.0   .     S
V27     V29    10.0   .     S
V27     V28    10.0   .     S
V28     V30    10.0   .     S
V28     V10    10.0   1_655     S
V28     V8    10.0   1_655     S
V28     V32    10.0   1_554     S
V29     V33    10.0   .     S
V29     V35    10.0   .     S
V29     V30    10.0   .     S
V30     V24    10.0   1_565     S
V30     V20    10.0   1_565     S
V30     V10    10.0   1_655     S
V31     V45    10.0   .     S
V31     V47    10.0   .     S
V31     V33    10.0   .     S
V31     V35    10.0   .     S
V31     V32    10.0   .     S
V32     V14    10.0   1_655     S
V32     V28    10.0   1_556     S
V32     V26    10.0   1_556     S
V32     V36    10.0   .     S
V32     V34    10.0   .     S
V33     V35    10.0   .     S
V33     V34    10.0   .     S
V34     V26    10.0   1_556     S
V34     V36    10.0   .     S
V34     V46    10.0   1_565     S
V34     V44    10.0   1_565     S
V35     V47    10.0   .     S
V35     V36    10.0   .     S
V36     V16    10.0   1_655     S
V36     V14    10.0   1_655     S
V36     V44    10.0   1_565     S
V37     V38    10.0   .     S
V37     V41    10.0   .     S
V37     V39    10.0   .     S
V38     V16    10.0   1_545     S
V38     V40    10.0   .     S
V38     V42    10.0   .     S
V38     V48    10.0   1_455     S
V38     V44    10.0   1_455     S
V39     V45    10.0   .     S
V39     V43    10.0   .     S
V39     V40    10.0   .     S
V39     V41    10.0   .     S
V40     V18    10.0   1_545     S
V40     V16    10.0   1_545     S
V40     V42    10.0   .     S
V40     V4    10.0   1_556     S
V41     V45    10.0   .     S
V41     V42    10.0   .     S
V42     V6    10.0   1_556     S
V42     V4    10.0   1_556     S
V42     V48    10.0   1_455     S
V43     V44    10.0   .     S
V43     V45    10.0   .     S
V43     V47    10.0   .     S
V44     V34    10.0   1_545     S
V44     V36    10.0   1_545     S
V44     V48    10.0   .     S
V44     V46    10.0   .     S
V44     V38    10.0   1_655     S
V45     V47    10.0   .     S
V45     V46    10.0   .     S
V46     V34    10.0   1_545     S
V46     V22    10.0   1_556     S
V46     V20    10.0   1_556     S
V46     V48    10.0   .     S
V47     V48    10.0   .     S
V48     V22    10.0   1_556     S
V48     V42    10.0   1_655     S
V48     V38    10.0   1_655     S
