data_snvx
_audit_creation_date              2020-02-04
_audit_creation_method            'Pymatgen'
_symmetry_space_group_name_H-M    'P1'
_symmetry_Int_Tables_number       1
loop_
_symmetry_equiv_pos_as_xyz
  x,y,z
_cell_length_a                    31.2208
_cell_length_b                    31.2208
_cell_length_c                    31.2208
_cell_angle_alpha                 90.0
_cell_angle_beta                 90.0
_cell_angle_gamma                 90.0
loop_
_atom_site_label
_atom_site_type_symbol
_atom_site_fract_x
_atom_site_fract_y
_atom_site_fract_z
V1     V     0.8655   0.6014   0.2974
V2     V     0.1345   0.7026   0.3986
V3     V     0.6014   0.2974   0.8655
V4     V     0.7026   0.3986   0.1345
V5     V     0.2974   0.8655   0.6014
V6     V     0.3986   0.1345   0.7026
V7     V     0.3986   0.8655   0.2974
V8     V     0.2974   0.1345   0.3986
V9     V     0.8655   0.3986   0.7026
V10     V     0.1345   0.2974   0.6014
V11     V     0.7026   0.6014   0.8655
V12     V     0.6014   0.7026   0.1345
V13     V     0.8655   0.2974   0.3986
V14     V     0.1345   0.3986   0.2974
V15     V     0.3986   0.7026   0.8655
V16     V     0.2974   0.6014   0.1345
V17     V     0.6014   0.8655   0.7026
V18     V     0.7026   0.1345   0.6014
V19     V     0.2974   0.3986   0.8655
V20     V     0.3986   0.2974   0.1345
V21     V     0.7026   0.8655   0.3986
V22     V     0.6014   0.1345   0.2974
V23     V     0.8655   0.7026   0.6014
V24     V     0.1345   0.6014   0.7026
loop_
_geom_bond_atom_site_label_1
_geom_bond_atom_site_label_2
_geom_bond_distance
_geom_bond_site_symmetry_2
_ccdc_geom_bond_type
V1     V13    10.003   .     S
V1     V23    10.003   .     S
V1     V4    9.585   .     S
V1     V14    10.518   1_655     S
V1     V12    10.19   .     S
V1     V21    10.19   .     S
V1     V2    9.511   1_655     S
V2     V14    10.003   .     S
V2     V24    10.003   .     S
V2     V5    9.585   .     S
V2     V23    10.518   1_455     S
V2     V16    10.19   .     S
V2     V7    10.19   .     S
V2     V1    9.511   1_455     S
V3     V11    10.003   .     S
V3     V19    10.003   .     S
V3     V6    9.585   .     S
V3     V20    10.518   1_556     S
V3     V9    10.19   .     S
V3     V18    10.19   .     S
V3     V4    9.511   1_556     S
V4     V12    10.003   .     S
V4     V20    10.003   .     S
V4     V11    10.518   1_554     S
V4     V22    10.19   .     S
V4     V13    10.19   .     S
V4     V3    9.511   1_554     S
V5     V17    10.003   .     S
V5     V7    10.003   .     S
V5     V8    10.518   1_565     S
V5     V15    10.19   .     S
V5     V24    10.19   .     S
V5     V6    9.511   1_565     S
V6     V18    10.003   .     S
V6     V8    10.003   .     S
V6     V17    10.518   1_545     S
V6     V19    10.19   .     S
V6     V10    10.19   .     S
V6     V5    9.511   1_545     S
V7     V21    10.003   .     S
V7     V12    9.585   .     S
V7     V22    10.518   1_565     S
V7     V16    10.19   .     S
V7     V8    9.511   1_565     S
V8     V22    10.003   .     S
V8     V10    9.585   .     S
V8     V5    10.518   1_545     S
V8     V14    10.19   .     S
V8     V20    10.19   .     S
V8     V7    9.511   1_545     S
V9     V23    10.003   .     S
V9     V13    10.003   .     S
V9     V11    9.585   .     S
V9     V24    10.518   1_655     S
V9     V18    10.19   .     S
V9     V10    9.511   1_655     S
V10     V24    10.003   .     S
V10     V14    10.003   .     S
V10     V13    10.518   1_455     S
V10     V19    10.19   .     S
V10     V9    9.511   1_455     S
V11     V15    10.003   .     S
V11     V4    10.518   1_556     S
V11     V17    10.19   .     S
V11     V23    10.19   .     S
V11     V12    9.511   1_556     S
V12     V16    10.003   .     S
V12     V15    10.518   1_554     S
V12     V21    10.19   .     S
V12     V11    9.511   1_554     S
V13     V18    9.585   .     S
V13     V10    10.518   1_655     S
V13     V22    10.19   .     S
V13     V14    9.511   1_655     S
V14     V16    9.585   .     S
V14     V1    10.518   1_455     S
V14     V20    10.19   .     S
V14     V13    9.511   1_455     S
V15     V19    10.003   .     S
V15     V17    9.585   .     S
V15     V12    10.518   1_556     S
V15     V24    10.19   .     S
V15     V16    9.511   1_556     S
V16     V20    10.003   .     S
V16     V19    10.518   1_554     S
V16     V15    9.511   1_554     S
V17     V21    10.003   .     S
V17     V6    10.518   1_565     S
V17     V23    10.19   .     S
V17     V18    9.511   1_565     S
V18     V22    10.003   .     S
V18     V21    10.518   1_545     S
V18     V17    9.511   1_545     S
V19     V24    9.585   .     S
V19     V16    10.518   1_556     S
V19     V20    9.511   1_556     S
V20     V22    9.585   .     S
V20     V3    10.518   1_554     S
V20     V19    9.511   1_554     S
V21     V23    9.585   .     S
V21     V18    10.518   1_565     S
V21     V22    9.511   1_565     S
V22     V7    10.518   1_545     S
V22     V21    9.511   1_545     S
V23     V2    10.518   1_655     S
V23     V24    9.511   1_655     S
V24     V9    10.518   1_455     S
V24     V23    9.511   1_455     S
