data_soca
_audit_creation_date              2020-02-04
_audit_creation_method            'Pymatgen'
_symmetry_space_group_name_H-M    'P1'
_symmetry_Int_Tables_number       1
loop_
_symmetry_equiv_pos_as_xyz
  x,y,z
_cell_length_a                    67.14
_cell_length_b                    67.14
_cell_length_c                    67.14
_cell_angle_alpha                 90.0
_cell_angle_beta                 90.0
_cell_angle_gamma                 90.0
loop_
_atom_site_label
_atom_site_type_symbol
_atom_site_fract_x
_atom_site_fract_y
_atom_site_fract_z
Er1     Er     0.8202   0.8202   0.7149
Er2     Er     0.8202   0.7149   0.8202
Er3     Er     0.7149   0.8202   0.8202
Er4     Er     0.6798   0.6798   0.7851
Er5     Er     0.7851   0.6798   0.6798
Er6     Er     0.6798   0.7851   0.6798
V7     V     0.7157   0.0745   0.9255
V8     V     0.7157   0.0745   0.0745
V9     V     0.7157   0.9255   0.0745
V10     V     0.7157   0.9255   0.9255
V11     V     0.0745   0.2843   0.9255
V12     V     0.0745   0.2843   0.0745
V13     V     0.9255   0.2843   0.0745
V14     V     0.9255   0.2843   0.9255
V15     V     0.9255   0.7157   0.0745
V16     V     0.0745   0.7157   0.0745
V17     V     0.0745   0.7157   0.9255
V18     V     0.9255   0.7157   0.9255
V19     V     0.2843   0.9255   0.0745
V20     V     0.2843   0.0745   0.0745
V21     V     0.2843   0.0745   0.9255
V22     V     0.2843   0.9255   0.9255
V23     V     0.9255   0.0745   0.7157
V24     V     0.0745   0.0745   0.7157
V25     V     0.0745   0.9255   0.7157
V26     V     0.9255   0.9255   0.7157
Er27     Er     0.8202   0.8202   0.2851
Er28     Er     0.7149   0.8202   0.1798
Er29     Er     0.8202   0.7149   0.1798
Er30     Er     0.6798   0.7851   0.3202
Er31     Er     0.7851   0.6798   0.3202
Er32     Er     0.6798   0.6798   0.2149
Er33     Er     0.8202   0.2851   0.8202
Er34     Er     0.7149   0.1798   0.8202
Er35     Er     0.8202   0.1798   0.7149
Er36     Er     0.6798   0.3202   0.7851
Er37     Er     0.7851   0.3202   0.6798
Er38     Er     0.6798   0.2149   0.6798
Er39     Er     0.2851   0.1798   0.8202
Er40     Er     0.1798   0.2851   0.8202
Er41     Er     0.1798   0.1798   0.7149
Er42     Er     0.2149   0.3202   0.6798
Er43     Er     0.3202   0.3202   0.7851
Er44     Er     0.3202   0.2149   0.6798
V45     V     0.5745   0.4255   0.7843
V46     V     0.4255   0.4255   0.7843
V47     V     0.4255   0.5745   0.7843
V48     V     0.5745   0.5745   0.7843
Er49     Er     0.2851   0.8202   0.8202
Er50     Er     0.1798   0.8202   0.7149
Er51     Er     0.1798   0.7149   0.8202
Er52     Er     0.3202   0.7851   0.6798
Er53     Er     0.3202   0.6798   0.7851
Er54     Er     0.2149   0.6798   0.6798
Er55     Er     0.1798   0.8202   0.2851
Er56     Er     0.2851   0.8202   0.1798
Er57     Er     0.1798   0.7149   0.1798
Er58     Er     0.3202   0.6798   0.2149
Er59     Er     0.2149   0.6798   0.3202
Er60     Er     0.3202   0.7851   0.3202
V61     V     0.5745   0.7843   0.4255
V62     V     0.4255   0.7843   0.4255
V63     V     0.4255   0.7843   0.5745
V64     V     0.5745   0.7843   0.5745
Er65     Er     0.8202   0.2851   0.1798
Er66     Er     0.8202   0.1798   0.2851
Er67     Er     0.7149   0.1798   0.1798
Er68     Er     0.6798   0.3202   0.2149
Er69     Er     0.7851   0.3202   0.3202
Er70     Er     0.6798   0.2149   0.3202
V71     V     0.7843   0.4255   0.5745
V72     V     0.7843   0.4255   0.4255
V73     V     0.7843   0.5745   0.4255
V74     V     0.7843   0.5745   0.5745
V75     V     0.0745   0.9255   0.2843
V76     V     0.0745   0.0745   0.2843
V77     V     0.9255   0.0745   0.2843
V78     V     0.9255   0.9255   0.2843
V79     V     0.2157   0.5745   0.4255
V80     V     0.2157   0.4255   0.4255
V81     V     0.2157   0.4255   0.5745
V82     V     0.2157   0.5745   0.5745
V83     V     0.4255   0.2157   0.5745
V84     V     0.4255   0.2157   0.4255
V85     V     0.5745   0.2157   0.4255
V86     V     0.5745   0.2157   0.5745
Er87     Er     0.1798   0.1798   0.2851
Er88     Er     0.2149   0.3202   0.3202
Er89     Er     0.3202   0.2149   0.3202
Er90     Er     0.2851   0.1798   0.1798
Er91     Er     0.1798   0.2851   0.1798
Er92     Er     0.3202   0.3202   0.2149
V93     V     0.4255   0.5745   0.2157
V94     V     0.4255   0.4255   0.2157
V95     V     0.5745   0.4255   0.2157
V96     V     0.5745   0.5745   0.2157
loop_
_geom_bond_atom_site_label_1
_geom_bond_atom_site_label_2
_geom_bond_distance
_geom_bond_site_symmetry_2
_ccdc_geom_bond_type
Er1     Er6    10.0   .     S
Er1     Er3    10.0   .     S
Er1     Er5    10.0   .     S
Er1     Er2    10.0   .     S
Er1     V26    10.0   .     S
Er2     Er5    10.0   .     S
Er2     Er3    10.0   .     S
Er2     Er4    10.0   .     S
Er2     V18    10.0   .     S
Er3     Er6    10.0   .     S
Er3     Er4    10.0   .     S
Er3     V10    10.0   .     S
Er4     Er6    10.0   .     S
Er4     Er5    10.0   .     S
Er4     V48    10.0   .     S
Er5     Er6    10.0   .     S
Er5     V74    10.0   .     S
Er6     V64    10.0   .     S
V7     V10    10.0   1_545     S
V7     V8    10.0   1_556     S
V7     Er34    10.0   .     S
V8     V7    10.0   1_554     S
V8     V9    10.0   1_545     S
V8     Er67    10.0   .     S
V9     V8    10.0   1_565     S
V9     V10    10.0   1_554     S
V9     Er28    10.0   .     S
V10     V7    10.0   1_565     S
V10     V9    10.0   1_556     S
V11     V14    10.0   1_455     S
V11     V12    10.0   1_556     S
V11     Er40    10.0   .     S
V12     V11    10.0   1_554     S
V12     V13    10.0   1_455     S
V12     Er91    10.0   .     S
V13     V12    10.0   1_655     S
V13     V14    10.0   1_554     S
V13     Er65    10.0   .     S
V14     V11    10.0   1_655     S
V14     V13    10.0   1_556     S
V14     Er33    10.0   .     S
V15     V18    10.0   1_554     S
V15     V16    10.0   1_655     S
V15     Er29    10.0   .     S
V16     V17    10.0   1_554     S
V16     V15    10.0   1_455     S
V16     Er57    10.0   .     S
V17     V16    10.0   1_556     S
V17     V18    10.0   1_455     S
V17     Er51    10.0   .     S
V18     V15    10.0   1_556     S
V18     V17    10.0   1_655     S
V19     V22    10.0   1_554     S
V19     V20    10.0   1_565     S
V19     Er56    10.0   .     S
V20     V21    10.0   1_554     S
V20     V19    10.0   1_545     S
V20     Er90    10.0   .     S
V21     V20    10.0   1_556     S
V21     V22    10.0   1_545     S
V21     Er39    10.0   .     S
V22     V19    10.0   1_556     S
V22     V21    10.0   1_565     S
V22     Er49    10.0   .     S
V23     V26    10.0   1_545     S
V23     V24    10.0   1_655     S
V23     Er35    10.0   .     S
V24     V25    10.0   1_545     S
V24     V23    10.0   1_455     S
V24     Er41    10.0   .     S
V25     V24    10.0   1_565     S
V25     V26    10.0   1_455     S
V25     Er50    10.0   .     S
V26     V23    10.0   1_565     S
V26     V25    10.0   1_655     S
Er27     Er29    10.0   .     S
Er27     Er30    10.0   .     S
Er27     Er31    10.0   .     S
Er27     Er28    10.0   .     S
Er27     V78    10.0   .     S
Er28     Er32    10.0   .     S
Er28     Er29    10.0   .     S
Er28     Er30    10.0   .     S
Er29     Er31    10.0   .     S
Er29     Er32    10.0   .     S
Er30     Er32    10.0   .     S
Er30     Er31    10.0   .     S
Er30     V61    10.0   .     S
Er31     Er32    10.0   .     S
Er31     V73    10.0   .     S
Er32     V96    10.0   .     S
Er33     Er36    10.0   .     S
Er33     Er37    10.0   .     S
Er33     Er35    10.0   .     S
Er33     Er34    10.0   .     S
Er34     Er38    10.0   .     S
Er34     Er35    10.0   .     S
Er34     Er36    10.0   .     S
Er35     Er37    10.0   .     S
Er35     Er38    10.0   .     S
Er36     Er37    10.0   .     S
Er36     Er38    10.0   .     S
Er36     V45    10.0   .     S
Er37     Er38    10.0   .     S
Er37     V71    10.0   .     S
Er38     V86    10.0   .     S
Er39     Er44    10.0   .     S
Er39     Er41    10.0   .     S
Er39     Er43    10.0   .     S
Er39     Er40    10.0   .     S
Er40     Er42    10.0   .     S
Er40     Er41    10.0   .     S
Er40     Er43    10.0   .     S
Er41     Er44    10.0   .     S
Er41     Er42    10.0   .     S
Er42     Er43    10.0   .     S
Er42     Er44    10.0   .     S
Er42     V81    10.0   .     S
Er43     Er44    10.0   .     S
Er43     V46    10.0   .     S
Er44     V83    10.0   .     S
V45     V48    10.0   .     S
V45     V46    10.0   .     S
V46     V47    10.0   .     S
V47     V48    10.0   .     S
V47     Er53    10.0   .     S
Er49     Er51    10.0   .     S
Er49     Er52    10.0   .     S
Er49     Er53    10.0   .     S
Er49     Er50    10.0   .     S
Er50     Er54    10.0   .     S
Er50     Er51    10.0   .     S
Er50     Er52    10.0   .     S
Er51     Er53    10.0   .     S
Er51     Er54    10.0   .     S
Er52     Er53    10.0   .     S
Er52     Er54    10.0   .     S
Er52     V63    10.0   .     S
Er53     Er54    10.0   .     S
Er54     V82    10.0   .     S
Er55     Er59    10.0   .     S
Er55     Er57    10.0   .     S
Er55     Er60    10.0   .     S
Er55     Er56    10.0   .     S
Er55     V75    10.0   .     S
Er56     Er58    10.0   .     S
Er56     Er57    10.0   .     S
Er56     Er60    10.0   .     S
Er57     Er59    10.0   .     S
Er57     Er58    10.0   .     S
Er58     Er60    10.0   .     S
Er58     Er59    10.0   .     S
Er58     V93    10.0   .     S
Er59     Er60    10.0   .     S
Er59     V79    10.0   .     S
Er60     V62    10.0   .     S
V61     V64    10.0   .     S
V61     V62    10.0   .     S
V62     V63    10.0   .     S
V63     V64    10.0   .     S
Er65     Er68    10.0   .     S
Er65     Er67    10.0   .     S
Er65     Er66    10.0   .     S
Er65     Er69    10.0   .     S
Er66     Er70    10.0   .     S
Er66     Er67    10.0   .     S
Er66     Er69    10.0   .     S
Er66     V77    10.0   .     S
Er67     Er70    10.0   .     S
Er67     Er68    10.0   .     S
Er68     Er70    10.0   .     S
Er68     Er69    10.0   .     S
Er68     V95    10.0   .     S
Er69     Er70    10.0   .     S
Er69     V72    10.0   .     S
Er70     V85    10.0   .     S
V71     V74    10.0   .     S
V71     V72    10.0   .     S
V72     V73    10.0   .     S
V73     V74    10.0   .     S
V75     V78    10.0   1_455     S
V75     V76    10.0   1_565     S
V76     V75    10.0   1_545     S
V76     V77    10.0   1_455     S
V76     Er87    10.0   .     S
V77     V76    10.0   1_655     S
V77     V78    10.0   1_545     S
V78     V75    10.0   1_655     S
V78     V77    10.0   1_565     S
V79     V82    10.0   .     S
V79     V80    10.0   .     S
V80     V81    10.0   .     S
V80     Er88    10.0   .     S
V81     V82    10.0   .     S
V83     V86    10.0   .     S
V83     V84    10.0   .     S
V84     V85    10.0   .     S
V84     Er89    10.0   .     S
V85     V86    10.0   .     S
Er87     Er88    10.0   .     S
Er87     Er91    10.0   .     S
Er87     Er89    10.0   .     S
Er87     Er90    10.0   .     S
Er88     Er91    10.0   .     S
Er88     Er92    10.0   .     S
Er88     Er89    10.0   .     S
Er89     Er90    10.0   .     S
Er89     Er92    10.0   .     S
Er90     Er91    10.0   .     S
Er90     Er92    10.0   .     S
Er91     Er92    10.0   .     S
Er92     V94    10.0   .     S
V93     V96    10.0   .     S
V93     V94    10.0   .     S
V94     V95    10.0   .     S
V95     V96    10.0   .     S
