data_sodaa
_audit_creation_date              2020-02-04
_audit_creation_method            'Pymatgen'
_symmetry_space_group_name_H-M    'P1'
_symmetry_Int_Tables_number       1
loop_
_symmetry_equiv_pos_as_xyz
  x,y,z
_cell_length_a                    130.7102
_cell_length_b                    130.7102
_cell_length_c                    130.7102
_cell_angle_alpha                 90.0
_cell_angle_beta                 90.0
_cell_angle_gamma                 90.0
loop_
_atom_site_label
_atom_site_type_symbol
_atom_site_fract_x
_atom_site_fract_y
_atom_site_fract_z
V1     V     0.5763   0.7228   0.9618
V2     V     0.5763   0.7228   0.0382
Er3     Er     0.5382   0.6685   0.0
Er4     Er     0.4618   0.6685   0.0
V5     V     0.4237   0.7228   0.9618
V6     V     0.4237   0.7228   0.0382
Ti7     Ti     0.6688   0.6148   0.0
Ti8     Ti     0.6148   0.6688   0.0
V9     V     0.7228   0.5763   0.9618
V10     V     0.7228   0.5763   0.0382
Er11     Er     0.6685   0.4618   0.0
Er12     Er     0.6685   0.5382   0.0
V13     V     0.7228   0.4237   0.9618
V14     V     0.7228   0.4237   0.0382
Ti15     Ti     0.6688   0.3852   0.0
Ti16     Ti     0.6148   0.3312   0.0
V17     V     0.5763   0.2772   0.9618
V18     V     0.5763   0.2772   0.0382
Er19     Er     0.4618   0.3315   0.0
Er20     Er     0.5382   0.3315   0.0
V21     V     0.4237   0.2772   0.9618
V22     V     0.4237   0.2772   0.0382
Ti23     Ti     0.3312   0.3852   0.0
Ti24     Ti     0.3852   0.3312   0.0
Ti25     Ti     0.3852   0.6688   0.0
Ti26     Ti     0.3312   0.6148   0.0
V27     V     0.2772   0.5763   0.9618
V28     V     0.2772   0.5763   0.0382
Er29     Er     0.3315   0.5382   0.0
Er30     Er     0.3315   0.4618   0.0
V31     V     0.2772   0.4237   0.9618
V32     V     0.2772   0.4237   0.0382
V33     V     0.4618   0.9237   0.7772
V34     V     0.5382   0.9237   0.7772
Er35     Er     0.5   0.9618   0.8315
Er36     Er     0.5   0.0382   0.8315
V37     V     0.5382   0.0763   0.7772
V38     V     0.4618   0.0763   0.7772
Ti39     Ti     0.5   0.8312   0.8852
Ti40     Ti     0.5   0.8852   0.8312
V41     V     0.5382   0.7772   0.9237
V42     V     0.4618   0.7772   0.9237
Er43     Er     0.5   0.8315   0.9618
Er44     Er     0.5   0.8315   0.0382
V45     V     0.4618   0.7772   0.0763
V46     V     0.5382   0.7772   0.0763
Ti47     Ti     0.5   0.1148   0.8312
Ti48     Ti     0.5   0.1688   0.8852
V49     V     0.4618   0.2228   0.9237
V50     V     0.5382   0.2228   0.9237
Er51     Er     0.5   0.1685   0.9618
Er52     Er     0.5   0.1685   0.0382
V53     V     0.5382   0.2228   0.0763
V54     V     0.4618   0.2228   0.0763
Ti55     Ti     0.5   0.1148   0.1688
Ti56     Ti     0.5   0.1688   0.1148
Ti57     Ti     0.5   0.8312   0.1148
Ti58     Ti     0.5   0.8852   0.1688
V59     V     0.5382   0.9237   0.2228
V60     V     0.4618   0.9237   0.2228
Er61     Er     0.5   0.9618   0.1685
Er62     Er     0.5   0.0382   0.1685
V63     V     0.5382   0.0763   0.2228
V64     V     0.4618   0.0763   0.2228
Ti65     Ti     0.6688   0.0   0.3852
Ti66     Ti     0.6148   0.0   0.3312
V67     V     0.5763   0.9618   0.2772
V68     V     0.5763   0.0382   0.2772
Er69     Er     0.5382   0.0   0.3315
Er70     Er     0.4618   0.0   0.3315
V71     V     0.4237   0.9618   0.2772
V72     V     0.4237   0.0382   0.2772
V73     V     0.7228   0.9618   0.5763
V74     V     0.7228   0.0382   0.5763
Er75     Er     0.6685   0.0   0.5382
Er76     Er     0.6685   0.0   0.4618
V77     V     0.7228   0.9618   0.4237
V78     V     0.7228   0.0382   0.4237
Ti79     Ti     0.6148   0.0   0.6688
Ti80     Ti     0.6688   0.0   0.6148
V81     V     0.5763   0.9618   0.7228
V82     V     0.5763   0.0382   0.7228
Er83     Er     0.4618   0.0   0.6685
Er84     Er     0.5382   0.0   0.6685
V85     V     0.4237   0.9618   0.7228
V86     V     0.4237   0.0382   0.7228
Ti87     Ti     0.3312   0.0   0.3852
Ti88     Ti     0.3852   0.0   0.3312
Ti89     Ti     0.3852   0.0   0.6688
Ti90     Ti     0.3312   0.0   0.6148
V91     V     0.2772   0.9618   0.5763
V92     V     0.2772   0.0382   0.5763
Er93     Er     0.3315   0.0   0.5382
Er94     Er     0.3315   0.0   0.4618
V95     V     0.2772   0.9618   0.4237
V96     V     0.2772   0.0382   0.4237
V97     V     0.9237   0.7772   0.4618
V98     V     0.9237   0.7772   0.5382
Er99     Er     0.9618   0.8315   0.5
Er100     Er     0.0382   0.8315   0.5
V101     V     0.0763   0.7772   0.5382
V102     V     0.0763   0.7772   0.4618
Ti103     Ti     0.8312   0.8852   0.5
Ti104     Ti     0.8852   0.8312   0.5
V105     V     0.7772   0.9237   0.5382
V106     V     0.7772   0.9237   0.4618
Er107     Er     0.8315   0.9618   0.5
Er108     Er     0.8315   0.0382   0.5
V109     V     0.7772   0.0763   0.4618
V110     V     0.7772   0.0763   0.5382
Ti111     Ti     0.1148   0.8312   0.5
Ti112     Ti     0.1688   0.8852   0.5
V113     V     0.2228   0.9237   0.4618
V114     V     0.2228   0.9237   0.5382
Er115     Er     0.1685   0.9618   0.5
Er116     Er     0.1685   0.0382   0.5
V117     V     0.2228   0.0763   0.5382
V118     V     0.2228   0.0763   0.4618
Ti119     Ti     0.1148   0.1688   0.5
Ti120     Ti     0.1688   0.1148   0.5
Ti121     Ti     0.8312   0.1148   0.5
Ti122     Ti     0.8852   0.1688   0.5
V123     V     0.9237   0.2228   0.5382
V124     V     0.9237   0.2228   0.4618
Er125     Er     0.9618   0.1685   0.5
Er126     Er     0.0382   0.1685   0.5
V127     V     0.0763   0.2228   0.5382
V128     V     0.0763   0.2228   0.4618
V129     V     0.9237   0.5382   0.7772
V130     V     0.9237   0.4618   0.7772
Er131     Er     0.9618   0.5   0.8315
Er132     Er     0.0382   0.5   0.8315
V133     V     0.0763   0.4618   0.7772
V134     V     0.0763   0.5382   0.7772
Ti135     Ti     0.8312   0.5   0.8852
Ti136     Ti     0.8852   0.5   0.8312
V137     V     0.7772   0.4618   0.9237
V138     V     0.7772   0.5382   0.9237
Er139     Er     0.8315   0.5   0.9618
Er140     Er     0.8315   0.5   0.0382
V141     V     0.7772   0.5382   0.0763
V142     V     0.7772   0.4618   0.0763
Ti143     Ti     0.1148   0.5   0.8312
Ti144     Ti     0.1688   0.5   0.8852
V145     V     0.2228   0.5382   0.9237
V146     V     0.2228   0.4618   0.9237
Er147     Er     0.1685   0.5   0.9618
Er148     Er     0.1685   0.5   0.0382
V149     V     0.2228   0.4618   0.0763
V150     V     0.2228   0.5382   0.0763
Ti151     Ti     0.1148   0.5   0.1688
Ti152     Ti     0.1688   0.5   0.1148
Ti153     Ti     0.8312   0.5   0.1148
Ti154     Ti     0.8852   0.5   0.1688
V155     V     0.9237   0.4618   0.2228
V156     V     0.9237   0.5382   0.2228
Er157     Er     0.9618   0.5   0.1685
Er158     Er     0.0382   0.5   0.1685
V159     V     0.0763   0.5382   0.2228
V160     V     0.0763   0.4618   0.2228
V161     V     0.9618   0.5763   0.7228
V162     V     0.0382   0.5763   0.7228
Er163     Er     0.0   0.5382   0.6685
Er164     Er     0.0   0.4618   0.6685
V165     V     0.9618   0.4237   0.7228
V166     V     0.0382   0.4237   0.7228
Ti167     Ti     0.0   0.6688   0.6148
Ti168     Ti     0.0   0.6148   0.6688
V169     V     0.9618   0.7228   0.5763
V170     V     0.0382   0.7228   0.5763
Er171     Er     0.0   0.6685   0.4618
Er172     Er     0.0   0.6685   0.5382
V173     V     0.9618   0.7228   0.4237
V174     V     0.0382   0.7228   0.4237
Ti175     Ti     0.0   0.6688   0.3852
Ti176     Ti     0.0   0.6148   0.3312
V177     V     0.9618   0.5763   0.2772
V178     V     0.0382   0.5763   0.2772
Er179     Er     0.0   0.4618   0.3315
Er180     Er     0.0   0.5382   0.3315
V181     V     0.9618   0.4237   0.2772
V182     V     0.0382   0.4237   0.2772
Ti183     Ti     0.0   0.3312   0.3852
Ti184     Ti     0.0   0.3852   0.3312
Ti185     Ti     0.0   0.3852   0.6688
Ti186     Ti     0.0   0.3312   0.6148
V187     V     0.9618   0.2772   0.5763
V188     V     0.0382   0.2772   0.5763
Er189     Er     0.0   0.3315   0.4618
Er190     Er     0.0   0.3315   0.5382
V191     V     0.9618   0.2772   0.4237
V192     V     0.0382   0.2772   0.4237
loop_
_geom_bond_atom_site_label_1
_geom_bond_atom_site_label_2
_geom_bond_distance
_geom_bond_site_symmetry_2
_ccdc_geom_bond_type
V1     V2    9.999   1_556     S
V1     Ti8    10.0   1_556     S
V1     Er3    10.0   1_556     S
V1     V41    10.001   .     S
V2     V1    9.999   1_554     S
V2     Ti8    10.0   .     S
V2     Er3    10.0   .     S
V2     V46    10.001   .     S
Er3     V1    10.0   1_554     S
Er3     Er4    9.999   .     S
Er3     Ti8    10.001   .     S
Er4     Ti25    10.001   .     S
Er4     V5    10.0   1_554     S
Er4     V6    10.0   .     S
V5     V6    9.999   1_556     S
V5     Ti25    10.0   1_556     S
V5     Er4    10.0   1_556     S
V5     V42    10.001   .     S
V6     V5    9.999   1_554     S
V6     Ti25    10.0   .     S
V6     V45    10.001   .     S
Ti7     Ti8    9.999   .     S
Ti7     V10    10.0   .     S
Ti7     V9    10.0   1_554     S
Ti7     Er12    10.001   .     S
Ti8     V1    10.0   1_554     S
V9     V10    9.999   1_556     S
V9     Ti7    10.0   1_556     S
V9     Er12    10.0   1_556     S
V9     V138    10.001   .     S
V10     V9    9.999   1_554     S
V10     Er12    10.0   .     S
V10     V141    10.001   .     S
Er11     Er12    9.999   .     S
Er11     Ti15    10.001   .     S
Er11     V13    10.0   1_554     S
Er11     V14    10.0   .     S
Er12     V9    10.0   1_554     S
V13     V14    9.999   1_556     S
V13     Ti15    10.0   1_556     S
V13     Er11    10.0   1_556     S
V13     V137    10.001   .     S
V14     V13    9.999   1_554     S
V14     Ti15    10.0   .     S
V14     V142    10.001   .     S
Ti15     V13    10.0   1_554     S
Ti15     Ti16    9.999   .     S
Ti16     V18    10.0   .     S
Ti16     V17    10.0   1_554     S
Ti16     Er20    10.001   .     S
V17     V18    9.999   1_556     S
V17     Ti16    10.0   1_556     S
V17     Er20    10.0   1_556     S
V17     V50    10.001   .     S
V18     V17    9.999   1_554     S
V18     Er20    10.0   .     S
V18     V53    10.001   .     S
Er19     Er20    9.999   .     S
Er19     Ti24    10.001   .     S
Er19     V22    10.0   .     S
Er19     V21    10.0   1_554     S
Er20     V17    10.0   1_554     S
V21     V22    9.999   1_556     S
V21     Ti24    10.0   1_556     S
V21     Er19    10.0   1_556     S
V21     V49    10.001   .     S
V22     V21    9.999   1_554     S
V22     Ti24    10.0   .     S
V22     V54    10.001   .     S
Ti23     Ti24    9.999   .     S
Ti23     Er30    10.001   .     S
Ti23     V32    10.0   .     S
Ti23     V31    10.0   1_554     S
Ti24     V21    10.0   1_554     S
Ti25     V5    10.0   1_554     S
Ti25     Ti26    9.999   .     S
Ti26     V27    10.0   1_554     S
Ti26     V28    10.0   .     S
Ti26     Er29    10.001   .     S
V27     V28    9.999   1_556     S
V27     Ti26    10.0   1_556     S
V27     Er29    10.0   1_556     S
V27     V145    10.001   .     S
V28     V27    9.999   1_554     S
V28     Er29    10.0   .     S
V28     V150    10.001   .     S
Er29     V27    10.0   1_554     S
Er29     Er30    9.999   .     S
Er30     V32    10.0   .     S
Er30     V31    10.0   1_554     S
V31     V32    9.999   1_556     S
V31     Ti23    10.0   1_556     S
V31     Er30    10.0   1_556     S
V31     V146    10.001   .     S
V32     V31    9.999   1_554     S
V32     V149    10.001   .     S
V33     V34    9.999   .     S
V33     Ti40    10.0   .     S
V33     Er35    10.0   .     S
V33     V85    10.001   .     S
V34     Ti40    10.0   .     S
V34     Er35    10.0   .     S
V34     V81    10.001   .     S
Er35     Er36    9.999   1_565     S
Er35     Ti40    10.001   .     S
Er36     Er35    9.999   1_545     S
Er36     Ti47    10.001   .     S
Er36     V37    10.0   .     S
Er36     V38    10.0   .     S
V37     V38    9.999   .     S
V37     Ti47    10.0   .     S
V37     V82    10.001   .     S
V38     Ti47    10.0   .     S
V38     V86    10.001   .     S
Ti39     Ti40    9.999   .     S
Ti39     V41    10.0   .     S
Ti39     V42    10.0   .     S
Ti39     Er43    10.001   .     S
V41     V42    9.999   .     S
V41     Er43    10.0   .     S
V42     Er43    10.0   .     S
Er43     Er44    9.999   1_556     S
Er44     Er43    9.999   1_554     S
Er44     Ti57    10.001   .     S
Er44     V45    10.0   .     S
Er44     V46    10.0   .     S
V45     V46    9.999   .     S
V45     Ti57    10.0   .     S
V46     Ti57    10.0   .     S
Ti47     Ti48    9.999   .     S
Ti48     V49    10.0   .     S
Ti48     V50    10.0   .     S
Ti48     Er51    10.001   .     S
V49     V50    9.999   .     S
V49     Er51    10.0   .     S
V50     Er51    10.0   .     S
Er51     Er52    9.999   1_556     S
Er52     Er51    9.999   1_554     S
Er52     Ti56    10.001   .     S
Er52     V53    10.0   .     S
Er52     V54    10.0   .     S
V53     V54    9.999   .     S
V53     Ti56    10.0   .     S
V54     Ti56    10.0   .     S
Ti55     Ti56    9.999   .     S
Ti55     Er62    10.001   .     S
Ti55     V64    10.0   .     S
Ti55     V63    10.0   .     S
Ti57     Ti58    9.999   .     S
Ti58     V59    10.0   .     S
Ti58     V60    10.0   .     S
Ti58     Er61    10.001   .     S
V59     V60    9.999   .     S
V59     Er61    10.0   .     S
V59     V67    10.001   .     S
V60     Er61    10.0   .     S
V60     V71    10.001   .     S
Er61     Er62    9.999   1_565     S
Er62     Er61    9.999   1_545     S
Er62     V64    10.0   .     S
Er62     V63    10.0   .     S
V63     V64    9.999   .     S
V63     V68    10.001   .     S
V64     V72    10.001   .     S
Ti65     Ti66    9.999   .     S
Ti65     Er76    10.001   .     S
Ti65     V78    10.0   .     S
Ti65     V77    10.0   1_545     S
Ti66     V68    10.0   .     S
Ti66     V67    10.0   1_545     S
Ti66     Er69    10.001   .     S
V67     V68    9.999   1_565     S
V67     Ti66    10.0   1_565     S
V67     Er69    10.0   1_565     S
V68     V67    9.999   1_545     S
V68     Er69    10.0   .     S
Er69     V67    10.0   1_545     S
Er69     Er70    9.999   .     S
Er70     Ti88    10.001   .     S
Er70     V71    10.0   1_545     S
Er70     V72    10.0   .     S
V71     V72    9.999   1_565     S
V71     Ti88    10.0   1_565     S
V71     Er70    10.0   1_565     S
V72     V71    9.999   1_545     S
V72     Ti88    10.0   .     S
V73     V74    9.999   1_565     S
V73     Ti80    10.0   1_565     S
V73     Er75    10.0   1_565     S
V73     V105    10.001   .     S
V74     V73    9.999   1_545     S
V74     Ti80    10.0   .     S
V74     Er75    10.0   .     S
V74     V110    10.001   .     S
Er75     V73    10.0   1_545     S
Er75     Er76    9.999   .     S
Er75     Ti80    10.001   .     S
Er76     V77    10.0   1_545     S
Er76     V78    10.0   .     S
V77     V78    9.999   1_565     S
V77     Ti65    10.0   1_565     S
V77     Er76    10.0   1_565     S
V77     V106    10.001   .     S
V78     V77    9.999   1_545     S
V78     V109    10.001   .     S
Ti79     Ti80    9.999   .     S
Ti79     V82    10.0   .     S
Ti79     V81    10.0   1_545     S
Ti79     Er84    10.001   .     S
Ti80     V73    10.0   1_545     S
V81     V82    9.999   1_565     S
V81     Ti79    10.0   1_565     S
V81     Er84    10.0   1_565     S
V82     V81    9.999   1_545     S
V82     Er84    10.0   .     S
Er83     Er84    9.999   .     S
Er83     Ti89    10.001   .     S
Er83     V85    10.0   1_545     S
Er83     V86    10.0   .     S
Er84     V81    10.0   1_545     S
V85     V86    9.999   1_565     S
V85     Ti89    10.0   1_565     S
V85     Er83    10.0   1_565     S
V86     V85    9.999   1_545     S
V86     Ti89    10.0   .     S
Ti87     Ti88    9.999   .     S
Ti87     Er94    10.001   .     S
Ti87     V95    10.0   1_545     S
Ti87     V96    10.0   .     S
Ti88     V71    10.0   1_545     S
Ti89     V85    10.0   1_545     S
Ti89     Ti90    9.999   .     S
Ti90     V92    10.0   .     S
Ti90     V91    10.0   1_545     S
Ti90     Er93    10.001   .     S
V91     V92    9.999   1_565     S
V91     Ti90    10.0   1_565     S
V91     Er93    10.0   1_565     S
V91     V114    10.001   .     S
V92     V91    9.999   1_545     S
V92     Er93    10.0   .     S
V92     V117    10.001   .     S
Er93     V91    10.0   1_545     S
Er93     Er94    9.999   .     S
Er94     V95    10.0   1_545     S
Er94     V96    10.0   .     S
V95     V96    9.999   1_565     S
V95     Ti87    10.0   1_565     S
V95     Er94    10.0   1_565     S
V95     V113    10.001   .     S
V96     V95    9.999   1_545     S
V96     V118    10.001   .     S
V97     V98    9.999   .     S
V97     Ti104    10.0   .     S
V97     Er99    10.0   .     S
V97     V173    10.001   .     S
V98     Ti104    10.0   .     S
V98     Er99    10.0   .     S
V98     V169    10.001   .     S
Er99     Er100    9.999   1_655     S
Er99     Ti104    10.001   .     S
Er100     Er99    9.999   1_455     S
Er100     Ti111    10.001   .     S
Er100     V101    10.0   .     S
Er100     V102    10.0   .     S
V101     V102    9.999   .     S
V101     Ti111    10.0   .     S
V101     V170    10.001   .     S
V102     Ti111    10.0   .     S
V102     V174    10.001   .     S
Ti103     Ti104    9.999   .     S
Ti103     V105    10.0   .     S
Ti103     V106    10.0   .     S
Ti103     Er107    10.001   .     S
V105     V106    9.999   .     S
V105     Er107    10.0   .     S
V106     Er107    10.0   .     S
Er107     Er108    9.999   1_565     S
Er108     Er107    9.999   1_545     S
Er108     Ti121    10.001   .     S
Er108     V109    10.0   .     S
Er108     V110    10.0   .     S
V109     V110    9.999   .     S
V109     Ti121    10.0   .     S
V110     Ti121    10.0   .     S
Ti111     Ti112    9.999   .     S
Ti112     V113    10.0   .     S
Ti112     V114    10.0   .     S
Ti112     Er115    10.001   .     S
V113     V114    9.999   .     S
V113     Er115    10.0   .     S
V114     Er115    10.0   .     S
Er115     Er116    9.999   1_565     S
Er116     Er115    9.999   1_545     S
Er116     Ti120    10.001   .     S
Er116     V117    10.0   .     S
Er116     V118    10.0   .     S
V117     V118    9.999   .     S
V117     Ti120    10.0   .     S
V118     Ti120    10.0   .     S
Ti119     Ti120    9.999   .     S
Ti119     Er126    10.001   .     S
Ti119     V128    10.0   .     S
Ti119     V127    10.0   .     S
Ti121     Ti122    9.999   .     S
Ti122     V123    10.0   .     S
Ti122     V124    10.0   .     S
Ti122     Er125    10.001   .     S
V123     V124    9.999   .     S
V123     Er125    10.0   .     S
V123     V187    10.001   .     S
V124     Er125    10.0   .     S
V124     V191    10.001   .     S
Er125     Er126    9.999   1_655     S
Er126     Er125    9.999   1_455     S
Er126     V128    10.0   .     S
Er126     V127    10.0   .     S
V127     V128    9.999   .     S
V127     V188    10.001   .     S
V128     V192    10.001   .     S
V129     V130    9.999   .     S
V129     Ti136    10.0   .     S
V129     Er131    10.0   .     S
V129     V161    10.001   .     S
V130     Ti136    10.0   .     S
V130     Er131    10.0   .     S
V130     V165    10.001   .     S
Er131     Er132    9.999   1_655     S
Er131     Ti136    10.001   .     S
Er132     Er131    9.999   1_455     S
Er132     Ti143    10.001   .     S
Er132     V133    10.0   .     S
Er132     V134    10.0   .     S
V133     V134    9.999   .     S
V133     Ti143    10.0   .     S
V133     V166    10.001   .     S
V134     Ti143    10.0   .     S
V134     V162    10.001   .     S
Ti135     Ti136    9.999   .     S
Ti135     V137    10.0   .     S
Ti135     V138    10.0   .     S
Ti135     Er139    10.001   .     S
V137     V138    9.999   .     S
V137     Er139    10.0   .     S
V138     Er139    10.0   .     S
Er139     Er140    9.999   1_556     S
Er140     Er139    9.999   1_554     S
Er140     Ti153    10.001   .     S
Er140     V141    10.0   .     S
Er140     V142    10.0   .     S
V141     V142    9.999   .     S
V141     Ti153    10.0   .     S
V142     Ti153    10.0   .     S
Ti143     Ti144    9.999   .     S
Ti144     V145    10.0   .     S
Ti144     V146    10.0   .     S
Ti144     Er147    10.001   .     S
V145     V146    9.999   .     S
V145     Er147    10.0   .     S
V146     Er147    10.0   .     S
Er147     Er148    9.999   1_556     S
Er148     Er147    9.999   1_554     S
Er148     Ti152    10.001   .     S
Er148     V149    10.0   .     S
Er148     V150    10.0   .     S
V149     V150    9.999   .     S
V149     Ti152    10.0   .     S
V150     Ti152    10.0   .     S
Ti151     Ti152    9.999   .     S
Ti151     Er158    10.001   .     S
Ti151     V159    10.0   .     S
Ti151     V160    10.0   .     S
Ti153     Ti154    9.999   .     S
Ti154     V155    10.0   .     S
Ti154     V156    10.0   .     S
Ti154     Er157    10.001   .     S
V155     V156    9.999   .     S
V155     Er157    10.0   .     S
V155     V181    10.001   .     S
V156     Er157    10.0   .     S
V156     V177    10.001   .     S
Er157     Er158    9.999   1_655     S
Er158     Er157    9.999   1_455     S
Er158     V159    10.0   .     S
Er158     V160    10.0   .     S
V159     V160    9.999   .     S
V159     V178    10.001   .     S
V160     V182    10.001   .     S
V161     V162    9.999   1_655     S
V161     Ti168    10.0   1_655     S
V161     Er163    10.0   1_655     S
V162     V161    9.999   1_455     S
V162     Ti168    10.0   .     S
V162     Er163    10.0   .     S
Er163     V161    10.0   1_455     S
Er163     Er164    9.999   .     S
Er163     Ti168    10.001   .     S
Er164     Ti185    10.001   .     S
Er164     V165    10.0   1_455     S
Er164     V166    10.0   .     S
V165     V166    9.999   1_655     S
V165     Ti185    10.0   1_655     S
V165     Er164    10.0   1_655     S
V166     V165    9.999   1_455     S
V166     Ti185    10.0   .     S
Ti167     Ti168    9.999   .     S
Ti167     V170    10.0   .     S
Ti167     V169    10.0   1_455     S
Ti167     Er172    10.001   .     S
Ti168     V161    10.0   1_455     S
V169     V170    9.999   1_655     S
V169     Ti167    10.0   1_655     S
V169     Er172    10.0   1_655     S
V170     V169    9.999   1_455     S
V170     Er172    10.0   .     S
Er171     Er172    9.999   .     S
Er171     Ti175    10.001   .     S
Er171     V173    10.0   1_455     S
Er171     V174    10.0   .     S
Er172     V169    10.0   1_455     S
V173     V174    9.999   1_655     S
V173     Ti175    10.0   1_655     S
V173     Er171    10.0   1_655     S
V174     V173    9.999   1_455     S
V174     Ti175    10.0   .     S
Ti175     V173    10.0   1_455     S
Ti175     Ti176    9.999   .     S
Ti176     V178    10.0   .     S
Ti176     V177    10.0   1_455     S
Ti176     Er180    10.001   .     S
V177     V178    9.999   1_655     S
V177     Ti176    10.0   1_655     S
V177     Er180    10.0   1_655     S
V178     V177    9.999   1_455     S
V178     Er180    10.0   .     S
Er179     Er180    9.999   .     S
Er179     Ti184    10.001   .     S
Er179     V181    10.0   1_455     S
Er179     V182    10.0   .     S
Er180     V177    10.0   1_455     S
V181     V182    9.999   1_655     S
V181     Ti184    10.0   1_655     S
V181     Er179    10.0   1_655     S
V182     V181    9.999   1_455     S
V182     Ti184    10.0   .     S
Ti183     Ti184    9.999   .     S
Ti183     Er189    10.001   .     S
Ti183     V192    10.0   .     S
Ti183     V191    10.0   1_455     S
Ti184     V181    10.0   1_455     S
Ti185     V165    10.0   1_455     S
Ti185     Ti186    9.999   .     S
Ti186     V187    10.0   1_455     S
Ti186     V188    10.0   .     S
Ti186     Er190    10.001   .     S
V187     V188    9.999   1_655     S
V187     Ti186    10.0   1_655     S
V187     Er190    10.0   1_655     S
V188     V187    9.999   1_455     S
V188     Er190    10.0   .     S
Er189     Er190    9.999   .     S
Er189     V192    10.0   .     S
Er189     V191    10.0   1_455     S
Er190     V187    10.0   1_455     S
V191     V192    9.999   1_655     S
V191     Ti183    10.0   1_655     S
V191     Er189    10.0   1_655     S
V192     V191    9.999   1_455     S
