data_sodg
_audit_creation_date              2020-02-04
_audit_creation_method            'Pymatgen'
_symmetry_space_group_name_H-M    'P1'
_symmetry_Int_Tables_number       1
loop_
_symmetry_equiv_pos_as_xyz
  x,y,z
_cell_length_a                    64.0082
_cell_length_b                    64.0082
_cell_length_c                    64.0082
_cell_angle_alpha                 90.0
_cell_angle_beta                 90.0
_cell_angle_gamma                 90.0
loop_
_atom_site_label
_atom_site_type_symbol
_atom_site_fract_x
_atom_site_fract_y
_atom_site_fract_z
V1     V     0.4238   0.3161   0.0174
V2     V     0.5762   0.3161   0.9826
V3     V     0.4826   0.1839   0.0762
V4     V     0.5174   0.1839   0.9238
V5     V     0.3161   0.5762   0.0174
V6     V     0.3161   0.4238   0.9826
V7     V     0.1839   0.5174   0.0762
V8     V     0.1839   0.4826   0.9238
V9     V     0.3161   0.0174   0.4238
V10     V     0.3161   0.9826   0.5762
V11     V     0.1839   0.0762   0.4826
V12     V     0.1839   0.9238   0.5174
V13     V     0.5762   0.0174   0.3161
V14     V     0.4238   0.9826   0.3161
V15     V     0.5174   0.0762   0.1839
V16     V     0.4826   0.9238   0.1839
V17     V     0.5762   0.6839   0.0174
V18     V     0.4238   0.6839   0.9826
V19     V     0.5174   0.8161   0.0762
V20     V     0.4826   0.8161   0.9238
V21     V     0.5762   0.9826   0.6839
V22     V     0.4238   0.0174   0.6839
V23     V     0.4826   0.0762   0.8161
V24     V     0.5174   0.9238   0.8161
V25     V     0.6839   0.0174   0.5762
V26     V     0.6839   0.9826   0.4238
V27     V     0.8161   0.0762   0.5174
V28     V     0.8161   0.9238   0.4826
V29     V     0.9826   0.6839   0.5762
V30     V     0.0174   0.6839   0.4238
V31     V     0.0762   0.8161   0.4826
V32     V     0.9238   0.8161   0.5174
V33     V     0.0174   0.5762   0.6839
V34     V     0.9826   0.4238   0.6839
V35     V     0.0762   0.5174   0.8161
V36     V     0.9238   0.4826   0.8161
V37     V     0.6839   0.4238   0.0174
V38     V     0.6839   0.5762   0.9826
V39     V     0.8161   0.4826   0.0762
V40     V     0.8161   0.5174   0.9238
V41     V     0.9826   0.3161   0.4238
V42     V     0.0174   0.3161   0.5762
V43     V     0.0762   0.1839   0.5174
V44     V     0.9238   0.1839   0.4826
V45     V     0.9826   0.5762   0.3161
V46     V     0.0174   0.4238   0.3161
V47     V     0.0762   0.4826   0.1839
V48     V     0.9238   0.5174   0.1839
loop_
_geom_bond_atom_site_label_1
_geom_bond_atom_site_label_2
_geom_bond_distance
_geom_bond_site_symmetry_2
_ccdc_geom_bond_type
V1     V2    10.0   1_554     S
V1     V3    10.0   .     S
V1     V6    10.0   1_554     S
V2     V1    10.0   1_556     S
V2     V4    10.0   .     S
V2     V37    10.0   1_556     S
V3     V4    10.0   1_554     S
V3     V15    10.0   .     S
V4     V3    10.0   1_556     S
V4     V23    10.0   .     S
V5     V6    10.0   1_554     S
V5     V7    10.0   .     S
V5     V18    10.0   1_554     S
V6     V5    10.0   1_556     S
V6     V8    10.0   .     S
V6     V1    10.0   1_556     S
V7     V8    10.0   1_554     S
V7     V47    10.0   .     S
V8     V7    10.0   1_556     S
V8     V35    10.0   .     S
V9     V10    10.0   1_545     S
V9     V11    10.0   .     S
V9     V14    10.0   1_545     S
V10     V9    10.0   1_565     S
V10     V12    10.0   .     S
V10     V22    10.0   1_565     S
V11     V12    10.0   1_545     S
V11     V43    10.0   .     S
V12     V11    10.0   1_565     S
V12     V31    10.0   .     S
V13     V14    10.0   1_545     S
V13     V15    10.0   .     S
V13     V26    10.0   1_545     S
V14     V13    10.0   1_565     S
V14     V16    10.0   .     S
V14     V9    10.0   1_565     S
V15     V16    10.0   1_545     S
V16     V15    10.0   1_565     S
V16     V19    10.0   .     S
V17     V18    10.0   1_554     S
V17     V19    10.0   .     S
V17     V38    10.0   1_554     S
V18     V5    10.0   1_556     S
V18     V17    10.0   1_556     S
V18     V20    10.0   .     S
V19     V20    10.0   1_554     S
V20     V19    10.0   1_556     S
V20     V24    10.0   .     S
V21     V22    10.0   1_565     S
V21     V24    10.0   .     S
V21     V25    10.0   1_565     S
V22     V10    10.0   1_545     S
V22     V21    10.0   1_545     S
V22     V23    10.0   .     S
V23     V24    10.0   1_545     S
V24     V23    10.0   1_565     S
V25     V26    10.0   1_545     S
V25     V27    10.0   .     S
V25     V21    10.0   1_545     S
V26     V13    10.0   1_565     S
V26     V25    10.0   1_565     S
V26     V28    10.0   .     S
V27     V28    10.0   1_545     S
V27     V44    10.0   .     S
V28     V27    10.0   1_565     S
V28     V32    10.0   .     S
V29     V30    10.0   1_655     S
V29     V32    10.0   .     S
V29     V33    10.0   1_655     S
V30     V29    10.0   1_455     S
V30     V31    10.0   .     S
V30     V45    10.0   1_455     S
V31     V32    10.0   1_455     S
V32     V31    10.0   1_655     S
V33     V34    10.0   1_455     S
V33     V35    10.0   .     S
V33     V29    10.0   1_455     S
V34     V33    10.0   1_655     S
V34     V36    10.0   .     S
V34     V42    10.0   1_655     S
V35     V36    10.0   1_455     S
V36     V35    10.0   1_655     S
V36     V40    10.0   .     S
V37     V2    10.0   1_554     S
V37     V38    10.0   1_554     S
V37     V39    10.0   .     S
V38     V37    10.0   1_556     S
V38     V40    10.0   .     S
V38     V17    10.0   1_556     S
V39     V40    10.0   1_554     S
V39     V48    10.0   .     S
V40     V39    10.0   1_556     S
V41     V42    10.0   1_655     S
V41     V44    10.0   .     S
V41     V46    10.0   1_655     S
V42     V41    10.0   1_455     S
V42     V43    10.0   .     S
V42     V34    10.0   1_455     S
V43     V44    10.0   1_455     S
V44     V43    10.0   1_655     S
V45     V46    10.0   1_655     S
V45     V48    10.0   .     S
V45     V30    10.0   1_655     S
V46     V45    10.0   1_455     S
V46     V47    10.0   .     S
V46     V41    10.0   1_455     S
V47     V48    10.0   1_455     S
V48     V47    10.0   1_655     S
