data_sodh
_audit_creation_date              2020-02-04
_audit_creation_method            'Pymatgen'
_symmetry_space_group_name_H-M    'P1'
_symmetry_Int_Tables_number       1
loop_
_symmetry_equiv_pos_as_xyz
  x,y,z
_cell_length_a                    65.2394
_cell_length_b                    65.2394
_cell_length_c                    65.2394
_cell_angle_alpha                 90.0
_cell_angle_beta                 90.0
_cell_angle_gamma                 90.0
loop_
_atom_site_label
_atom_site_type_symbol
_atom_site_fract_x
_atom_site_fract_y
_atom_site_fract_z
V1     V     0.5708   0.8208   0.2206
V2     V     0.6792   0.9292   0.2206
V3     V     0.3208   0.7794   0.0708
V4     V     0.4292   0.7794   0.1792
V5     V     0.2794   0.8208   0.9292
V6     V     0.2794   0.9292   0.8208
V7     V     0.3208   0.0708   0.7794
V8     V     0.4292   0.1792   0.7794
V9     V     0.6792   0.2206   0.9292
V10     V     0.5708   0.2206   0.8208
V11     V     0.7206   0.0708   0.1792
V12     V     0.7206   0.1792   0.0708
V13     V     0.3208   0.7206   0.4292
V14     V     0.4292   0.7206   0.3208
V15     V     0.2794   0.5708   0.6792
V16     V     0.2794   0.6792   0.5708
V17     V     0.4292   0.3208   0.7206
V18     V     0.3208   0.4292   0.7206
V19     V     0.6792   0.2794   0.5708
V20     V     0.5708   0.2794   0.6792
V21     V     0.7206   0.4292   0.3208
V22     V     0.7206   0.3208   0.4292
V23     V     0.6792   0.5708   0.2794
V24     V     0.5708   0.6792   0.2794
V25     V     0.7794   0.0708   0.3208
V26     V     0.7794   0.1792   0.4292
V27     V     0.9292   0.8208   0.2794
V28     V     0.8208   0.9292   0.2794
V29     V     0.0708   0.7794   0.3208
V30     V     0.1792   0.7794   0.4292
V31     V     0.2206   0.9292   0.6792
V32     V     0.2206   0.8208   0.5708
V33     V     0.9292   0.2206   0.6792
V34     V     0.8208   0.2206   0.5708
V35     V     0.0708   0.1792   0.7206
V36     V     0.1792   0.0708   0.7206
V37     V     0.7794   0.3208   0.0708
V38     V     0.7794   0.4292   0.1792
V39     V     0.9292   0.2794   0.8208
V40     V     0.8208   0.2794   0.9292
V41     V     0.0708   0.3208   0.7794
V42     V     0.1792   0.4292   0.7794
V43     V     0.2206   0.6792   0.9292
V44     V     0.2206   0.5708   0.8208
V45     V     0.8208   0.5708   0.2206
V46     V     0.9292   0.6792   0.2206
V47     V     0.0708   0.7206   0.1792
V48     V     0.1792   0.7206   0.0708
loop_
_geom_bond_atom_site_label_1
_geom_bond_atom_site_label_2
_geom_bond_distance
_geom_bond_site_symmetry_2
_ccdc_geom_bond_type
V1     V2    9.999   .     S
V1     V4    10.0   .     S
V1     V24    10.001   .     S
V2     V11    10.0   1_565     S
V2     V28    10.001   .     S
V3     V4    9.999   .     S
V3     V5    10.0   1_554     S
V3     V48    10.001   .     S
V4     V14    10.001   .     S
V5     V6    9.999   .     S
V5     V3    10.0   1_556     S
V5     V43    10.001   .     S
V6     V7    10.0   1_565     S
V6     V31    10.001   .     S
V7     V8    9.999   .     S
V7     V6    10.0   1_545     S
V7     V36    10.001   .     S
V8     V10    10.0   .     S
V8     V17    10.001   .     S
V9     V10    9.999   .     S
V9     V12    10.0   1_556     S
V9     V40    10.001   .     S
V10     V20    10.001   .     S
V11     V2    10.0   1_545     S
V11     V12    9.999   .     S
V11     V25    10.001   .     S
V12     V9    10.0   1_554     S
V12     V37    10.001   .     S
V13     V14    9.999   .     S
V13     V16    10.0   .     S
V13     V30    10.001   .     S
V14     V24    10.0   .     S
V15     V16    9.999   .     S
V15     V18    10.0   .     S
V15     V44    10.001   .     S
V16     V32    10.001   .     S
V17     V18    9.999   .     S
V17     V20    10.0   .     S
V18     V42    10.001   .     S
V19     V20    9.999   .     S
V19     V22    10.0   .     S
V19     V34    10.001   .     S
V21     V22    9.999   .     S
V21     V23    10.0   .     S
V21     V38    10.001   .     S
V22     V26    10.001   .     S
V23     V24    9.999   .     S
V23     V45    10.001   .     S
V25     V26    9.999   .     S
V25     V28    10.0   1_545     S
V26     V34    10.0   .     S
V27     V28    9.999   .     S
V27     V29    10.0   1_655     S
V27     V46    10.001   .     S
V28     V25    10.0   1_565     S
V29     V30    9.999   .     S
V29     V27    10.0   1_455     S
V29     V47    10.001   .     S
V30     V32    10.0   .     S
V31     V32    9.999   .     S
V31     V36    10.0   1_565     S
V33     V34    9.999   .     S
V33     V35    10.0   1_655     S
V33     V39    10.001   .     S
V35     V36    9.999   .     S
V35     V33    10.0   1_455     S
V35     V41    10.001   .     S
V36     V31    10.0   1_545     S
V37     V38    9.999   .     S
V37     V40    10.0   1_554     S
V38     V45    10.0   .     S
V39     V40    9.999   .     S
V39     V41    10.0   1_655     S
V40     V37    10.0   1_556     S
V41     V42    9.999   .     S
V41     V39    10.0   1_455     S
V42     V44    10.0   .     S
V43     V44    9.999   .     S
V43     V48    10.0   1_556     S
V45     V46    9.999   .     S
V46     V47    10.0   1_655     S
V47     V48    9.999   .     S
V47     V46    10.0   1_455     S
V48     V43    10.0   1_554     S
