data_soh
_audit_creation_date              2020-02-04
_audit_creation_method            'Pymatgen'
_symmetry_space_group_name_H-M    'P1'
_symmetry_Int_Tables_number       1
loop_
_symmetry_equiv_pos_as_xyz
  x,y,z
_cell_length_a                    54.3724
_cell_length_b                    24.3966
_cell_length_c                    27.1871
_cell_angle_alpha                 90.0
_cell_angle_beta                 90.0
_cell_angle_gamma                 90.0
loop_
_atom_site_label
_atom_site_type_symbol
_atom_site_fract_x
_atom_site_fract_y
_atom_site_fract_z
V1     V     0.7875   0.8122   0.2
V2     V     0.7875   0.9378   0.55
V3     V     0.7125   0.1878   0.3
V4     V     0.7125   0.0622   0.95
V5     V     0.7125   0.5622   0.45
V6     V     0.7125   0.6878   0.8
V7     V     0.7875   0.4378   0.05
V8     V     0.7875   0.3122   0.7
V9     V     0.9625   0.3122   0.05
V10     V     0.9625   0.4378   0.7
V11     V     0.0375   0.1878   0.45
V12     V     0.0375   0.0622   0.8
V13     V     0.9625   0.9378   0.2
V14     V     0.9625   0.8122   0.55
V15     V     0.0375   0.5622   0.3
V16     V     0.0375   0.6878   0.95
V17     V     0.2875   0.3122   0.2
V18     V     0.2875   0.4378   0.55
V19     V     0.2125   0.0622   0.45
V20     V     0.2125   0.1878   0.8
V21     V     0.2875   0.9378   0.05
V22     V     0.2875   0.8122   0.7
V23     V     0.2125   0.6878   0.3
V24     V     0.2125   0.5622   0.95
V25     V     0.4625   0.8122   0.05
V26     V     0.4625   0.9378   0.7
V27     V     0.5375   0.6878   0.45
V28     V     0.5375   0.5622   0.8
V29     V     0.4625   0.4378   0.2
V30     V     0.4625   0.3122   0.55
V31     V     0.5375   0.0622   0.3
V32     V     0.5375   0.1878   0.95
loop_
_geom_bond_atom_site_label_1
_geom_bond_atom_site_label_2
_geom_bond_distance
_geom_bond_site_symmetry_2
_ccdc_geom_bond_type
V1     V2    10.0   .     S
V1     V5    10.0   .     S
V1     V4    10.0   1_564     S
V1     V13    10.0   .     S
V1     V7    10.0   .     S
V2     V6    10.0   .     S
V2     V3    10.0   1_565     S
V2     V14    10.0   .     S
V2     V8    10.0   1_565     S
V3     V4    10.0   1_554     S
V3     V7    10.0   .     S
V3     V2    10.0   1_545     S
V3     V31    10.0   .     S
V3     V5    10.0   .     S
V4     V1    10.0   1_546     S
V4     V3    10.0   1_556     S
V4     V8    10.0   .     S
V4     V32    10.0   .     S
V4     V6    10.0   1_545     S
V5     V6    10.0   .     S
V5     V8    10.0   .     S
V5     V27    10.0   .     S
V6     V7    10.0   1_556     S
V6     V28    10.0   .     S
V6     V4    10.0   1_565     S
V7     V8    10.0   1_554     S
V7     V6    10.0   1_554     S
V7     V9    10.0   .     S
V8     V7    10.0   1_556     S
V8     V10    10.0   .     S
V8     V2    10.0   1_545     S
V9     V10    10.0   1_554     S
V9     V12    10.0   1_654     S
V9     V15    10.0   1_655     S
V9     V13    10.0   1_545     S
V10     V9    10.0   1_556     S
V10     V11    10.0   1_655     S
V10     V16    10.0   1_655     S
V10     V14    10.0   .     S
V11     V12    10.0   .     S
V11     V10    10.0   1_455     S
V11     V13    10.0   1_445     S
V11     V19    10.0   .     S
V11     V15    10.0   .     S
V12     V9    10.0   1_456     S
V12     V14    10.0   1_445     S
V12     V20    10.0   .     S
V12     V16    10.0   1_545     S
V13     V11    10.0   1_665     S
V13     V14    10.0   .     S
V13     V16    10.0   1_654     S
V13     V9    10.0   1_565     S
V14     V12    10.0   1_665     S
V14     V15    10.0   1_655     S
V15     V16    10.0   1_554     S
V15     V9    10.0   1_455     S
V15     V14    10.0   1_455     S
V15     V23    10.0   .     S
V16     V15    10.0   1_556     S
V16     V10    10.0   1_455     S
V16     V13    10.0   1_456     S
V16     V24    10.0   .     S
V16     V12    10.0   1_565     S
V17     V18    10.0   .     S
V17     V24    10.0   1_554     S
V17     V19    10.0   .     S
V17     V29    10.0   .     S
V17     V21    10.0   1_545     S
V18     V20    10.0   .     S
V18     V23    10.0   .     S
V18     V30    10.0   .     S
V18     V22    10.0   .     S
V19     V20    10.0   .     S
V19     V22    10.0   1_545     S
V19     V23    10.0   1_545     S
V20     V21    10.0   1_546     S
V20     V24    10.0   .     S
V21     V22    10.0   1_554     S
V21     V23    10.0   .     S
V21     V20    10.0   1_564     S
V21     V25    10.0   .     S
V21     V17    10.0   1_565     S
V22     V21    10.0   1_556     S
V22     V24    10.0   .     S
V22     V19    10.0   1_565     S
V22     V26    10.0   .     S
V23     V24    10.0   1_554     S
V23     V19    10.0   1_565     S
V24     V17    10.0   1_556     S
V24     V23    10.0   1_556     S
V25     V26    10.0   1_554     S
V25     V28    10.0   1_554     S
V25     V31    10.0   1_565     S
V25     V29    10.0   .     S
V26     V25    10.0   1_556     S
V26     V27    10.0   .     S
V26     V32    10.0   1_565     S
V26     V30    10.0   1_565     S
V27     V28    10.0   .     S
V27     V29    10.0   .     S
V27     V31    10.0   1_565     S
V28     V25    10.0   1_556     S
V28     V30    10.0   .     S
V28     V32    10.0   .     S
V29     V30    10.0   .     S
V29     V32    10.0   1_554     S
V30     V31    10.0   .     S
V30     V26    10.0   1_545     S
V31     V32    10.0   1_554     S
V31     V25    10.0   1_545     S
V31     V27    10.0   1_545     S
V32     V29    10.0   1_556     S
V32     V31    10.0   1_556     S
V32     V26    10.0   1_545     S
