data_sok
_audit_creation_date              2020-02-04
_audit_creation_method            'Pymatgen'
_symmetry_space_group_name_H-M    'P1'
_symmetry_Int_Tables_number       1
loop_
_symmetry_equiv_pos_as_xyz
  x,y,z
_cell_length_a                    66.5956
_cell_length_b                    62.7957
_cell_length_c                    20.0
_cell_angle_alpha                 90.0
_cell_angle_beta                 90.0
_cell_angle_gamma                 90.0
loop_
_atom_site_label
_atom_site_type_symbol
_atom_site_fract_x
_atom_site_fract_y
_atom_site_fract_z
V1     V     0.7999   0.694   0.1875
V2     V     0.7999   0.694   0.6875
V3     V     0.7001   0.806   0.3125
V4     V     0.7001   0.806   0.8125
V5     V     0.4501   0.694   0.4375
V6     V     0.4501   0.694   0.9375
V7     V     0.5499   0.806   0.3125
V8     V     0.5499   0.806   0.8125
V9     V     0.9501   0.694   0.1875
V10     V     0.9501   0.694   0.6875
V11     V     0.0499   0.806   0.0625
V12     V     0.0499   0.806   0.5625
V13     V     0.2999   0.694   0.4375
V14     V     0.2999   0.694   0.9375
V15     V     0.2001   0.806   0.0625
V16     V     0.2001   0.806   0.5625
V17     V     0.7999   0.556   0.4375
V18     V     0.7999   0.556   0.9375
V19     V     0.7001   0.444   0.3125
V20     V     0.7001   0.444   0.8125
V21     V     0.5499   0.444   0.3125
V22     V     0.5499   0.444   0.8125
V23     V     0.4501   0.556   0.1875
V24     V     0.4501   0.556   0.6875
V25     V     0.2001   0.444   0.0625
V26     V     0.2001   0.444   0.5625
V27     V     0.2999   0.556   0.1875
V28     V     0.2999   0.556   0.6875
V29     V     0.9501   0.556   0.4375
V30     V     0.9501   0.556   0.9375
V31     V     0.0499   0.444   0.0625
V32     V     0.0499   0.444   0.5625
V33     V     0.5499   0.944   0.0625
V34     V     0.5499   0.944   0.5625
V35     V     0.4501   0.056   0.4375
V36     V     0.4501   0.056   0.9375
V37     V     0.2001   0.944   0.3125
V38     V     0.2001   0.944   0.8125
V39     V     0.2999   0.056   0.4375
V40     V     0.2999   0.056   0.9375
V41     V     0.9501   0.056   0.1875
V42     V     0.9501   0.056   0.6875
V43     V     0.0499   0.944   0.3125
V44     V     0.0499   0.944   0.8125
V45     V     0.7999   0.056   0.1875
V46     V     0.7999   0.056   0.6875
V47     V     0.7001   0.944   0.0625
V48     V     0.7001   0.944   0.5625
V49     V     0.7999   0.194   0.4375
V50     V     0.7999   0.194   0.9375
V51     V     0.7001   0.306   0.0625
V52     V     0.7001   0.306   0.5625
V53     V     0.5499   0.306   0.0625
V54     V     0.5499   0.306   0.5625
V55     V     0.4501   0.194   0.1875
V56     V     0.4501   0.194   0.6875
V57     V     0.2001   0.306   0.3125
V58     V     0.2001   0.306   0.8125
V59     V     0.2999   0.194   0.1875
V60     V     0.2999   0.194   0.6875
V61     V     0.9501   0.194   0.4375
V62     V     0.9501   0.194   0.9375
V63     V     0.0499   0.306   0.3125
V64     V     0.0499   0.306   0.8125
loop_
_geom_bond_atom_site_label_1
_geom_bond_atom_site_label_2
_geom_bond_distance
_geom_bond_site_symmetry_2
_ccdc_geom_bond_type
V1     V17    10.0   .     S
V1     V18    10.001   1_554     S
V1     V3    10.0   .     S
V1     V9    10.0   .     S
V1     V2    10.0   .     S
V1     V2    10.0   1_554     S
V2     V18    10.0   .     S
V2     V17    10.001   .     S
V2     V4    10.0   .     S
V2     V10    10.0   .     S
V2     V1    10.0   1_556     S
V3     V47    10.0   .     S
V3     V48    10.001   .     S
V3     V7    10.0   .     S
V3     V4    10.0   1_554     S
V3     V4    10.0   .     S
V4     V48    10.0   .     S
V4     V47    10.001   1_556     S
V4     V8    10.0   .     S
V4     V3    10.0   1_556     S
V5     V23    10.0   .     S
V5     V24    10.001   .     S
V5     V7    10.0   .     S
V5     V13    10.0   .     S
V5     V6    10.0   1_554     S
V5     V6    10.0   .     S
V6     V24    10.0   .     S
V6     V23    10.001   1_556     S
V6     V8    10.0   .     S
V6     V14    10.0   .     S
V6     V5    10.0   1_556     S
V7     V34    10.0   .     S
V7     V33    10.001   .     S
V7     V8    10.0   1_554     S
V7     V8    10.0   .     S
V8     V33    10.0   1_556     S
V8     V34    10.001   .     S
V8     V7    10.0   1_556     S
V9     V30    10.0   1_554     S
V9     V29    10.001   .     S
V9     V11    10.0   1_655     S
V9     V10    10.0   .     S
V9     V10    10.0   1_554     S
V10     V29    10.0   .     S
V10     V30    10.001   .     S
V10     V12    10.0   1_655     S
V10     V9    10.0   1_556     S
V11     V43    10.0   .     S
V11     V44    10.001   1_554     S
V11     V9    10.0   1_455     S
V11     V15    10.0   .     S
V11     V12    10.0   .     S
V11     V12    10.0   1_554     S
V12     V44    10.0   .     S
V12     V43    10.001   .     S
V12     V10    10.0   1_455     S
V12     V16    10.0   .     S
V12     V11    10.0   1_556     S
V13     V28    10.0   .     S
V13     V27    10.001   .     S
V13     V16    10.0   .     S
V13     V14    10.0   1_554     S
V13     V14    10.0   .     S
V14     V27    10.0   1_556     S
V14     V28    10.001   .     S
V14     V15    10.0   1_556     S
V14     V13    10.0   1_556     S
V15     V14    10.0   1_554     S
V15     V16    10.0   .     S
V15     V16    10.0   1_554     S
V15     V38    10.0   1_554     S
V15     V37    10.001   .     S
V16     V15    10.0   1_556     S
V16     V37    10.0   .     S
V16     V38    10.001   .     S
V17     V19    10.0   .     S
V17     V29    10.0   .     S
V17     V18    10.0   1_554     S
V17     V18    10.0   .     S
V18     V1    10.001   1_556     S
V18     V20    10.0   .     S
V18     V30    10.0   .     S
V18     V17    10.0   1_556     S
V19     V21    10.0   .     S
V19     V20    10.0   1_554     S
V19     V20    10.0   .     S
V19     V52    10.0   .     S
V19     V51    10.001   .     S
V20     V22    10.0   .     S
V20     V19    10.0   1_556     S
V20     V51    10.0   1_556     S
V20     V52    10.001   .     S
V21     V23    10.0   .     S
V21     V22    10.0   1_554     S
V21     V22    10.0   .     S
V21     V53    10.0   .     S
V21     V54    10.001   .     S
V22     V24    10.0   .     S
V22     V21    10.0   1_556     S
V22     V54    10.0   .     S
V22     V53    10.001   1_556     S
V23     V6    10.001   1_554     S
V23     V27    10.0   .     S
V23     V24    10.0   .     S
V23     V24    10.0   1_554     S
V24     V28    10.0   .     S
V24     V23    10.0   1_556     S
V25     V27    10.0   .     S
V25     V31    10.0   .     S
V25     V26    10.0   .     S
V25     V26    10.0   1_554     S
V25     V57    10.0   .     S
V25     V58    10.001   1_554     S
V26     V28    10.0   .     S
V26     V32    10.0   .     S
V26     V25    10.0   1_556     S
V26     V58    10.0   .     S
V26     V57    10.001   .     S
V27     V14    10.0   1_554     S
V27     V28    10.0   .     S
V27     V28    10.0   1_554     S
V28     V27    10.0   1_556     S
V29     V32    10.0   1_655     S
V29     V30    10.0   1_554     S
V29     V30    10.0   .     S
V30     V9    10.0   1_556     S
V30     V31    10.0   1_656     S
V30     V29    10.0   1_556     S
V31     V30    10.0   1_454     S
V31     V32    10.0   .     S
V31     V32    10.0   1_554     S
V31     V64    10.0   1_554     S
V31     V63    10.001   .     S
V32     V29    10.0   1_455     S
V32     V31    10.0   1_556     S
V32     V63    10.0   .     S
V32     V64    10.001   .     S
V33     V8    10.0   1_554     S
V33     V36    10.0   1_564     S
V33     V47    10.0   .     S
V33     V34    10.0   .     S
V33     V34    10.0   1_554     S
V34     V35    10.0   1_565     S
V34     V48    10.0   .     S
V34     V33    10.0   1_556     S
V35     V34    10.0   1_545     S
V35     V39    10.0   .     S
V35     V36    10.0   1_554     S
V35     V36    10.0   .     S
V35     V56    10.0   .     S
V35     V55    10.001   .     S
V36     V33    10.0   1_546     S
V36     V40    10.0   .     S
V36     V35    10.0   1_556     S
V36     V55    10.0   1_556     S
V36     V56    10.001   .     S
V37     V39    10.0   1_565     S
V37     V43    10.0   .     S
V37     V38    10.0   1_554     S
V37     V38    10.0   .     S
V38     V15    10.0   1_556     S
V38     V40    10.0   1_565     S
V38     V44    10.0   .     S
V38     V37    10.0   1_556     S
V39     V37    10.0   1_545     S
V39     V40    10.0   1_554     S
V39     V40    10.0   .     S
V39     V59    10.0   .     S
V39     V60    10.001   .     S
V40     V38    10.0   1_545     S
V40     V39    10.0   1_556     S
V40     V60    10.0   .     S
V40     V59    10.001   1_556     S
V41     V61    10.0   .     S
V41     V62    10.001   1_554     S
V41     V43    10.0   1_645     S
V41     V45    10.0   .     S
V41     V42    10.0   .     S
V41     V42    10.0   1_554     S
V42     V62    10.0   .     S
V42     V61    10.001   .     S
V42     V44    10.0   1_645     S
V42     V46    10.0   .     S
V42     V41    10.0   1_556     S
V43     V41    10.0   1_465     S
V43     V44    10.0   1_554     S
V43     V44    10.0   .     S
V44     V11    10.001   1_556     S
V44     V42    10.0   1_465     S
V44     V43    10.0   1_556     S
V45     V47    10.0   1_545     S
V45     V46    10.0   .     S
V45     V46    10.0   1_554     S
V45     V50    10.0   1_554     S
V45     V49    10.001   .     S
V46     V48    10.0   1_545     S
V46     V45    10.0   1_556     S
V46     V49    10.0   .     S
V46     V50    10.001   .     S
V47     V4    10.001   1_554     S
V47     V45    10.0   1_565     S
V47     V48    10.0   .     S
V47     V48    10.0   1_554     S
V48     V46    10.0   1_565     S
V48     V47    10.0   1_556     S
V49     V52    10.0   .     S
V49     V61    10.0   .     S
V49     V50    10.0   1_554     S
V49     V50    10.0   .     S
V50     V45    10.0   1_556     S
V50     V51    10.0   1_556     S
V50     V62    10.0   .     S
V50     V49    10.0   1_556     S
V51     V20    10.0   1_554     S
V51     V50    10.0   1_554     S
V51     V53    10.0   .     S
V51     V52    10.0   .     S
V51     V52    10.0   1_554     S
V52     V54    10.0   .     S
V52     V51    10.0   1_556     S
V53     V22    10.001   1_554     S
V53     V55    10.0   .     S
V53     V54    10.0   .     S
V53     V54    10.0   1_554     S
V54     V56    10.0   .     S
V54     V53    10.0   1_556     S
V55     V36    10.0   1_554     S
V55     V59    10.0   .     S
V55     V56    10.0   .     S
V55     V56    10.0   1_554     S
V56     V60    10.0   .     S
V56     V55    10.0   1_556     S
V57     V59    10.0   .     S
V57     V63    10.0   .     S
V57     V58    10.0   1_554     S
V57     V58    10.0   .     S
V58     V25    10.001   1_556     S
V58     V60    10.0   .     S
V58     V64    10.0   .     S
V58     V57    10.0   1_556     S
V59     V40    10.001   1_554     S
V59     V60    10.0   .     S
V59     V60    10.0   1_554     S
V60     V59    10.0   1_556     S
V61     V63    10.0   1_655     S
V61     V62    10.0   1_554     S
V61     V62    10.0   .     S
V62     V41    10.001   1_556     S
V62     V64    10.0   1_655     S
V62     V61    10.0   1_556     S
V63     V61    10.0   1_455     S
V63     V64    10.0   1_554     S
V63     V64    10.0   .     S
V64     V31    10.0   1_556     S
V64     V62    10.0   1_455     S
V64     V63    10.0   1_556     S
