data_sos
_audit_creation_date              2020-02-04
_audit_creation_method            'Pymatgen'
_symmetry_space_group_name_H-M    'P1'
_symmetry_Int_Tables_number       1
loop_
_symmetry_equiv_pos_as_xyz
  x,y,z
_cell_length_a                    34.6962
_cell_length_b                    20.0
_cell_length_c                    19.8845
_cell_angle_alpha                 90.0
_cell_angle_beta                 90.0
_cell_angle_gamma                 90.0
loop_
_atom_site_label
_atom_site_type_symbol
_atom_site_fract_x
_atom_site_fract_y
_atom_site_fract_z
V1     V     0.1067   0.4018   0.8629
V2     V     0.1067   0.9018   0.8629
V3     V     0.8933   0.0982   0.1371
V4     V     0.8933   0.5982   0.1371
V5     V     0.1067   0.3482   0.3629
V6     V     0.1067   0.8482   0.3629
V7     V     0.8933   0.1518   0.6371
V8     V     0.8933   0.6518   0.6371
V9     V     0.3933   0.4018   0.3629
V10     V     0.3933   0.9018   0.3629
V11     V     0.6067   0.0982   0.6371
V12     V     0.6067   0.5982   0.6371
V13     V     0.6067   0.1518   0.1371
V14     V     0.6067   0.6518   0.1371
V15     V     0.3933   0.3482   0.8629
V16     V     0.3933   0.8482   0.8629
loop_
_geom_bond_atom_site_label_1
_geom_bond_atom_site_label_2
_geom_bond_distance
_geom_bond_site_symmetry_2
_ccdc_geom_bond_type
V1     V4    10.0   1_456     S
V1     V8    10.0   1_455     S
V1     V5    10.0   1_556     S
V1     V7    10.0   1_455     S
V1     V5    10.0   .     S
V1     V2    10.0   1_545     S
V1     V2    10.0   .     S
V1     V15    10.0   .     S
V2     V3    10.0   1_466     S
V2     V7    10.0   1_465     S
V2     V6    10.0   1_556     S
V2     V8    10.0   1_455     S
V2     V6    10.0   .     S
V2     V1    10.0   1_565     S
V2     V16    10.0   .     S
V3     V2    10.0   1_644     S
V3     V7    10.0   1_554     S
V3     V6    10.0   1_645     S
V3     V5    10.0   1_655     S
V3     V7    10.0   .     S
V3     V4    10.0   .     S
V3     V4    10.0   1_545     S
V3     V13    10.0   .     S
V4     V1    10.0   1_654     S
V4     V8    10.0   1_554     S
V4     V5    10.0   1_655     S
V4     V6    10.0   1_655     S
V4     V8    10.0   .     S
V4     V3    10.0   1_565     S
V4     V14    10.0   .     S
V5     V4    10.0   1_455     S
V5     V1    10.0   1_554     S
V5     V3    10.0   1_455     S
V5     V7    10.0   1_455     S
V5     V6    10.0   1_545     S
V5     V6    10.0   .     S
V5     V9    10.0   .     S
V6     V3    10.0   1_465     S
V6     V2    10.0   1_554     S
V6     V4    10.0   1_455     S
V6     V8    10.0   1_455     S
V6     V5    10.0   1_565     S
V6     V10    10.0   .     S
V7     V2    10.0   1_645     S
V7     V3    10.0   1_556     S
V7     V1    10.0   1_655     S
V7     V5    10.0   1_655     S
V7     V8    10.0   .     S
V7     V8    10.0   1_545     S
V7     V11    10.0   .     S
V8     V1    10.0   1_655     S
V8     V4    10.0   1_556     S
V8     V2    10.0   1_655     S
V8     V6    10.0   1_655     S
V8     V7    10.0   1_565     S
V8     V12    10.0   .     S
V9     V13    10.0   .     S
V9     V15    10.0   1_554     S
V9     V15    10.0   .     S
V9     V12    10.0   .     S
V9     V14    10.0   .     S
V9     V10    10.0   1_545     S
V9     V10    10.0   .     S
V10     V14    10.0   .     S
V10     V16    10.0   1_554     S
V10     V16    10.0   .     S
V10     V11    10.0   1_565     S
V10     V13    10.0   1_565     S
V10     V9    10.0   1_565     S
V11     V15    10.0   .     S
V11     V13    10.0   1_556     S
V11     V16    10.0   1_545     S
V11     V10    10.0   1_545     S
V11     V12    10.0   .     S
V11     V12    10.0   1_545     S
V11     V13    10.0   .     S
V12     V16    10.0   .     S
V12     V14    10.0   1_556     S
V12     V15    10.0   .     S
V12     V11    10.0   1_565     S
V12     V14    10.0   .     S
V13     V11    10.0   1_554     S
V13     V10    10.0   1_545     S
V13     V15    10.0   1_554     S
V13     V14    10.0   .     S
V13     V14    10.0   1_545     S
V14     V12    10.0   1_554     S
V14     V16    10.0   1_554     S
V14     V13    10.0   1_565     S
V15     V9    10.0   1_556     S
V15     V13    10.0   1_556     S
V15     V16    10.0   1_545     S
V15     V16    10.0   .     S
V16     V10    10.0   1_556     S
V16     V11    10.0   1_565     S
V16     V14    10.0   1_556     S
V16     V15    10.0   1_565     S
