data_spl
_audit_creation_date              2020-02-04
_audit_creation_method            'Pymatgen'
_symmetry_space_group_name_H-M    'P1'
_symmetry_Int_Tables_number       1
loop_
_symmetry_equiv_pos_as_xyz
  x,y,z
_cell_length_a                    41.989
_cell_length_b                    41.989
_cell_length_c                    41.989
_cell_angle_alpha                 90.0
_cell_angle_beta                 90.0
_cell_angle_gamma                 90.0
loop_
_atom_site_label
_atom_site_type_symbol
_atom_site_fract_x
_atom_site_fract_y
_atom_site_fract_z
Ti1     Ti     0.7625   0.9875   0.9875
Ti2     Ti     0.7625   0.7625   0.7625
Ti3     Ti     0.9875   0.9875   0.7625
Ti4     Ti     0.2625   0.2625   0.7625
V5     V     0.5   0.25   0.75
Ti6     Ti     0.4875   0.4875   0.7625
Ti7     Ti     0.4875   0.2625   0.9875
V8     V     0.75   0.75   0.0
Er9     Er     0.875   0.375   0.875
Ti10     Ti     0.0125   0.5125   0.7375
Ti11     Ti     0.7375   0.5125   0.0125
Ti12     Ti     0.2625   0.9875   0.4875
Er13     Er     0.125   0.125   0.625
Ti14     Ti     0.9875   0.7625   0.9875
Ti15     Ti     0.2625   0.4875   0.9875
Ti16     Ti     0.2625   0.7625   0.2625
Er17     Er     0.125   0.625   0.125
Ti18     Ti     0.4875   0.7625   0.4875
V19     V     0.25   0.75   0.5
V20     V     0.25   0.5   0.75
V21     V     0.0   0.75   0.75
Ti22     Ti     0.2375   0.7375   0.7375
V23     V     0.5   0.75   0.25
Er24     Er     0.375   0.875   0.875
Ti25     Ti     0.5125   0.0125   0.7375
Ti26     Ti     0.5125   0.7375   0.0125
Ti27     Ti     0.7625   0.4875   0.4875
V28     V     0.75   0.5   0.25
Ti29     Ti     0.7625   0.2625   0.2625
V30     V     0.75   0.0   0.75
Ti31     Ti     0.7375   0.2375   0.7375
V32     V     0.75   0.25   0.5
Er33     Er     0.875   0.875   0.375
Ti34     Ti     0.7375   0.0125   0.5125
Ti35     Ti     0.0125   0.7375   0.5125
Ti36     Ti     0.7375   0.7375   0.2375
Ti37     Ti     0.2375   0.5125   0.5125
V38     V     0.5   0.5   0.0
Ti39     Ti     0.5125   0.5125   0.2375
Er40     Er     0.375   0.375   0.375
Ti41     Ti     0.5125   0.2375   0.5125
V42     V     0.5   0.0   0.5
Ti43     Ti     0.4875   0.9875   0.2625
Ti44     Ti     0.9875   0.4875   0.2625
V45     V     0.0   0.5   0.5
Ti46     Ti     0.9875   0.2625   0.4875
Ti47     Ti     0.2375   0.0125   0.0125
V48     V     0.0   0.0   0.0
Ti49     Ti     0.0125   0.0125   0.2375
Ti50     Ti     0.0125   0.2375   0.0125
V51     V     0.25   0.25   0.0
V52     V     0.25   0.0   0.25
V53     V     0.0   0.25   0.25
Ti54     Ti     0.2375   0.2375   0.2375
Er55     Er     0.625   0.125   0.125
Er56     Er     0.625   0.625   0.625
loop_
_geom_bond_atom_site_label_1
_geom_bond_atom_site_label_2
_geom_bond_distance
_geom_bond_site_symmetry_2
_ccdc_geom_bond_type
Ti1     Er55    10.0   1_566     S
Ti1     V8    10.0   1_556     S
Ti1     V30    10.0   1_565     S
Ti1     V48    10.0   1_666     S
Ti2     Er56    10.0   .     S
Ti2     V8    10.0   1_556     S
Ti2     V21    10.0   1_655     S
Ti2     V30    10.0   1_565     S
Ti3     Er13    10.0   1_665     S
Ti3     V21    10.0   1_655     S
Ti3     V30    10.0   1_565     S
Ti3     V48    10.0   1_666     S
Ti4     V5    10.0   .     S
Ti4     V20    10.0   .     S
Ti4     Er13    10.0   .     S
Ti4     V51    10.0   1_556     S
V5     Ti25    10.0   .     S
V5     Ti7    10.0   .     S
V5     Ti6    10.0   .     S
V5     Ti31    10.0   .     S
V5     Ti41    10.0   .     S
Ti6     Er56    10.0   .     S
Ti6     V38    10.0   1_556     S
Ti6     V20    10.0   .     S
Ti7     Er55    10.0   1_556     S
Ti7     V51    10.0   1_556     S
Ti7     V38    10.0   1_556     S
V8     Ti36    10.0   .     S
V8     Ti1    10.0   1_554     S
V8     Ti2    10.0   1_554     S
V8     Ti14    10.0   1_554     S
V8     Ti26    10.0   .     S
V8     Ti11    10.0   .     S
Er9     Ti31    10.0   .     S
Er9     Ti10    10.0   1_655     S
Er9     Ti11    10.0   1_556     S
Er9     Ti50    10.0   1_656     S
Ti10     Er9    10.0   1_455     S
Ti10     V20    10.0   .     S
Ti10     V21    10.0   .     S
Ti10     V45    10.0   .     S
Ti11     Er9    10.0   1_554     S
Ti11     V28    10.0   .     S
Ti11     V38    10.0   .     S
Ti12     Er13    10.0   1_565     S
Ti12     V19    10.0   .     S
Ti12     V52    10.0   1_565     S
Ti12     V42    10.0   1_565     S
Er13     Ti3    10.0   1_445     S
Er13     Ti12    10.0   1_545     S
Er13     Ti46    10.0   1_455     S
Ti14     V8    10.0   1_556     S
Ti14     Er17    10.0   1_656     S
Ti14     V21    10.0   1_655     S
Ti14     V48    10.0   1_666     S
Ti15     V51    10.0   1_556     S
Ti15     Er17    10.0   1_556     S
Ti15     V20    10.0   .     S
Ti15     V38    10.0   1_556     S
Ti16     Er17    10.0   .     S
Ti16     V52    10.0   1_565     S
Ti16     V19    10.0   .     S
Ti16     V23    10.0   .     S
Er17     Ti14    10.0   1_454     S
Er17     Ti15    10.0   1_554     S
Er17     Ti44    10.0   1_455     S
Ti18     V19    10.0   .     S
Ti18     V23    10.0   .     S
Ti18     Er56    10.0   .     S
Ti18     V42    10.0   1_565     S
V19     Ti35    10.0   .     S
V19     Ti22    10.0   .     S
V19     Ti37    10.0   .     S
V20     Ti22    10.0   .     S
V20     Ti37    10.0   .     S
V21     Ti14    10.0   1_455     S
V21     Ti2    10.0   1_455     S
V21     Ti3    10.0   1_455     S
V21     Ti22    10.0   .     S
V21     Ti35    10.0   .     S
Ti22     Er24    10.0   .     S
V23     Ti43    10.0   .     S
V23     Ti26    10.0   .     S
V23     Ti39    10.0   .     S
V23     Ti36    10.0   .     S
Er24     Ti25    10.0   1_565     S
Er24     Ti26    10.0   1_556     S
Er24     Ti47    10.0   1_566     S
Ti25     Er24    10.0   1_545     S
Ti25     V30    10.0   .     S
Ti25     V42    10.0   .     S
Ti26     Er24    10.0   1_554     S
Ti26     V38    10.0   .     S
Ti27     V32    10.0   .     S
Ti27     Er56    10.0   .     S
Ti27     V28    10.0   .     S
Ti27     V45    10.0   1_655     S
V28     Ti44    10.0   .     S
V28     Ti29    10.0   .     S
V28     Ti39    10.0   .     S
V28     Ti36    10.0   .     S
Ti29     V32    10.0   .     S
Ti29     Er55    10.0   .     S
Ti29     V53    10.0   1_655     S
V30     Ti1    10.0   1_545     S
V30     Ti2    10.0   1_545     S
V30     Ti3    10.0   1_545     S
V30     Ti31    10.0   .     S
V30     Ti34    10.0   .     S
Ti31     V32    10.0   .     S
V32     Ti46    10.0   .     S
V32     Ti34    10.0   .     S
V32     Ti41    10.0   .     S
Er33     Ti36    10.0   .     S
Er33     Ti34    10.0   1_565     S
Er33     Ti35    10.0   1_655     S
Er33     Ti49    10.0   1_665     S
Ti34     Er33    10.0   1_545     S
Ti34     V42    10.0   .     S
Ti35     Er33    10.0   1_455     S
Ti35     V45    10.0   .     S
Ti37     Er40    10.0   .     S
Ti37     V45    10.0   .     S
V38     Ti6    10.0   1_554     S
V38     Ti39    10.0   .     S
V38     Ti15    10.0   1_554     S
V38     Ti7    10.0   1_554     S
Ti39     Er40    10.0   .     S
Er40     Ti54    10.0   .     S
Er40     Ti41    10.0   .     S
Ti41     V42    10.0   .     S
V42     Ti18    10.0   1_545     S
V42     Ti43    10.0   1_545     S
V42     Ti12    10.0   1_545     S
Ti43     V52    10.0   1_565     S
Ti43     V42    10.0   1_565     S
Ti43     Er55    10.0   1_565     S
Ti44     V53    10.0   1_655     S
Ti44     V45    10.0   1_655     S
Ti44     Er17    10.0   1_655     S
V45     Ti44    10.0   1_455     S
V45     Ti27    10.0   1_455     S
V45     Ti46    10.0   1_455     S
Ti46     V53    10.0   1_655     S
Ti46     V45    10.0   1_655     S
Ti46     Er13    10.0   1_655     S
Ti47     Er24    10.0   1_544     S
Ti47     V52    10.0   .     S
Ti47     V48    10.0   .     S
Ti47     V51    10.0   .     S
V48     Ti3    10.0   1_444     S
V48     Ti14    10.0   1_444     S
V48     Ti1    10.0   1_444     S
V48     Ti49    10.0   .     S
V48     Ti50    10.0   .     S
Ti49     Er33    10.0   1_445     S
Ti49     V52    10.0   .     S
Ti49     V53    10.0   .     S
Ti50     Er9    10.0   1_454     S
Ti50     V51    10.0   .     S
Ti50     V53    10.0   .     S
V51     Ti7    10.0   1_554     S
V51     Ti15    10.0   1_554     S
V51     Ti4    10.0   1_554     S
V51     Ti54    10.0   .     S
V52     Ti43    10.0   1_545     S
V52     Ti16    10.0   1_545     S
V52     Ti54    10.0   .     S
V52     Ti12    10.0   1_545     S
V53     Ti44    10.0   1_455     S
V53     Ti46    10.0   1_455     S
V53     Ti29    10.0   1_455     S
V53     Ti54    10.0   .     S
Er55     Ti1    10.0   1_544     S
Er55     Ti7    10.0   1_554     S
Er55     Ti43    10.0   1_545     S
