data_spna
_audit_creation_date              2020-02-04
_audit_creation_method            'Pymatgen'
_symmetry_space_group_name_H-M    'P1'
_symmetry_Int_Tables_number       1
loop_
_symmetry_equiv_pos_as_xyz
  x,y,z
_cell_length_a                    105.5577
_cell_length_b                    105.5577
_cell_length_c                    105.5577
_cell_angle_alpha                 90.0
_cell_angle_beta                 90.0
_cell_angle_gamma                 90.0
loop_
_atom_site_label
_atom_site_type_symbol
_atom_site_fract_x
_atom_site_fract_y
_atom_site_fract_z
Er1     Er     0.1059   0.2111   0.0389
V2     V     0.183   0.25   0.0
Er3     Er     0.1059   0.0389   0.2111
V4     V     0.183   0.0   0.25
Er5     Er     0.7111   0.5389   0.1059
V6     V     0.75   0.5   0.183
Er7     Er     0.5389   0.7111   0.1059
V8     V     0.5   0.75   0.183
Er9     Er     0.1059   0.5389   0.7111
V10     V     0.183   0.5   0.75
Er11     Er     0.2111   0.6441   0.7111
V12     V     0.25   0.567   0.75
Er13     Er     0.2111   0.7111   0.6441
V14     V     0.25   0.75   0.567
Er15     Er     0.1059   0.7111   0.5389
V16     V     0.183   0.75   0.5
Er17     Er     0.4611   0.3559   0.9611
V18     V     0.5   0.433   0.0
Er19     Er     0.7111   0.6441   0.2111
V20     V     0.75   0.567   0.25
Er21     Er     0.7889   0.3559   0.2889
V22     V     0.75   0.433   0.25
Er23     Er     0.3559   0.9611   0.4611
V24     V     0.433   0.0   0.5
Er25     Er     0.2889   0.9611   0.3941
V26     V     0.25   0.0   0.317
Er27     Er     0.8559   0.7889   0.7889
V28     V     0.933   0.75   0.75
Er29     Er     0.1441   0.7111   0.7111
V30     V     0.067   0.75   0.75
Er31     Er     0.0389   0.7111   0.6059
V32     V     0.0   0.75   0.683
Er33     Er     0.0389   0.6059   0.7111
V34     V     0.0   0.683   0.75
Er35     Er     0.9611   0.8941   0.7889
V36     V     0.0   0.817   0.75
Er37     Er     0.9611   0.7889   0.8941
V38     V     0.0   0.75   0.817
Er39     Er     0.7111   0.7111   0.1441
V40     V     0.75   0.75   0.067
Er41     Er     0.7111   0.6059   0.0389
V42     V     0.75   0.683   0.0
Er43     Er     0.7889   0.8941   0.9611
V44     V     0.75   0.817   0.0
Er45     Er     0.6059   0.7111   0.0389
V46     V     0.683   0.75   0.0
Er47     Er     0.8941   0.7889   0.9611
V48     V     0.817   0.75   0.0
Er49     Er     0.7889   0.7889   0.8559
V50     V     0.75   0.75   0.933
Er51     Er     0.7889   0.2889   0.3559
V52     V     0.75   0.25   0.433
Er53     Er     0.7889   0.8559   0.7889
V54     V     0.75   0.933   0.75
Er55     Er     0.7111   0.1441   0.7111
V56     V     0.75   0.067   0.75
Er57     Er     0.7111   0.1059   0.5389
V58     V     0.75   0.183   0.5
Er59     Er     0.6059   0.0389   0.7111
V60     V     0.683   0.0   0.75
Er61     Er     0.8941   0.9611   0.7889
V62     V     0.817   0.0   0.75
Er63     Er     0.7111   0.0389   0.6059
V64     V     0.75   0.0   0.683
Er65     Er     0.7889   0.9611   0.8941
V66     V     0.75   0.0   0.817
Er67     Er     0.4611   0.4611   0.8559
V68     V     0.5   0.5   0.933
Er69     Er     0.6441   0.5389   0.0389
V70     V     0.567   0.5   0.0
Er71     Er     0.5389   0.6441   0.0389
V72     V     0.5   0.567   0.0
Er73     Er     0.5389   0.5389   0.1441
V74     V     0.5   0.5   0.067
Er75     Er     0.0389   0.6441   0.5389
V76     V     0.0   0.567   0.5
Er77     Er     0.8559   0.4611   0.4611
V78     V     0.933   0.5   0.5
Er79     Er     0.0389   0.5389   0.6441
V80     V     0.0   0.5   0.567
Er81     Er     0.1441   0.5389   0.5389
V82     V     0.067   0.5   0.5
Er83     Er     0.2889   0.3559   0.7889
V84     V     0.25   0.433   0.75
Er85     Er     0.7889   0.3941   0.4611
V86     V     0.75   0.317   0.5
Er87     Er     0.7111   0.2111   0.6441
V88     V     0.75   0.25   0.567
Er89     Er     0.8941   0.2889   0.4611
V90     V     0.817   0.25   0.5
Er91     Er     0.6059   0.2111   0.5389
V92     V     0.683   0.25   0.5
Er93     Er     0.5389   0.2111   0.6059
V94     V     0.5   0.25   0.683
Er95     Er     0.3559   0.2889   0.7889
V96     V     0.433   0.25   0.75
Er97     Er     0.5389   0.1059   0.7111
V98     V     0.5   0.183   0.75
Er99     Er     0.4611   0.2889   0.8941
V100     V     0.5   0.25   0.817
Er101     Er     0.6441   0.2111   0.7111
V102     V     0.567   0.25   0.75
Er103     Er     0.4611   0.3941   0.7889
V104     V     0.5   0.317   0.75
Er105     Er     0.7889   0.4611   0.3941
V106     V     0.75   0.5   0.317
Er107     Er     0.8941   0.4611   0.2889
V108     V     0.817   0.5   0.25
Er109     Er     0.6059   0.5389   0.2111
V110     V     0.683   0.5   0.25
Er111     Er     0.5389   0.6059   0.2111
V112     V     0.5   0.683   0.25
Er113     Er     0.3559   0.7889   0.2889
V114     V     0.433   0.75   0.25
Er115     Er     0.6441   0.7111   0.2111
V116     V     0.567   0.75   0.25
Er117     Er     0.4611   0.8941   0.2889
V118     V     0.5   0.817   0.25
Er119     Er     0.4611   0.7889   0.3941
V120     V     0.5   0.75   0.317
Er121     Er     0.3941   0.7889   0.4611
V122     V     0.317   0.75   0.5
Er123     Er     0.2889   0.7889   0.3559
V124     V     0.25   0.75   0.433
Er125     Er     0.2889   0.8941   0.4611
V126     V     0.25   0.817   0.5
Er127     Er     0.2111   0.6059   0.5389
V128     V     0.25   0.683   0.5
Er129     Er     0.3941   0.4611   0.7889
V130     V     0.317   0.5   0.75
Er131     Er     0.2889   0.4611   0.8941
V132     V     0.25   0.5   0.817
Er133     Er     0.2111   0.5389   0.6059
V134     V     0.25   0.5   0.683
Er135     Er     0.6441   0.0389   0.5389
V136     V     0.567   0.0   0.5
Er137     Er     0.4611   0.8559   0.4611
V138     V     0.5   0.933   0.5
Er139     Er     0.5389   0.0389   0.6441
V140     V     0.5   0.0   0.567
Er141     Er     0.5389   0.1441   0.5389
V142     V     0.5   0.067   0.5
Er143     Er     0.0389   0.2111   0.1059
V144     V     0.0   0.25   0.183
Er145     Er     0.9611   0.8559   0.9611
V146     V     0.0   0.933   0.0
Er147     Er     0.0389   0.1441   0.0389
V148     V     0.0   0.067   0.0
Er149     Er     0.0389   0.0389   0.1441
V150     V     0.0   0.0   0.067
Er151     Er     0.8559   0.9611   0.9611
V152     V     0.933   0.0   0.0
Er153     Er     0.9611   0.9611   0.8559
V154     V     0.0   0.0   0.933
Er155     Er     0.0389   0.1059   0.2111
V156     V     0.0   0.183   0.25
Er157     Er     0.9611   0.3559   0.4611
V158     V     0.0   0.433   0.5
Er159     Er     0.9611   0.4611   0.3559
V160     V     0.0   0.5   0.433
Er161     Er     0.8559   0.2889   0.2889
V162     V     0.933   0.25   0.25
Er163     Er     0.1441   0.2111   0.2111
V164     V     0.067   0.25   0.25
Er165     Er     0.9611   0.3941   0.2889
V166     V     0.0   0.317   0.25
Er167     Er     0.9611   0.2889   0.3941
V168     V     0.0   0.25   0.317
Er169     Er     0.3559   0.4611   0.9611
V170     V     0.433   0.5   0.0
Er171     Er     0.2111   0.2111   0.1441
V172     V     0.25   0.25   0.067
Er173     Er     0.3941   0.2889   0.9611
V174     V     0.317   0.25   0.0
Er175     Er     0.2889   0.2889   0.8559
V176     V     0.25   0.25   0.933
Er177     Er     0.2889   0.3941   0.9611
V178     V     0.25   0.317   0.0
Er179     Er     0.1441   0.0389   0.0389
V180     V     0.067   0.0   0.0
Er181     Er     0.2111   0.1059   0.0389
V182     V     0.25   0.183   0.0
Er183     Er     0.4611   0.9611   0.3559
V184     V     0.5   0.0   0.433
Er185     Er     0.2889   0.8559   0.2889
V186     V     0.25   0.933   0.25
Er187     Er     0.2111   0.1441   0.2111
V188     V     0.25   0.067   0.25
Er189     Er     0.3941   0.9611   0.2889
V190     V     0.317   0.0   0.25
Er191     Er     0.2111   0.0389   0.1059
V192     V     0.25   0.0   0.183
loop_
_geom_bond_atom_site_label_1
_geom_bond_atom_site_label_2
_geom_bond_distance
_geom_bond_site_symmetry_2
_ccdc_geom_bond_type
Er1     V2    10.0   .     S
Er1     Er143    10.0   .     S
Er1     Er147    10.0   .     S
V2     V172    10.0   .     S
V2     V178    10.0   .     S
V2     V182    10.0   .     S
V2     V176    10.0   1_554     S
Er3     V4    10.0   .     S
Er3     Er155    10.0   .     S
Er3     Er149    10.0   .     S
V4     V192    10.0   .     S
V4     V188    10.0   .     S
V4     V26    10.0   .     S
V4     V186    10.0   1_545     S
Er5     V6    10.0   .     S
Er5     Er41    10.0   .     S
Er5     Er69    10.0   .     S
V6     V108    10.0   .     S
V6     V110    10.0   .     S
V6     V20    10.0   .     S
V6     V22    10.0   .     S
Er7     V8    10.0   .     S
Er7     Er45    10.0   .     S
Er7     Er71    10.0   .     S
V8     V112    10.0   .     S
V8     V118    10.0   .     S
V8     V116    10.0   .     S
V8     V114    10.0   .     S
Er9     V10    10.0   .     S
Er9     Er33    10.0   .     S
Er9     Er79    10.0   .     S
V10     V134    10.0   .     S
V10     V132    10.0   .     S
V10     V12    10.0   .     S
V10     V84    10.0   .     S
Er11     V12    10.0   .     S
Er11     Er13    10.0   .     S
Er11     Er29    10.0   .     S
V12     V134    10.0   .     S
V12     V132    10.0   .     S
V12     V130    10.0   .     S
Er13     V14    10.0   .     S
Er13     Er29    10.0   .     S
V14     V126    10.0   .     S
V14     V128    10.0   .     S
V14     V16    10.0   .     S
V14     V122    10.0   .     S
Er15     V16    10.0   .     S
Er15     Er31    10.0   .     S
Er15     Er75    10.0   .     S
V16     V126    10.0   .     S
V16     V128    10.0   .     S
V16     V124    10.0   .     S
Er17     V18    10.0   1_556     S
Er17     Er173    10.0   .     S
Er17     Er99    10.0   .     S
V18     Er17    10.0   1_554     S
V18     V68    10.0   1_554     S
V18     V170    10.0   .     S
V18     V74    10.0   .     S
V18     V70    10.0   .     S
Er19     V20    10.0   .     S
Er19     Er39    10.0   .     S
Er19     Er115    10.0   .     S
V20     V108    10.0   .     S
V20     V110    10.0   .     S
V20     V106    10.0   .     S
Er21     V22    10.0   .     S
Er21     Er161    10.0   .     S
Er21     Er51    10.0   .     S
V22     V108    10.0   .     S
V22     V110    10.0   .     S
V22     V106    10.0   .     S
Er23     V24    10.0   1_565     S
Er23     Er25    10.0   .     S
Er23     Er125    10.0   .     S
V24     Er23    10.0   1_545     S
V24     V138    10.0   1_545     S
V24     V184    10.0   .     S
V24     V142    10.0   .     S
V24     V140    10.0   .     S
Er25     V26    10.0   1_565     S
Er25     Er125    10.0   .     S
V26     Er25    10.0   1_545     S
V26     V188    10.0   .     S
V26     V190    10.0   .     S
V26     V186    10.0   1_545     S
Er27     V28    10.0   .     S
Er27     Er49    10.0   .     S
Er27     Er53    10.0   .     S
V28     V38    10.0   1_655     S
V28     V36    10.0   1_655     S
V28     V32    10.0   1_655     S
V28     V34    10.0   1_655     S
Er29     V30    10.0   .     S
V30     V38    10.0   .     S
V30     V34    10.0   .     S
V30     V36    10.0   .     S
V30     V32    10.0   .     S
Er31     V32    10.0   .     S
Er31     Er75    10.0   .     S
V32     V34    10.0   .     S
V32     V36    10.0   .     S
V32     V28    10.0   1_455     S
Er33     V34    10.0   .     S
Er33     Er79    10.0   .     S
V34     V38    10.0   .     S
V34     V28    10.0   1_455     S
Er35     V36    10.0   1_655     S
Er35     Er153    10.0   .     S
Er35     Er61    10.0   .     S
V36     Er35    10.0   1_455     S
V36     V38    10.0   .     S
V36     V28    10.0   1_455     S
Er37     V38    10.0   1_655     S
Er37     Er145    10.0   .     S
Er37     Er47    10.0   .     S
V38     V28    10.0   1_455     S
V38     Er37    10.0   1_455     S
Er39     V40    10.0   .     S
Er39     Er115    10.0   .     S
V40     V44    10.0   .     S
V40     V48    10.0   .     S
V40     V46    10.0   .     S
V40     V42    10.0   .     S
Er41     V42    10.0   .     S
Er41     Er69    10.0   .     S
V42     V48    10.0   .     S
V42     V46    10.0   .     S
V42     V50    10.0   1_554     S
Er43     V44    10.0   1_556     S
Er43     Er151    10.0   .     S
Er43     Er65    10.0   .     S
V44     Er43    10.0   1_554     S
V44     V48    10.0   .     S
V44     V46    10.0   .     S
V44     V50    10.0   1_554     S
Er45     V46    10.0   .     S
Er45     Er71    10.0   .     S
V46     V50    10.0   1_554     S
Er47     V48    10.0   1_556     S
Er47     Er145    10.0   .     S
V48     V50    10.0   1_554     S
V48     Er47    10.0   1_554     S
Er49     V50    10.0   .     S
Er49     Er53    10.0   .     S
V50     V44    10.0   1_556     S
V50     V48    10.0   1_556     S
V50     V42    10.0   1_556     S
V50     V46    10.0   1_556     S
Er51     V52    10.0   .     S
Er51     Er161    10.0   .     S
V52     V90    10.0   .     S
V52     V92    10.0   .     S
V52     V86    10.0   .     S
V52     V58    10.0   .     S
Er53     V54    10.0   .     S
V54     V66    10.0   1_565     S
V54     V62    10.0   1_565     S
V54     V64    10.0   1_565     S
V54     V60    10.0   1_565     S
Er55     V56    10.0   .     S
Er55     Er87    10.0   .     S
Er55     Er101    10.0   .     S
V56     V66    10.0   .     S
V56     V60    10.0   .     S
V56     V64    10.0   .     S
V56     V62    10.0   .     S
Er57     V58    10.0   .     S
Er57     Er63    10.0   .     S
Er57     Er135    10.0   .     S
V58     V90    10.0   .     S
V58     V92    10.0   .     S
V58     V88    10.0   .     S
Er59     V60    10.0   .     S
Er59     Er139    10.0   .     S
Er59     Er97    10.0   .     S
V60     V66    10.0   .     S
V60     V64    10.0   .     S
V60     V54    10.0   1_545     S
Er61     V62    10.0   1_565     S
Er61     Er153    10.0   .     S
V62     Er61    10.0   1_545     S
V62     V66    10.0   .     S
V62     V64    10.0   .     S
V62     V54    10.0   1_545     S
Er63     V64    10.0   .     S
Er63     Er135    10.0   .     S
V64     V54    10.0   1_545     S
Er65     V66    10.0   1_565     S
Er65     Er151    10.0   .     S
V66     V54    10.0   1_545     S
V66     Er65    10.0   1_545     S
Er67     V68    10.0   .     S
Er67     Er129    10.0   .     S
Er67     Er103    10.0   .     S
V68     V18    10.0   1_556     S
V68     V170    10.0   1_556     S
V68     V70    10.0   1_556     S
V68     V72    10.0   1_556     S
Er69     V70    10.0   .     S
V70     V68    10.0   1_554     S
V70     V72    10.0   .     S
V70     V74    10.0   .     S
Er71     V72    10.0   .     S
V72     V68    10.0   1_554     S
V72     V74    10.0   .     S
V72     V170    10.0   .     S
Er73     V74    10.0   .     S
Er73     Er109    10.0   .     S
Er73     Er111    10.0   .     S
V74     V170    10.0   .     S
Er75     V76    10.0   .     S
V76     V78    10.0   1_455     S
V76     V80    10.0   .     S
V76     V82    10.0   .     S
V76     V160    10.0   .     S
Er77     V78    10.0   .     S
Er77     Er85    10.0   .     S
Er77     Er105    10.0   .     S
V78     V158    10.0   1_655     S
V78     V160    10.0   1_655     S
V78     V80    10.0   1_655     S
V78     V76    10.0   1_655     S
Er79     V80    10.0   .     S
V80     V78    10.0   1_455     S
V80     V82    10.0   .     S
V80     V158    10.0   .     S
Er81     V82    10.0   .     S
Er81     Er127    10.0   .     S
Er81     Er133    10.0   .     S
V82     V160    10.0   .     S
V82     V158    10.0   .     S
Er83     V84    10.0   .     S
Er83     Er95    10.0   .     S
Er83     Er175    10.0   .     S
V84     V134    10.0   .     S
V84     V132    10.0   .     S
V84     V130    10.0   .     S
Er85     V86    10.0   .     S
Er85     Er105    10.0   .     S
V86     V90    10.0   .     S
V86     V92    10.0   .     S
V86     V88    10.0   .     S
Er87     V88    10.0   .     S
Er87     Er101    10.0   .     S
V88     V90    10.0   .     S
V88     V92    10.0   .     S
Er89     V90    10.0   .     S
Er89     Er167    10.0   .     S
Er89     Er157    10.0   .     S
Er91     V92    10.0   .     S
Er91     Er93    10.0   .     S
Er91     Er141    10.0   .     S
Er93     V94    10.0   .     S
Er93     Er141    10.0   .     S
V94     V102    10.0   .     S
V94     V98    10.0   .     S
V94     V104    10.0   .     S
V94     V96    10.0   .     S
Er95     V96    10.0   .     S
Er95     Er175    10.0   .     S
V96     V100    10.0   .     S
V96     V104    10.0   .     S
V96     V98    10.0   .     S
Er97     V98    10.0   .     S
Er97     Er139    10.0   .     S
V98     V100    10.0   .     S
V98     V102    10.0   .     S
Er99     V100    10.0   .     S
Er99     Er173    10.0   .     S
V100     V102    10.0   .     S
V100     V104    10.0   .     S
Er101     V102    10.0   .     S
V102     V104    10.0   .     S
Er103     V104    10.0   .     S
Er103     Er129    10.0   .     S
Er105     V106    10.0   .     S
V106     V108    10.0   .     S
V106     V110    10.0   .     S
Er107     V108    10.0   .     S
Er107     Er159    10.0   .     S
Er107     Er165    10.0   .     S
Er109     V110    10.0   .     S
Er109     Er111    10.0   .     S
Er111     V112    10.0   .     S
V112     V116    10.0   .     S
V112     V120    10.0   .     S
V112     V114    10.0   .     S
Er113     V114    10.0   .     S
Er113     Er185    10.0   .     S
Er113     Er123    10.0   .     S
V114     V118    10.0   .     S
V114     V120    10.0   .     S
Er115     V116    10.0   .     S
V116     V118    10.0   .     S
V116     V120    10.0   .     S
Er117     V118    10.0   .     S
Er117     Er189    10.0   .     S
Er117     Er183    10.0   .     S
V118     V120    10.0   .     S
Er119     V120    10.0   .     S
Er119     Er121    10.0   .     S
Er119     Er137    10.0   .     S
Er121     V122    10.0   .     S
Er121     Er137    10.0   .     S
V122     V126    10.0   .     S
V122     V128    10.0   .     S
V122     V124    10.0   .     S
Er123     V124    10.0   .     S
Er123     Er185    10.0   .     S
V124     V126    10.0   .     S
V124     V128    10.0   .     S
Er125     V126    10.0   .     S
Er127     V128    10.0   .     S
Er127     Er133    10.0   .     S
Er129     V130    10.0   .     S
V130     V134    10.0   .     S
V130     V132    10.0   .     S
Er131     V132    10.0   .     S
Er131     Er169    10.0   .     S
Er131     Er177    10.0   .     S
Er133     V134    10.0   .     S
Er135     V136    10.0   .     S
V136     V138    10.0   1_545     S
V136     V184    10.0   .     S
V136     V142    10.0   .     S
V136     V140    10.0   .     S
Er137     V138    10.0   .     S
V138     V184    10.0   1_565     S
V138     V24    10.0   1_565     S
V138     V140    10.0   1_565     S
V138     V136    10.0   1_565     S
Er139     V140    10.0   .     S
V140     V138    10.0   1_545     S
V140     V142    10.0   .     S
Er141     V142    10.0   .     S
V142     V184    10.0   .     S
Er143     V144    10.0   .     S
Er143     Er147    10.0   .     S
V144     V164    10.0   .     S
V144     V156    10.0   .     S
V144     V166    10.0   .     S
V144     V162    10.0   1_455     S
Er145     V146    10.0   1_656     S
V146     Er145    10.0   1_454     S
V146     V150    10.0   1_565     S
V146     V180    10.0   1_565     S
V146     V154    10.0   1_564     S
V146     V152    10.0   1_465     S
Er147     V148    10.0   .     S
V148     V152    10.0   1_455     S
V148     V150    10.0   .     S
V148     V180    10.0   .     S
V148     V154    10.0   1_554     S
Er149     V150    10.0   .     S
Er149     Er155    10.0   .     S
V150     V152    10.0   1_455     S
V150     V146    10.0   1_545     S
V150     V180    10.0   .     S
Er151     V152    10.0   1_566     S
V152     Er151    10.0   1_544     S
V152     V148    10.0   1_655     S
V152     V150    10.0   1_655     S
V152     V154    10.0   1_654     S
V152     V146    10.0   1_645     S
Er153     V154    10.0   1_665     S
V154     V180    10.0   1_556     S
V154     V148    10.0   1_556     S
V154     V146    10.0   1_546     S
V154     V152    10.0   1_456     S
V154     Er153    10.0   1_445     S
Er155     V156    10.0   .     S
V156     V164    10.0   .     S
V156     V168    10.0   .     S
V156     V162    10.0   1_455     S
Er157     V158    10.0   1_655     S
Er157     Er167    10.0   .     S
V158     V78    10.0   1_455     S
V158     V160    10.0   .     S
V158     Er157    10.0   1_455     S
Er159     V160    10.0   1_655     S
Er159     Er165    10.0   .     S
V160     V78    10.0   1_455     S
V160     Er159    10.0   1_455     S
Er161     V162    10.0   .     S
V162     V168    10.0   1_655     S
V162     V166    10.0   1_655     S
V162     V156    10.0   1_655     S
V162     V144    10.0   1_655     S
Er163     V164    10.0   .     S
Er163     Er187    10.0   .     S
Er163     Er171    10.0   .     S
V164     V168    10.0   .     S
V164     V166    10.0   .     S
Er165     V166    10.0   1_655     S
V166     Er165    10.0   1_455     S
V166     V168    10.0   .     S
V166     V162    10.0   1_455     S
Er167     V168    10.0   1_655     S
V168     V162    10.0   1_455     S
V168     Er167    10.0   1_455     S
Er169     V170    10.0   1_556     S
Er169     Er177    10.0   .     S
V170     V68    10.0   1_554     S
V170     Er169    10.0   1_554     S
Er171     V172    10.0   .     S
Er171     Er187    10.0   .     S
V172     V182    10.0   .     S
V172     V178    10.0   .     S
V172     V174    10.0   .     S
Er173     V174    10.0   1_556     S
V174     Er173    10.0   1_554     S
V174     V182    10.0   .     S
V174     V178    10.0   .     S
V174     V176    10.0   1_554     S
Er175     V176    10.0   .     S
V176     V174    10.0   1_556     S
V176     V182    10.0   1_556     S
V176     V2    10.0   1_556     S
V176     V178    10.0   1_556     S
Er177     V178    10.0   1_556     S
V178     V176    10.0   1_554     S
V178     Er177    10.0   1_554     S
Er179     V180    10.0   .     S
Er179     Er191    10.0   .     S
Er179     Er181    10.0   .     S
V180     V146    10.0   1_545     S
V180     V154    10.0   1_554     S
Er181     V182    10.0   .     S
Er181     Er191    10.0   .     S
V182     V176    10.0   1_554     S
Er183     V184    10.0   1_565     S
Er183     Er189    10.0   .     S
V184     V138    10.0   1_545     S
V184     Er183    10.0   1_545     S
Er185     V186    10.0   .     S
V186     V26    10.0   1_565     S
V186     V190    10.0   1_565     S
V186     V4    10.0   1_565     S
V186     V192    10.0   1_565     S
Er187     V188    10.0   .     S
V188     V192    10.0   .     S
V188     V190    10.0   .     S
Er189     V190    10.0   1_565     S
V190     Er189    10.0   1_545     S
V190     V192    10.0   .     S
V190     V186    10.0   1_545     S
Er191     V192    10.0   .     S
V192     V186    10.0   1_545     S
