data_spp
_audit_creation_date              2020-02-04
_audit_creation_method            'Pymatgen'
_symmetry_space_group_name_H-M    'P1'
_symmetry_Int_Tables_number       1
loop_
_symmetry_equiv_pos_as_xyz
  x,y,z
_cell_length_a                    15.279
_cell_length_b                    15.279
_cell_length_c                    15.7528
_cell_angle_alpha                 90.0
_cell_angle_beta                 90.0
_cell_angle_gamma                 120.0
loop_
_atom_site_label
_atom_site_type_symbol
_atom_site_fract_x
_atom_site_fract_y
_atom_site_fract_z
Ti1     Ti     0.3333   0.6667   0.5
Ti2     Ti     0.6667   0.3333   0.5
V3     V     0.0   0.5   0.0
V4     V     0.5   0.0   0.0
V5     V     0.5   0.5   0.0
Er6     Er     0.0   0.0   0.5
loop_
_geom_bond_atom_site_label_1
_geom_bond_atom_site_label_2
_geom_bond_distance
_geom_bond_site_symmetry_2
_ccdc_geom_bond_type
Ti1     V5    9.027   1_556     S
Ti1     V4    9.027   1_566     S
Ti1     V3    9.027   1_556     S
Ti1     V4    9.027   1_565     S
Ti1     V5    9.027   .     S
Ti1     V3    9.027   .     S
Ti2     V3    9.027   1_656     S
Ti2     V5    9.027   1_556     S
Ti2     V4    9.027   1_556     S
Ti2     V5    9.027   .     S
Ti2     V3    9.027   1_655     S
Ti2     V4    9.027   .     S
V3     Ti1    9.027   1_554     S
V3     Ti2    9.027   1_454     S
V3     Ti2    9.027   1_455     S
V3     Er6    10.973   1_554     S
V3     Er6    10.973   1_564     S
V3     Er6    10.973   .     S
V3     Er6    10.973   1_565     S
V4     Ti1    9.027   1_544     S
V4     Ti2    9.027   1_554     S
V4     Ti1    9.027   1_545     S
V4     Er6    10.973   1_554     S
V4     Er6    10.973   1_654     S
V4     Er6    10.973   .     S
V4     Er6    10.973   1_655     S
V5     Ti1    9.027   1_554     S
V5     Ti2    9.027   1_554     S
V5     Er6    10.973   1_554     S
V5     Er6    10.973   1_664     S
V5     Er6    10.973   .     S
V5     Er6    10.973   1_665     S
Er6     V5    10.973   1_556     S
Er6     V3    10.973   1_556     S
Er6     V4    10.973   1_556     S
Er6     V5    10.973   1_446     S
Er6     V3    10.973   1_546     S
Er6     V4    10.973   1_456     S
Er6     V5    10.973   1_445     S
Er6     V3    10.973   1_545     S
Er6     V4    10.973   1_455     S
