data_srdl
_audit_creation_date              2020-02-04
_audit_creation_method            'Pymatgen'
_symmetry_space_group_name_H-M    'P1'
_symmetry_Int_Tables_number       1
loop_
_symmetry_equiv_pos_as_xyz
  x,y,z
_cell_length_a                    50.3633
_cell_length_b                    50.3633
_cell_length_c                    50.3633
_cell_angle_alpha                 90.0
_cell_angle_beta                 90.0
_cell_angle_gamma                 90.0
loop_
_atom_site_label
_atom_site_type_symbol
_atom_site_fract_x
_atom_site_fract_y
_atom_site_fract_z
Er1     Er     0.3981   0.1594   0.8406
Er2     Er     0.6019   0.8406   0.8406
V3     V     0.5   0.0   0.9007
Er4     Er     0.6019   0.1594   0.1594
Er5     Er     0.3981   0.8406   0.1594
V6     V     0.5   0.0   0.0993
Er7     Er     0.6594   0.8981   0.6594
Er8     Er     0.3406   0.1019   0.6594
V9     V     0.5   0.0   0.5993
Er10     Er     0.3406   0.8981   0.3406
Er11     Er     0.6594   0.1019   0.3406
V12     V     0.5   0.0   0.4007
Er13     Er     0.6594   0.6594   0.8981
Er14     Er     0.6594   0.3406   0.1019
V15     V     0.5993   0.5   0.0
Er16     Er     0.3406   0.3406   0.8981
Er17     Er     0.3406   0.6594   0.1019
V18     V     0.4007   0.5   0.0
Er19     Er     0.8406   0.3981   0.1594
Er20     Er     0.8406   0.6019   0.8406
V21     V     0.9007   0.5   0.0
Er22     Er     0.1594   0.6019   0.1594
Er23     Er     0.1594   0.3981   0.8406
V24     V     0.0993   0.5   0.0
Er25     Er     0.8981   0.6594   0.6594
Er26     Er     0.1019   0.6594   0.3406
V27     V     0.0   0.5993   0.5
Er28     Er     0.8981   0.3406   0.3406
Er29     Er     0.1019   0.3406   0.6594
V30     V     0.0   0.4007   0.5
Er31     Er     0.1594   0.8406   0.3981
Er32     Er     0.8406   0.8406   0.6019
V33     V     0.0   0.9007   0.5
Er34     Er     0.1594   0.1594   0.6019
Er35     Er     0.8406   0.1594   0.3981
V36     V     0.0   0.0993   0.5
loop_
_geom_bond_atom_site_label_1
_geom_bond_atom_site_label_2
_geom_bond_distance
_geom_bond_site_symmetry_2
_ccdc_geom_bond_type
Er1     V3    10.0   .     S
Er1     Er8    10.0   .     S
Er1     Er16    10.0   .     S
Er2     V3    10.0   1_565     S
Er2     Er7    10.0   .     S
Er2     Er13    10.0   .     S
V3     Er2    10.0   1_545     S
V3     V6    10.0   1_556     S
Er4     V6    10.0   .     S
Er4     Er11    10.0   .     S
Er4     Er14    10.0   .     S
Er5     V6    10.0   1_565     S
Er5     Er10    10.0   .     S
Er5     Er17    10.0   .     S
V6     Er5    10.0   1_545     S
V6     V3    10.0   1_554     S
Er7     V9    10.0   1_565     S
Er7     Er32    10.0   .     S
Er8     V9    10.0   .     S
Er8     Er34    10.0   .     S
V9     Er7    10.0   1_545     S
V9     V12    10.0   .     S
Er10     V12    10.0   1_565     S
Er10     Er31    10.0   .     S
Er11     V12    10.0   .     S
Er11     Er35    10.0   .     S
V12     Er10    10.0   1_545     S
Er13     V15    10.0   1_556     S
Er13     Er20    10.0   .     S
Er14     V15    10.0   .     S
Er14     Er19    10.0   .     S
V15     Er13    10.0   1_554     S
V15     V18    10.0   .     S
Er16     V18    10.0   1_556     S
Er16     Er23    10.0   .     S
Er17     V18    10.0   .     S
Er17     Er22    10.0   .     S
V18     Er16    10.0   1_554     S
Er19     V21    10.0   .     S
Er19     Er28    10.0   .     S
Er20     V21    10.0   1_556     S
Er20     Er25    10.0   .     S
V21     Er20    10.0   1_554     S
V21     V24    10.0   1_655     S
Er22     V24    10.0   .     S
Er22     Er26    10.0   .     S
Er23     V24    10.0   1_556     S
Er23     Er29    10.0   .     S
V24     Er23    10.0   1_554     S
V24     V21    10.0   1_455     S
Er25     V27    10.0   1_655     S
Er25     Er32    10.0   .     S
Er26     V27    10.0   .     S
Er26     Er31    10.0   .     S
V27     Er25    10.0   1_455     S
V27     V30    10.0   .     S
Er28     V30    10.0   1_655     S
Er28     Er35    10.0   .     S
Er29     V30    10.0   .     S
Er29     Er34    10.0   .     S
V30     Er28    10.0   1_455     S
Er31     V33    10.0   .     S
Er32     V33    10.0   1_655     S
V33     Er32    10.0   1_455     S
V33     V36    10.0   1_565     S
Er34     V36    10.0   .     S
Er35     V36    10.0   1_655     S
V36     Er35    10.0   1_455     S
V36     V33    10.0   1_545     S
