data_srsg
_audit_creation_date              2020-02-04
_audit_creation_method            'Pymatgen'
_symmetry_space_group_name_H-M    'P1'
_symmetry_Int_Tables_number       1
loop_
_symmetry_equiv_pos_as_xyz
  x,y,z
_cell_length_a                    54.9508
_cell_length_b                    54.9508
_cell_length_c                    54.9508
_cell_angle_alpha                 90.0
_cell_angle_beta                 90.0
_cell_angle_gamma                 90.0
loop_
_atom_site_label
_atom_site_type_symbol
_atom_site_fract_x
_atom_site_fract_y
_atom_site_fract_z
V1     V     0.2892   0.0821   0.7892
V2     V     0.2892   0.2108   0.9179
V3     V     0.4179   0.2108   0.7892
V4     V     0.2108   0.0821   0.2108
V5     V     0.2108   0.2108   0.0821
V6     V     0.0821   0.2108   0.2108
V7     V     0.9179   0.2892   0.2108
V8     V     0.7892   0.2892   0.0821
V9     V     0.7892   0.4179   0.2108
V10     V     0.5821   0.2892   0.7892
V11     V     0.7108   0.2892   0.9179
V12     V     0.7108   0.4179   0.7892
V13     V     0.2108   0.7892   0.4179
V14     V     0.2108   0.9179   0.2892
V15     V     0.0821   0.7892   0.2892
V16     V     0.9179   0.7108   0.2892
V17     V     0.7892   0.5821   0.2892
V18     V     0.7892   0.7108   0.4179
V19     V     0.5821   0.7108   0.7108
V20     V     0.7108   0.7108   0.5821
V21     V     0.7108   0.5821   0.7108
V22     V     0.2892   0.7892   0.5821
V23     V     0.2892   0.9179   0.7108
V24     V     0.4179   0.7892   0.7108
V25     V     0.5392   0.6679   0.5392
V26     V     0.5392   0.5392   0.6679
V27     V     0.6679   0.5392   0.5392
V28     V     0.4608   0.8321   0.5392
V29     V     0.4608   0.9608   0.6679
V30     V     0.3321   0.9608   0.5392
V31     V     0.8321   0.5392   0.4608
V32     V     0.9608   0.6679   0.4608
V33     V     0.9608   0.5392   0.3321
V34     V     0.5392   0.4608   0.8321
V35     V     0.6679   0.4608   0.9608
V36     V     0.5392   0.3321   0.9608
V37     V     0.8321   0.4608   0.0392
V38     V     0.9608   0.3321   0.0392
V39     V     0.9608   0.4608   0.1679
V40     V     0.4608   0.0392   0.8321
V41     V     0.3321   0.0392   0.9608
V42     V     0.4608   0.1679   0.9608
V43     V     0.0392   0.9608   0.3321
V44     V     0.1679   0.9608   0.4608
V45     V     0.0392   0.8321   0.4608
V46     V     0.0392   0.0392   0.1679
V47     V     0.0392   0.1679   0.0392
V48     V     0.1679   0.0392   0.0392
loop_
_geom_bond_atom_site_label_1
_geom_bond_atom_site_label_2
_geom_bond_distance
_geom_bond_site_symmetry_2
_ccdc_geom_bond_type
V1     V40    10.001   .     S
V1     V41    10.001   .     S
V1     V3    10.0   .     S
V1     V2    10.0   .     S
V1     V23    10.0   1_545     S
V2     V41    10.001   .     S
V2     V42    10.001   .     S
V2     V3    10.0   .     S
V2     V5    10.0   1_556     S
V3     V40    10.001   .     S
V3     V42    10.001   .     S
V3     V10    10.0   .     S
V4     V46    10.001   .     S
V4     V48    10.001   .     S
V4     V5    10.0   .     S
V4     V6    10.0   .     S
V4     V14    10.0   1_545     S
V5     V47    10.001   .     S
V5     V48    10.001   .     S
V5     V2    10.0   1_554     S
V5     V6    10.0   .     S
V6     V46    10.001   .     S
V6     V47    10.001   .     S
V6     V7    10.0   1_455     S
V7     V9    10.0   .     S
V7     V8    10.0   .     S
V7     V6    10.0   1_655     S
V7     V38    10.001   .     S
V7     V39    10.001   .     S
V8     V9    10.0   .     S
V8     V11    10.0   1_554     S
V8     V37    10.001   .     S
V8     V38    10.001   .     S
V9     V17    10.0   .     S
V9     V39    10.001   .     S
V9     V37    10.001   .     S
V10     V12    10.0   .     S
V10     V11    10.0   .     S
V10     V36    10.001   .     S
V10     V34    10.001   .     S
V11     V12    10.0   .     S
V11     V8    10.0   1_556     S
V11     V35    10.001   .     S
V11     V36    10.001   .     S
V12     V21    10.0   .     S
V12     V34    10.001   .     S
V12     V35    10.001   .     S
V13     V15    10.0   .     S
V13     V14    10.0   .     S
V13     V22    10.0   .     S
V13     V44    10.001   .     S
V13     V45    10.001   .     S
V14     V15    10.0   .     S
V14     V4    10.0   1_565     S
V14     V43    10.001   .     S
V14     V44    10.001   .     S
V15     V16    10.0   1_455     S
V15     V45    10.001   .     S
V15     V43    10.001   .     S
V16     V18    10.0   .     S
V16     V17    10.0   .     S
V16     V15    10.0   1_655     S
V16     V32    10.001   .     S
V16     V33    10.001   .     S
V17     V18    10.0   .     S
V17     V33    10.001   .     S
V17     V31    10.001   .     S
V18     V20    10.0   .     S
V18     V31    10.001   .     S
V18     V32    10.001   .     S
V19     V20    10.0   .     S
V19     V21    10.0   .     S
V19     V24    10.0   .     S
V19     V25    10.001   .     S
V19     V26    10.001   .     S
V20     V21    10.0   .     S
V20     V27    10.001   .     S
V20     V25    10.001   .     S
V21     V26    10.001   .     S
V21     V27    10.001   .     S
V22     V24    10.0   .     S
V22     V23    10.0   .     S
V22     V30    10.001   .     S
V22     V28    10.001   .     S
V23     V24    10.0   .     S
V23     V1    10.0   1_565     S
V23     V29    10.001   .     S
V23     V30    10.001   .     S
V24     V28    10.001   .     S
V24     V29    10.001   .     S
V25     V26    10.0   .     S
V25     V27    10.0   .     S
V25     V28    10.0   .     S
V26     V27    10.0   .     S
V26     V34    10.0   .     S
V27     V31    10.0   .     S
V28     V30    10.0   .     S
V28     V29    10.0   .     S
V29     V30    10.0   .     S
V29     V40    10.0   1_565     S
V30     V44    10.0   .     S
V31     V33    10.0   .     S
V31     V32    10.0   .     S
V32     V33    10.0   .     S
V32     V45    10.0   1_655     S
V33     V39    10.0   .     S
V34     V36    10.0   .     S
V34     V35    10.0   .     S
V35     V36    10.0   .     S
V35     V37    10.0   1_556     S
V36     V42    10.0   .     S
V37     V35    10.0   1_554     S
V37     V38    10.0   .     S
V37     V39    10.0   .     S
V38     V39    10.0   .     S
V38     V47    10.0   1_655     S
V40     V29    10.0   1_545     S
V40     V41    10.0   .     S
V40     V42    10.0   .     S
V41     V42    10.0   .     S
V41     V48    10.0   1_556     S
V43     V44    10.0   .     S
V43     V45    10.0   .     S
V43     V46    10.0   1_565     S
V44     V45    10.0   .     S
V45     V32    10.0   1_455     S
V46     V47    10.0   .     S
V46     V48    10.0   .     S
V46     V43    10.0   1_545     S
V47     V48    10.0   .     S
V47     V38    10.0   1_455     S
V48     V41    10.0   1_554     S
