data_ssaa
_audit_creation_date              2020-02-04
_audit_creation_method            'Pymatgen'
_symmetry_space_group_name_H-M    'P1'
_symmetry_Int_Tables_number       1
loop_
_symmetry_equiv_pos_as_xyz
  x,y,z
_cell_length_a                    76.4233
_cell_length_b                    76.4233
_cell_length_c                    55.2465
_cell_angle_alpha                 90.0
_cell_angle_beta                 90.0
_cell_angle_gamma                 120.0
loop_
_atom_site_label
_atom_site_type_symbol
_atom_site_fract_x
_atom_site_fract_y
_atom_site_fract_z
V1     V     0.0592   0.4642   0.4438
V2     V     0.0592   0.595   0.4438
V3     V     0.9408   0.5358   0.5562
V4     V     0.9408   0.405   0.5562
Er5     Er     0.8335   0.5361   0.6595
Er6     Er     0.7026   0.5361   0.6595
Er7     Er     0.8335   0.5361   0.8405
Er8     Er     0.7026   0.5361   0.8405
Er9     Er     0.2974   0.8335   0.3405
Er10     Er     0.1665   0.7026   0.3405
Er11     Er     0.2974   0.8335   0.1595
Er12     Er     0.1665   0.7026   0.1595
V13     V     0.4642   0.0592   0.5562
V14     V     0.595   0.0592   0.5562
V15     V     0.5358   0.9408   0.4438
V16     V     0.405   0.9408   0.4438
V17     V     0.4642   0.0592   0.9438
V18     V     0.595   0.0592   0.9438
V19     V     0.5358   0.9408   0.0562
V20     V     0.405   0.9408   0.0562
Er21     Er     0.8335   0.2974   0.6595
Er22     Er     0.7026   0.1665   0.6595
Er23     Er     0.8335   0.2974   0.8405
Er24     Er     0.7026   0.1665   0.8405
V25     V     0.0592   0.4642   0.0562
V26     V     0.0592   0.595   0.0562
V27     V     0.9408   0.5358   0.9438
V28     V     0.9408   0.405   0.9438
V29     V     0.5358   0.595   0.4438
V30     V     0.405   0.4642   0.4438
V31     V     0.4642   0.405   0.5562
V32     V     0.595   0.5358   0.5562
Er33     Er     0.4639   0.2974   0.6595
Er34     Er     0.4639   0.1665   0.6595
Er35     Er     0.4639   0.2974   0.8405
Er36     Er     0.4639   0.1665   0.8405
Er37     Er     0.5361   0.8335   0.3405
Er38     Er     0.5361   0.7026   0.3405
Er39     Er     0.5361   0.8335   0.1595
Er40     Er     0.5361   0.7026   0.1595
V41     V     0.5358   0.595   0.0562
V42     V     0.405   0.4642   0.0562
V43     V     0.4642   0.405   0.9438
V44     V     0.595   0.5358   0.9438
Er45     Er     0.2974   0.4639   0.3405
Er46     Er     0.1665   0.4639   0.3405
Er47     Er     0.2974   0.4639   0.1595
Er48     Er     0.1665   0.4639   0.1595
loop_
_geom_bond_atom_site_label_1
_geom_bond_atom_site_label_2
_geom_bond_distance
_geom_bond_site_symmetry_2
_ccdc_geom_bond_type
V1     V2    9.999   .     S
V1     V4    10.0   1_455     S
V1     Er46    10.0   .     S
V2     V3    10.0   1_455     S
V2     Er10    10.0   .     S
V3     V4    9.999   .     S
V3     V2    10.0   1_655     S
V3     Er5    10.0   .     S
V4     V1    10.0   1_655     S
V4     Er21    10.0   .     S
Er5     Er6    10.0   .     S
Er5     Er7    10.0   .     S
Er6     Er8    10.0   .     S
Er6     V32    10.0   .     S
Er7     Er8    10.0   .     S
Er7     V27    10.0   .     S
Er8     V44    10.0   .     S
Er9     Er10    10.0   .     S
Er9     Er11    10.0   .     S
Er9     V16    10.0   .     S
Er10     Er12    10.0   .     S
Er11     Er12    10.0   .     S
Er11     V20    10.0   .     S
Er12     V26    10.0   .     S
V13     V14    9.999   .     S
V13     V16    10.0   1_545     S
V13     Er34    10.0   .     S
V14     V15    10.0   1_545     S
V14     Er22    10.0   .     S
V15     V16    9.999   .     S
V15     V14    10.0   1_565     S
V15     Er37    10.0   .     S
V16     V13    10.0   1_565     S
V17     V18    9.999   .     S
V17     V20    10.0   1_546     S
V17     Er36    10.0   .     S
V18     V19    10.0   1_546     S
V18     Er24    10.0   .     S
V19     V20    9.999   .     S
V19     V18    10.0   1_564     S
V19     Er39    10.0   .     S
V20     V17    10.0   1_564     S
Er21     Er22    10.0   .     S
Er21     Er23    10.0   .     S
Er22     Er24    10.0   .     S
Er23     Er24    10.0   .     S
Er23     V28    10.0   .     S
V25     V26    9.999   .     S
V25     V28    10.0   1_454     S
V25     Er48    10.0   .     S
V26     V27    10.0   1_454     S
V27     V28    9.999   .     S
V27     V26    10.0   1_656     S
V28     V25    10.0   1_656     S
V29     V30    9.999   .     S
V29     V32    10.0   .     S
V29     Er38    10.0   .     S
V30     V31    10.0   .     S
V30     Er45    10.0   .     S
V31     V32    9.999   .     S
V31     Er33    10.0   .     S
Er33     Er34    10.0   .     S
Er33     Er35    10.0   .     S
Er34     Er36    10.0   .     S
Er35     Er36    10.0   .     S
Er35     V43    10.0   .     S
Er37     Er38    10.0   .     S
Er37     Er39    10.0   .     S
Er38     Er40    10.0   .     S
Er39     Er40    10.0   .     S
Er40     V41    10.0   .     S
V41     V42    9.999   .     S
V41     V44    10.0   1_554     S
V42     V43    10.0   1_554     S
V42     Er47    10.0   .     S
V43     V44    9.999   .     S
V43     V42    10.0   1_556     S
V44     V41    10.0   1_556     S
Er45     Er46    10.0   .     S
Er45     Er47    10.0   .     S
Er46     Er48    10.0   .     S
Er47     Er48    10.0   .     S
