data_ssca
_audit_creation_date              2020-02-04
_audit_creation_method            'Pymatgen'
_symmetry_space_group_name_H-M    'P1'
_symmetry_Int_Tables_number       1
loop_
_symmetry_equiv_pos_as_xyz
  x,y,z
_cell_length_a                    47.3215
_cell_length_b                    47.3215
_cell_length_c                    47.3215
_cell_angle_alpha                 90.0
_cell_angle_beta                 90.0
_cell_angle_gamma                 90.0
loop_
_atom_site_label
_atom_site_type_symbol
_atom_site_fract_x
_atom_site_fract_y
_atom_site_fract_z
Er1     Er     0.8436   0.9759   0.0491
V2     V     0.026   0.956   0.1539
Er3     Er     0.7991   0.7741   0.0935
V4     V     0.9039   0.794   0.276
Er5     Er     0.7009   0.7741   0.9064
V6     V     0.5961   0.794   0.724
Er7     Er     0.6564   0.9759   0.9509
V8     V     0.474   0.956   0.8461
Er9     Er     0.0491   0.8436   0.9759
V10     V     0.1539   0.026   0.956
Er11     Er     0.0935   0.7991   0.7741
V12     V     0.276   0.9039   0.794
Er13     Er     0.9064   0.7009   0.7741
V14     V     0.724   0.5961   0.794
Er15     Er     0.9509   0.6564   0.9759
V16     V     0.8461   0.474   0.956
Er17     Er     0.3436   0.4759   0.5491
V18     V     0.526   0.456   0.6539
Er19     Er     0.2991   0.2741   0.5936
V20     V     0.4039   0.294   0.776
Er21     Er     0.1564   0.4759   0.4509
V22     V     0.974   0.456   0.3461
Er23     Er     0.2009   0.2741   0.4064
V24     V     0.0961   0.294   0.224
Er25     Er     0.5936   0.2991   0.2741
V26     V     0.776   0.4039   0.294
Er27     Er     0.5491   0.3436   0.4759
V28     V     0.6539   0.526   0.456
Er29     Er     0.4509   0.1564   0.4759
V30     V     0.3461   0.974   0.456
Er31     Er     0.4064   0.2009   0.2741
V32     V     0.224   0.0961   0.294
Er33     Er     0.4759   0.4509   0.1564
V34     V     0.456   0.3461   0.974
Er35     Er     0.2741   0.4064   0.2009
V36     V     0.294   0.224   0.0961
Er37     Er     0.2741   0.5936   0.2991
V38     V     0.294   0.776   0.4039
Er39     Er     0.4759   0.5491   0.3436
V40     V     0.456   0.6539   0.526
Er41     Er     0.4509   0.8436   0.0241
V42     V     0.3461   0.026   0.044
Er43     Er     0.4064   0.7991   0.2259
V44     V     0.224   0.9039   0.206
Er45     Er     0.5491   0.6564   0.0241
V46     V     0.6539   0.474   0.044
Er47     Er     0.5936   0.7009   0.2259
V48     V     0.776   0.5961   0.206
Er49     Er     0.2991   0.7259   0.9064
V50     V     0.4039   0.706   0.724
Er51     Er     0.3436   0.5241   0.9509
V52     V     0.526   0.544   0.8461
Er53     Er     0.2009   0.7259   0.0935
V54     V     0.0961   0.706   0.276
Er55     Er     0.1564   0.5241   0.0491
V56     V     0.974   0.544   0.1539
Er57     Er     0.9759   0.0491   0.8436
V58     V     0.956   0.1539   0.026
Er59     Er     0.7741   0.0935   0.7991
V60     V     0.794   0.276   0.9039
Er61     Er     0.7741   0.9064   0.7009
V62     V     0.794   0.724   0.5961
Er63     Er     0.9759   0.9509   0.6564
V64     V     0.956   0.8461   0.474
Er65     Er     0.8436   0.0241   0.4509
V66     V     0.026   0.044   0.3461
Er67     Er     0.7991   0.2259   0.4064
V68     V     0.9039   0.206   0.224
Er69     Er     0.6564   0.0241   0.5491
V70     V     0.474   0.044   0.6539
Er71     Er     0.7009   0.2259   0.5936
V72     V     0.5961   0.206   0.776
Er73     Er     0.7259   0.9064   0.2991
V74     V     0.706   0.724   0.4039
Er75     Er     0.5241   0.9509   0.3436
V76     V     0.544   0.8461   0.526
Er77     Er     0.5241   0.0491   0.1564
V78     V     0.544   0.1539   0.974
Er79     Er     0.7259   0.0935   0.2009
V80     V     0.706   0.276   0.0961
Er81     Er     0.0241   0.4509   0.8436
V82     V     0.044   0.3461   0.026
Er83     Er     0.2259   0.4064   0.7991
V84     V     0.206   0.224   0.9039
Er85     Er     0.0241   0.5491   0.6564
V86     V     0.044   0.6539   0.474
Er87     Er     0.2259   0.5936   0.7009
V88     V     0.206   0.776   0.5961
Er89     Er     0.0935   0.2009   0.7259
V90     V     0.276   0.0961   0.706
Er91     Er     0.0491   0.1564   0.5241
V92     V     0.1539   0.974   0.544
Er93     Er     0.9509   0.3436   0.5241
V94     V     0.8461   0.526   0.544
Er95     Er     0.9064   0.2991   0.7259
V96     V     0.724   0.4039   0.706
loop_
_geom_bond_atom_site_label_1
_geom_bond_atom_site_label_2
_geom_bond_distance
_geom_bond_site_symmetry_2
_ccdc_geom_bond_type
Er1     V2    10.0   1_655     S
Er1     Er3    10.0   .     S
Er1     Er7    10.0   1_554     S
V2     Er1    10.0   1_455     S
V2     V44    10.0   .     S
V2     V66    10.0   1_565     S
Er3     V4    10.0   .     S
Er3     Er5    10.0   1_554     S
V4     V64    10.0   .     S
V4     V54    10.0   1_655     S
Er5     V6    10.0   .     S
Er5     Er7    10.0   .     S
Er5     Er3    10.0   1_556     S
V6     V76    10.0   .     S
V6     V50    10.0   .     S
Er7     V8    10.0   .     S
Er7     Er1    10.0   1_556     S
V8     V12    10.0   .     S
V8     V70    10.0   1_565     S
Er9     V10    10.0   1_565     S
Er9     Er11    10.0   .     S
Er9     Er15    10.0   1_455     S
V10     Er9    10.0   1_545     S
V10     V84    10.0   .     S
V10     V42    10.0   1_556     S
Er11     V12    10.0   .     S
Er11     Er13    10.0   1_455     S
V12     V90    10.0   1_565     S
Er13     V14    10.0   .     S
Er13     Er15    10.0   .     S
Er13     Er11    10.0   1_655     S
V14     V52    10.0   .     S
V14     V96    10.0   .     S
Er15     V16    10.0   .     S
Er15     Er9    10.0   1_655     S
V16     V60    10.0   .     S
V16     V46    10.0   1_556     S
Er17     V18    10.0   .     S
Er17     Er19    10.0   .     S
Er17     Er21    10.0   .     S
V18     V96    10.0   .     S
V18     V52    10.0   .     S
Er19     V20    10.0   .     S
Er19     Er23    10.0   .     S
V20     V34    10.0   .     S
V20     V72    10.0   .     S
Er21     V22    10.0   1_455     S
Er21     Er23    10.0   .     S
V22     Er21    10.0   1_655     S
V22     V26    10.0   .     S
V22     V56    10.0   .     S
Er23     V24    10.0   .     S
V24     V82    10.0   .     S
V24     V68    10.0   1_455     S
Er25     V26    10.0   .     S
Er25     Er27    10.0   .     S
Er25     Er31    10.0   .     S
V26     V48    10.0   .     S
Er27     V28    10.0   .     S
Er27     Er29    10.0   .     S
V28     V74    10.0   .     S
V28     V94    10.0   .     S
Er29     V30    10.0   1_545     S
Er29     Er31    10.0   .     S
V30     Er29    10.0   1_565     S
V30     V38    10.0   .     S
V30     V92    10.0   .     S
Er31     V32    10.0   .     S
V32     V66    10.0   .     S
V32     V44    10.0   1_545     S
Er33     V34    10.0   1_554     S
Er33     Er35    10.0   .     S
Er33     Er39    10.0   .     S
V34     Er33    10.0   1_556     S
V34     V78    10.0   .     S
Er35     V36    10.0   .     S
Er35     Er37    10.0   .     S
V36     V42    10.0   .     S
V36     V84    10.0   1_554     S
Er37     V38    10.0   .     S
Er37     Er39    10.0   .     S
V38     V88    10.0   .     S
Er39     V40    10.0   .     S
V40     V50    10.0   .     S
V40     V76    10.0   .     S
Er41     V42    10.0   1_565     S
Er41     Er43    10.0   .     S
Er41     Er45    10.0   .     S
V42     Er41    10.0   1_545     S
V42     V10    10.0   1_554     S
Er43     V44    10.0   .     S
Er43     Er47    10.0   .     S
V44     V32    10.0   1_565     S
Er45     V46    10.0   .     S
Er45     Er47    10.0   .     S
V46     V80    10.0   .     S
V46     V16    10.0   1_554     S
Er47     V48    10.0   .     S
V48     V56    10.0   .     S
Er49     V50    10.0   .     S
Er49     Er51    10.0   .     S
Er49     Er53    10.0   1_556     S
Er51     V52    10.0   .     S
Er51     Er55    10.0   1_556     S
Er53     V54    10.0   .     S
Er53     Er55    10.0   .     S
Er53     Er49    10.0   1_554     S
V54     V86    10.0   .     S
V54     V4    10.0   1_455     S
Er55     V56    10.0   1_455     S
Er55     Er51    10.0   1_554     S
V56     Er55    10.0   1_655     S
Er57     V58    10.0   1_556     S
Er57     Er59    10.0   .     S
Er57     Er63    10.0   1_545     S
V58     Er57    10.0   1_554     S
V58     V68    10.0   .     S
V58     V82    10.0   1_655     S
Er59     V60    10.0   .     S
Er59     Er61    10.0   1_545     S
V60     V80    10.0   1_556     S
Er61     V62    10.0   .     S
Er61     Er63    10.0   .     S
Er61     Er59    10.0   1_565     S
V62     V94    10.0   .     S
V62     V74    10.0   .     S
Er63     V64    10.0   .     S
Er63     Er57    10.0   1_565     S
V64     V86    10.0   1_655     S
Er65     V66    10.0   1_655     S
Er65     Er67    10.0   .     S
Er65     Er69    10.0   .     S
V66     Er65    10.0   1_455     S
V66     V2    10.0   1_545     S
Er67     V68    10.0   .     S
Er67     Er71    10.0   .     S
V68     V24    10.0   1_655     S
Er69     V70    10.0   .     S
Er69     Er71    10.0   .     S
V70     V90    10.0   .     S
V70     V8    10.0   1_545     S
Er71     V72    10.0   .     S
V72     V78    10.0   .     S
Er73     V74    10.0   .     S
Er73     Er75    10.0   .     S
Er73     Er79    10.0   1_565     S
Er75     V76    10.0   .     S
Er75     Er77    10.0   1_565     S
Er77     V78    10.0   1_554     S
Er77     Er79    10.0   .     S
Er77     Er75    10.0   1_545     S
V78     Er77    10.0   1_556     S
Er79     V80    10.0   .     S
Er79     Er73    10.0   1_545     S
V80     V60    10.0   1_554     S
Er81     V82    10.0   1_556     S
Er81     Er83    10.0   .     S
Er81     Er85    10.0   .     S
V82     Er81    10.0   1_554     S
V82     V58    10.0   1_455     S
Er83     V84    10.0   .     S
Er83     Er87    10.0   .     S
V84     V36    10.0   1_556     S
Er85     V86    10.0   .     S
Er85     Er87    10.0   .     S
V86     V64    10.0   1_455     S
Er87     V88    10.0   .     S
V88     V92    10.0   .     S
Er89     V90    10.0   .     S
Er89     Er91    10.0   .     S
Er89     Er95    10.0   1_455     S
V90     V12    10.0   1_545     S
Er91     V92    10.0   1_545     S
Er91     Er93    10.0   1_455     S
V92     Er91    10.0   1_565     S
Er93     V94    10.0   .     S
Er93     Er95    10.0   .     S
Er93     Er91    10.0   1_655     S
Er95     Er89    10.0   1_655     S
Er95     V96    10.0   .     S
