data_ssm
_audit_creation_date              2020-02-04
_audit_creation_method            'Pymatgen'
_symmetry_space_group_name_H-M    'P1'
_symmetry_Int_Tables_number       1
loop_
_symmetry_equiv_pos_as_xyz
  x,y,z
_cell_length_a                    14.1423
_cell_length_b                    14.1423
_cell_length_c                    136.416
_cell_angle_alpha                 90.0
_cell_angle_beta                 90.0
_cell_angle_gamma                 90.0
loop_
_atom_site_label
_atom_site_type_symbol
_atom_site_fract_x
_atom_site_fract_y
_atom_site_fract_z
Er1     Er     0.2788   0.5326   0.3491
V2     V     0.25   0.5   0.2759
Er3     Er     0.7212   0.9674   0.3491
V4     V     0.75   0.0   0.2759
V5     V     0.25   0.0   0.4741
Er6     Er     0.2174   0.0288   0.4009
V7     V     0.75   0.5   0.4741
Er8     Er     0.7826   0.4712   0.4009
Er9     Er     0.2826   0.4712   0.0991
V10     V     0.25   0.5   0.0259
Er11     Er     0.7174   0.0288   0.0991
V12     V     0.75   0.0   0.0259
V13     V     0.25   0.0   0.2241
Er14     Er     0.2212   0.9674   0.1509
V15     V     0.75   0.5   0.2241
Er16     Er     0.7788   0.5326   0.1509
Er17     Er     0.7174   0.5288   0.9009
V18     V     0.75   0.5   0.9741
Er19     Er     0.2826   0.9712   0.9009
V20     V     0.25   0.0   0.9741
V21     V     0.75   0.0   0.7759
Er22     Er     0.7788   0.0326   0.8491
V23     V     0.25   0.5   0.7759
Er24     Er     0.2212   0.4674   0.8491
Er25     Er     0.7212   0.4674   0.6509
V26     V     0.75   0.5   0.7241
V27     V     0.25   0.0   0.7241
Er28     Er     0.2788   0.0326   0.6509
V29     V     0.25   0.5   0.5259
Er30     Er     0.2174   0.5288   0.5991
V31     V     0.75   0.0   0.5259
Er32     Er     0.7826   0.9712   0.5991
loop_
_geom_bond_atom_site_label_1
_geom_bond_atom_site_label_2
_geom_bond_distance
_geom_bond_site_symmetry_2
_ccdc_geom_bond_type
Er1     V2    9.999   .     S
Er1     Er3    10.0   1_455     S
Er1     Er6    10.001   1_565     S
Er1     Er8    10.001   1_455     S
V2     V15    10.001   1_455     S
V2     V13    10.001   .     S
V2     V15    10.001   .     S
V2     V4    10.0   1_455     S
V2     V4    10.0   .     S
Er3     V4    9.999   1_565     S
Er3     Er1    10.0   1_655     S
Er3     Er8    10.001   .     S
Er3     Er6    10.001   1_665     S
V4     V15    10.001   .     S
V4     V13    10.001   1_655     S
V4     V13    10.001   .     S
V4     Er3    9.999   1_545     S
V4     V2    10.0   1_655     S
V5     Er6    9.999   .     S
V5     V7    10.0   1_545     S
V5     V7    10.0   .     S
V5     V29    10.001   .     S
V5     V31    10.001   .     S
V5     V29    10.001   1_545     S
Er6     Er3    10.001   1_445     S
Er6     Er1    10.001   1_545     S
Er6     Er8    10.0   1_445     S
V7     Er8    9.999   .     S
V7     V5    10.0   1_565     S
V7     V29    10.001   .     S
V7     V31    10.001   1_565     S
V7     V31    10.001   .     S
Er8     Er1    10.001   1_655     S
Er8     Er6    10.0   1_665     S
Er9     V10    9.999   .     S
Er9     Er11    10.0   1_565     S
Er9     Er16    10.001   .     S
Er9     Er14    10.001   .     S
V10     V20    10.001   1_564     S
V10     V20    10.001   1_554     S
V10     V18    10.001   1_454     S
V10     V12    10.0   1_465     S
V10     V12    10.0   1_455     S
Er11     V12    9.999   .     S
Er11     Er9    10.0   1_545     S
Er11     Er16    10.001   1_545     S
Er11     Er14    10.001   1_545     S
V12     V18    10.001   1_554     S
V12     V20    10.001   1_654     S
V12     V18    10.001   1_544     S
V12     V10    10.0   1_645     S
V12     V10    10.0   1_655     S
V13     V4    10.001   1_455     S
V13     Er14    9.999   1_545     S
V13     V15    10.0   .     S
V13     V15    10.0   1_455     S
Er14     Er11    10.001   1_565     S
Er14     V13    9.999   1_565     S
Er14     Er16    10.0   .     S
V15     V2    10.001   1_655     S
V15     Er16    9.999   .     S
V15     V13    10.0   1_655     S
Er16     Er11    10.001   1_565     S
Er17     V18    9.999   .     S
Er17     Er19    10.0   1_545     S
Er17     Er24    10.001   .     S
Er17     Er22    10.001   .     S
V18     V12    10.001   1_556     S
V18     V12    10.001   1_566     S
V18     V10    10.001   1_656     S
V18     V20    10.0   1_655     S
V18     V20    10.0   1_665     S
Er19     V20    9.999   1_565     S
Er19     Er17    10.0   1_565     S
Er19     Er24    10.001   1_565     S
Er19     Er22    10.001   1_565     S
V20     V12    10.001   1_456     S
V20     V10    10.001   1_546     S
V20     V10    10.001   1_556     S
V20     Er19    9.999   1_545     S
V20     V18    10.0   1_455     S
V20     V18    10.0   1_445     S
V21     Er22    9.999   .     S
V21     V23    10.0   1_645     S
V21     V23    10.0   1_545     S
V21     V27    10.001   1_655     S
V21     V26    10.001   1_545     S
V21     V27    10.001   .     S
Er22     Er19    10.001   1_545     S
Er22     Er24    10.0   .     S
V23     Er24    9.999   .     S
V23     V21    10.0   1_465     S
V23     V21    10.0   1_565     S
V23     V27    10.001   1_565     S
V23     V26    10.001   1_455     S
V23     V26    10.001   .     S
Er24     Er19    10.001   1_545     S
Er25     V26    9.999   .     S
Er25     Er28    10.0   1_655     S
Er25     Er30    10.001   1_655     S
Er25     Er32    10.001   1_545     S
V26     V21    10.001   1_565     S
V26     V23    10.001   1_655     S
V26     V27    10.0   1_665     S
V26     V27    10.0   1_565     S
V27     V21    10.001   1_455     S
V27     V23    10.001   1_545     S
V27     Er28    9.999   .     S
V27     V26    10.0   1_445     S
V27     V26    10.0   1_545     S
Er28     Er25    10.0   1_455     S
Er28     Er32    10.001   1_445     S
Er28     Er30    10.001   .     S
V29     V5    10.001   1_565     S
V29     Er30    9.999   .     S
V29     V31    10.0   .     S
V29     V31    10.0   1_565     S
Er30     Er25    10.001   1_455     S
Er30     Er32    10.0   1_445     S
V31     V7    10.001   1_545     S
V31     Er32    9.999   1_545     S
V31     V29    10.0   1_545     S
Er32     Er28    10.001   1_665     S
Er32     Er25    10.001   1_565     S
Er32     V31    9.999   1_565     S
Er32     Er30    10.0   1_665     S
