data_sssa
_audit_creation_date              2020-02-04
_audit_creation_method            'Pymatgen'
_symmetry_space_group_name_H-M    'P1'
_symmetry_Int_Tables_number       1
loop_
_symmetry_equiv_pos_as_xyz
  x,y,z
_cell_length_a                    54.1421
_cell_length_b                    54.1421
_cell_length_c                    37.4837
_cell_angle_alpha                 90.0
_cell_angle_beta                 90.0
_cell_angle_gamma                 120.0
loop_
_atom_site_label
_atom_site_type_symbol
_atom_site_fract_x
_atom_site_fract_y
_atom_site_fract_z
Ti1     Ti     0.3949   0.7898   0.3666
Ti2     Ti     0.3949   0.7898   0.6334
Ti3     Ti     0.6051   0.2102   0.3666
Ti4     Ti     0.6051   0.2102   0.6334
Ce5     Ce     0.5533   0.1066   0.1334
Ce6     Ce     0.4467   0.8934   0.1334
Ce7     Ce     0.4467   0.8934   0.8666
Ce8     Ce     0.5533   0.1066   0.8666
Ti9     Ti     0.7898   0.3949   0.3666
Ti10     Ti     0.7898   0.3949   0.6334
Ce11     Ce     0.8934   0.4467   0.1334
Ce12     Ce     0.1066   0.5533   0.1334
Ce13     Ce     0.1066   0.5533   0.8666
Ce14     Ce     0.8934   0.4467   0.8666
Ti15     Ti     0.2102   0.6051   0.6334
Ti16     Ti     0.2102   0.6051   0.3666
Ti17     Ti     0.6051   0.3949   0.6334
Ti18     Ti     0.6051   0.3949   0.3666
Ce19     Ce     0.4467   0.5533   0.1334
Ce20     Ce     0.5533   0.4467   0.1334
Ce21     Ce     0.4467   0.5533   0.8666
Ce22     Ce     0.5533   0.4467   0.8666
Ti23     Ti     0.3949   0.6051   0.3666
Ti24     Ti     0.3949   0.6051   0.6334
Er25     Er     0.8153   0.0   0.0
V26     V     0.6306   0.0   0.0
Er27     Er     0.8153   0.8153   0.0
V28     V     0.6306   0.6306   0.0
V29     V     0.3694   0.3694   0.0
V30     V     0.3694   0.0   0.0
V31     V     0.0   0.6306   0.0
Er32     Er     0.0   0.1847   0.0
Er33     Er     0.1847   0.1847   0.0
V34     V     0.0   0.3694   0.0
Er35     Er     0.1847   0.0   0.0
Er36     Er     0.0   0.8153   0.0
loop_
_geom_bond_atom_site_label_1
_geom_bond_atom_site_label_2
_geom_bond_distance
_geom_bond_site_symmetry_2
_ccdc_geom_bond_type
Ti1     Ti2    10.0   .     S
Ti1     Ce6    10.0   .     S
Ti1     Ti23    10.0   .     S
Ti1     Ti16    10.0   .     S
Ti2     Ce7    10.0   .     S
Ti2     Ti24    10.0   .     S
Ti2     Ti15    10.0   .     S
Ti3     Ti4    10.0   .     S
Ti3     Ce5    10.0   .     S
Ti3     Ti9    10.0   .     S
Ti3     Ti18    10.0   .     S
Ti4     Ti17    10.0   .     S
Ti4     Ti10    10.0   .     S
Ti4     Ce8    10.0   .     S
Ce5     V26    10.0   .     S
Ce5     Ce6    10.0   1_545     S
Ce5     V30    10.0   .     S
Ce5     Ce8    10.0   1_554     S
Ce6     Ce5    10.0   1_565     S
Ce6     V30    10.0   1_565     S
Ce6     V26    10.0   1_565     S
Ce6     Ce7    10.0   1_554     S
Ce7     V30    10.0   1_566     S
Ce7     Ce8    10.0   1_565     S
Ce7     V26    10.0   1_566     S
Ce7     Ce6    10.0   1_556     S
Ce8     V26    10.0   1_556     S
Ce8     Ce7    10.0   1_545     S
Ce8     V30    10.0   1_556     S
Ce8     Ce5    10.0   1_556     S
Ti9     Ti10    10.0   .     S
Ti9     Ce11    10.0   .     S
Ti9     Ti18    10.0   .     S
Ti10     Ce14    10.0   .     S
Ti10     Ti17    10.0   .     S
Ce11     V34    10.0   1_655     S
Ce11     V31    10.0   1_655     S
Ce11     Ce12    10.0   1_655     S
Ce11     Ce14    10.0   1_554     S
Ce12     V34    10.0   .     S
Ce12     Ce11    10.0   1_455     S
Ce12     V31    10.0   .     S
Ce12     Ce13    10.0   1_554     S
Ce12     Ti16    10.0   .     S
Ce13     V34    10.0   1_556     S
Ce13     Ce14    10.0   1_455     S
Ce13     V31    10.0   1_556     S
Ce13     Ce12    10.0   1_556     S
Ce13     Ti15    10.0   .     S
Ce14     Ce13    10.0   1_655     S
Ce14     V34    10.0   1_656     S
Ce14     V31    10.0   1_656     S
Ce14     Ce11    10.0   1_556     S
Ti15     Ti16    10.0   .     S
Ti15     Ti24    10.0   .     S
Ti16     Ti23    10.0   .     S
Ti17     Ti18    10.0   .     S
Ti17     Ce22    10.0   .     S
Ti18     Ce20    10.0   .     S
Ce19     Ce20    10.0   .     S
Ce19     V29    10.0   .     S
Ce19     V28    10.0   .     S
Ce19     Ce21    10.0   1_554     S
Ce19     Ti23    10.0   .     S
Ce20     V28    10.0   .     S
Ce20     V29    10.0   .     S
Ce20     Ce22    10.0   1_554     S
Ce21     Ce22    10.0   .     S
Ce21     V28    10.0   1_556     S
Ce21     V29    10.0   1_556     S
Ce21     Ce19    10.0   1_556     S
Ce21     Ti24    10.0   .     S
Ce22     V28    10.0   1_556     S
Ce22     V29    10.0   1_556     S
Ce22     Ce20    10.0   1_556     S
Ti23     Ti24    10.0   .     S
Er25     V26    10.0   .     S
Er25     Er32    10.0   1_655     S
Er25     Er27    10.0   1_545     S
V26     Ce6    10.0   1_545     S
V26     Ce8    10.0   1_554     S
V26     Ce7    10.0   1_544     S
Er27     Er36    10.0   1_655     S
Er27     V28    10.0   .     S
Er27     Er25    10.0   1_565     S
V28     Ce22    10.0   1_554     S
V28     Ce21    10.0   1_554     S
V29     Ce21    10.0   1_554     S
V29     Ce22    10.0   1_554     S
V29     Er33    10.0   .     S
V30     Ce6    10.0   1_545     S
V30     Ce7    10.0   1_544     S
V30     Ce8    10.0   1_554     S
V30     Er35    10.0   .     S
V31     Ce11    10.0   1_455     S
V31     Ce13    10.0   1_554     S
V31     Ce14    10.0   1_454     S
V31     Er36    10.0   .     S
Er32     Er25    10.0   1_455     S
Er32     Er33    10.0   .     S
Er32     V34    10.0   .     S
Er33     Er35    10.0   .     S
V34     Ce11    10.0   1_455     S
V34     Ce13    10.0   1_554     S
V34     Ce14    10.0   1_454     S
Er35     Er36    10.0   1_545     S
Er36     Er27    10.0   1_455     S
Er36     Er35    10.0   1_565     S
