data_stda
_audit_creation_date              2020-02-04
_audit_creation_method            'Pymatgen'
_symmetry_space_group_name_H-M    'P1'
_symmetry_Int_Tables_number       1
loop_
_symmetry_equiv_pos_as_xyz
  x,y,z
_cell_length_a                    34.4827
_cell_length_b                    34.4827
_cell_length_c                    120.3279
_cell_angle_alpha                 90.0
_cell_angle_beta                 90.0
_cell_angle_gamma                 120.0
loop_
_atom_site_label
_atom_site_type_symbol
_atom_site_fract_x
_atom_site_fract_y
_atom_site_fract_z
Ce1     Ce     0.0966   0.9034   0.7916
Ce2     Ce     0.0966   0.1933   0.7916
Ce3     Ce     0.8067   0.9034   0.7916
Ce4     Ce     0.0966   0.9034   0.7084
Ce5     Ce     0.0966   0.1933   0.7084
Ce6     Ce     0.8067   0.9034   0.7084
Ti7     Ti     0.2367   0.4734   0.8373
Ti8     Ti     0.2367   0.7633   0.8373
Ti9     Ti     0.5266   0.7633   0.8373
Er10     Er     0.2367   0.7633   0.9204
Er11     Er     0.2367   0.4734   0.9204
Er12     Er     0.5266   0.7633   0.9204
Ti13     Ti     0.4734   0.2367   0.1627
Ti14     Ti     0.7633   0.2367   0.1627
Ti15     Ti     0.7633   0.5266   0.1627
Er16     Er     0.7633   0.2367   0.0796
Er17     Er     0.4734   0.2367   0.0796
Er18     Er     0.7633   0.5266   0.0796
V19     V     0.9034   0.0966   0.0339
V20     V     0.8068   0.9034   0.9661
V21     V     0.9034   0.8068   0.0339
V22     V     0.0966   0.1932   0.9661
V23     V     0.0966   0.9034   0.9661
V24     V     0.1932   0.0966   0.0339
Ce25     Ce     0.9034   0.8067   0.2915
Ce26     Ce     0.1933   0.0966   0.2915
Ce27     Ce     0.9034   0.0966   0.2915
Ce28     Ce     0.1933   0.0966   0.2084
Ce29     Ce     0.9034   0.8067   0.2084
Ce30     Ce     0.9034   0.0966   0.2084
Ti31     Ti     0.2367   0.4734   0.6627
Ti32     Ti     0.2367   0.7633   0.6627
Ti33     Ti     0.5266   0.7633   0.6627
Er34     Er     0.2367   0.7633   0.5796
Er35     Er     0.2367   0.4734   0.5796
Er36     Er     0.5266   0.7633   0.5796
Ti37     Ti     0.4734   0.2367   0.3373
Ti38     Ti     0.7633   0.2367   0.3373
Ti39     Ti     0.7633   0.5266   0.3373
Er40     Er     0.7633   0.2367   0.4204
Er41     Er     0.7633   0.5266   0.4204
Er42     Er     0.4734   0.2367   0.4204
V43     V     0.0966   0.1932   0.5339
V44     V     0.0966   0.9034   0.5339
V45     V     0.1932   0.0966   0.4661
V46     V     0.9034   0.0966   0.4661
V47     V     0.9034   0.8068   0.4661
V48     V     0.8068   0.9034   0.5339
loop_
_geom_bond_atom_site_label_1
_geom_bond_atom_site_label_2
_geom_bond_distance
_geom_bond_site_symmetry_2
_ccdc_geom_bond_type
Ce1     Ce3    9.996   1_455     S
Ce1     Ce2    9.996   1_565     S
Ce1     Ce4    9.999   .     S
Ce1     Ti8    10.014   .     S
Ce2     Ce3    9.996   1_445     S
Ce2     Ce1    9.996   1_545     S
Ce2     Ce5    9.999   .     S
Ce2     Ti7    10.014   .     S
Ce3     Ce1    9.996   1_655     S
Ce3     Ce2    9.996   1_665     S
Ce3     Ce6    9.999   .     S
Ce3     Ti9    10.014   .     S
Ce4     Ce6    9.996   1_455     S
Ce4     Ce5    9.996   1_565     S
Ce4     Ti32    10.014   .     S
Ce5     Ce6    9.996   1_445     S
Ce5     Ce4    9.996   1_545     S
Ce5     Ti31    10.014   .     S
Ce6     Ce4    9.996   1_655     S
Ce6     Ce5    9.996   1_665     S
Ce6     Ti33    10.014   .     S
Ti7     Ti8    9.996   .     S
Ti7     Ti9    9.996   .     S
Ti7     Er11    9.998   .     S
Ti8     Ti9    9.996   .     S
Ti8     Er10    9.998   .     S
Ti9     Er12    9.998   .     S
Er10     Er12    9.997   .     S
Er10     Er11    9.997   .     S
Er10     V23    10.014   .     S
Er11     Er12    9.997   .     S
Er11     V22    10.014   .     S
Er12     V20    10.014   .     S
Ti13     Ti15    9.996   .     S
Ti13     Ti14    9.996   .     S
Ti13     Er17    9.998   .     S
Ti13     Ce28    10.014   .     S
Ti14     Ti15    9.996   .     S
Ti14     Er16    9.998   .     S
Ti14     Ce30    10.014   .     S
Ti15     Er18    9.998   .     S
Ti15     Ce29    10.014   .     S
Er16     Er17    9.997   .     S
Er16     Er18    9.997   .     S
Er16     V19    10.014   .     S
Er17     Er18    9.997   .     S
Er17     V24    10.014   .     S
Er18     V21    10.014   .     S
V19     V22    9.992   1_654     S
V19     V20    9.992   1_544     S
V19     V21    9.993   1_545     S
V19     V24    9.993   1_655     S
V20     V19    9.992   1_566     S
V20     V21    9.992   1_556     S
V20     V23    9.993   1_655     S
V20     V22    9.993   1_665     S
V21     V23    9.992   1_654     S
V21     V20    9.992   1_554     S
V21     V19    9.993   1_565     S
V21     V24    9.993   1_665     S
V22     V19    9.992   1_456     S
V22     V24    9.992   1_556     S
V22     V23    9.993   1_545     S
V22     V20    9.993   1_445     S
V23     V21    9.992   1_456     S
V23     V24    9.992   1_566     S
V23     V20    9.993   1_455     S
V23     V22    9.993   1_565     S
V24     V23    9.992   1_544     S
V24     V22    9.992   1_554     S
V24     V21    9.993   1_445     S
V24     V19    9.993   1_455     S
Ce25     Ce26    9.996   1_665     S
Ce25     Ce27    9.996   1_565     S
Ce25     Ce29    9.999   .     S
Ce25     Ti39    10.014   .     S
Ce26     Ce25    9.996   1_445     S
Ce26     Ce27    9.996   1_455     S
Ce26     Ce28    9.999   .     S
Ce26     Ti37    10.014   .     S
Ce27     Ce25    9.996   1_545     S
Ce27     Ce26    9.996   1_655     S
Ce27     Ce30    9.999   .     S
Ce27     Ti38    10.014   .     S
Ce28     Ce30    9.996   1_455     S
Ce28     Ce29    9.996   1_445     S
Ce29     Ce28    9.996   1_665     S
Ce29     Ce30    9.996   1_565     S
Ce30     Ce28    9.996   1_655     S
Ce30     Ce29    9.996   1_545     S
Ti31     Ti32    9.996   .     S
Ti31     Ti33    9.996   .     S
Ti31     Er35    9.998   .     S
Ti32     Ti33    9.996   .     S
Ti32     Er34    9.998   .     S
Ti33     Er36    9.998   .     S
Er34     Er36    9.997   .     S
Er34     Er35    9.997   .     S
Er34     V44    10.014   .     S
Er35     Er36    9.997   .     S
Er35     V43    10.014   .     S
Er36     V48    10.014   .     S
Ti37     Ti39    9.996   .     S
Ti37     Ti38    9.996   .     S
Ti37     Er42    9.998   .     S
Ti38     Ti39    9.996   .     S
Ti38     Er40    9.998   .     S
Ti39     Er41    9.998   .     S
Er40     Er41    9.997   .     S
Er40     Er42    9.997   .     S
Er40     V46    10.014   .     S
Er41     V47    10.014   .     S
Er41     Er42    9.997   .     S
Er42     V45    10.014   .     S
V43     V46    9.992   1_455     S
V43     V45    9.992   .     S
V43     V48    9.993   1_445     S
V43     V44    9.993   1_545     S
V44     V45    9.992   1_565     S
V44     V47    9.992   1_455     S
V44     V48    9.993   1_455     S
V44     V43    9.993   1_565     S
V45     V44    9.992   1_545     S
V45     V47    9.993   1_445     S
V45     V46    9.993   1_455     S
V46     V43    9.992   1_655     S
V46     V48    9.992   1_545     S
V46     V47    9.993   1_545     S
V46     V45    9.993   1_655     S
V47     V48    9.992   .     S
V47     V44    9.992   1_655     S
V47     V46    9.993   1_565     S
V47     V45    9.993   1_665     S
V48     V46    9.992   1_565     S
V48     V44    9.993   1_655     S
V48     V43    9.993   1_665     S
