data_stea
_audit_creation_date              2020-02-04
_audit_creation_method            'Pymatgen'
_symmetry_space_group_name_H-M    'P1'
_symmetry_Int_Tables_number       1
loop_
_symmetry_equiv_pos_as_xyz
  x,y,z
_cell_length_a                    34.2618
_cell_length_b                    34.2618
_cell_length_c                    114.5664
_cell_angle_alpha                 90.0
_cell_angle_beta                 90.0
_cell_angle_gamma                 120.0
loop_
_atom_site_label
_atom_site_type_symbol
_atom_site_fract_x
_atom_site_fract_y
_atom_site_fract_z
Er1     Er     0.8611   0.4306   0.6566
Er2     Er     0.5694   0.4306   0.6566
Er3     Er     0.5694   0.1389   0.6566
V4     V     0.4722   0.2361   0.5854
V5     V     0.7639   0.2361   0.5854
V6     V     0.7639   0.5278   0.5854
Er7     Er     0.4306   0.8611   0.3434
Er8     Er     0.4306   0.5694   0.3434
Er9     Er     0.1389   0.5694   0.3434
V10     V     0.5278   0.7639   0.4146
V11     V     0.2361   0.4722   0.4146
V12     V     0.2361   0.7639   0.4146
Ce13     Ce     0.0972   0.1945   0.4644
Ce14     Ce     0.8055   0.9028   0.4644
Ce15     Ce     0.9028   0.8055   0.5356
Ce16     Ce     0.9028   0.0972   0.5356
Ce17     Ce     0.1945   0.0972   0.5356
Ce18     Ce     0.0972   0.9028   0.4644
Ti19     Ti     0.8612   0.4306   0.2064
Ti20     Ti     0.5694   0.4306   0.2064
Ti21     Ti     0.5694   0.1388   0.2064
Ti22     Ti     0.8612   0.4306   0.2936
Ti23     Ti     0.5694   0.1388   0.2936
Ti24     Ti     0.5694   0.4306   0.2936
Ti25     Ti     0.4306   0.8612   0.7064
Ti26     Ti     0.4306   0.5694   0.7064
Ti27     Ti     0.1388   0.5694   0.7064
Ti28     Ti     0.4306   0.8612   0.7936
Ti29     Ti     0.4306   0.5694   0.7936
Ti30     Ti     0.1388   0.5694   0.7936
Er31     Er     0.8611   0.4306   0.8434
Er32     Er     0.5694   0.4306   0.8434
Er33     Er     0.5694   0.1389   0.8434
V34     V     0.4722   0.2361   0.9146
V35     V     0.7639   0.2361   0.9146
V36     V     0.7639   0.5278   0.9146
Ce37     Ce     0.0972   0.9028   0.0356
Ce38     Ce     0.8055   0.9028   0.0356
Ce39     Ce     0.0972   0.1945   0.0356
Ce40     Ce     0.9028   0.8055   0.9644
Ce41     Ce     0.1945   0.0972   0.9644
Ce42     Ce     0.9028   0.0972   0.9644
Er43     Er     0.4306   0.8611   0.1566
Er44     Er     0.4306   0.5694   0.1566
Er45     Er     0.1389   0.5694   0.1566
V46     V     0.2361   0.4722   0.0854
V47     V     0.5278   0.7639   0.0854
V48     V     0.2361   0.7639   0.0854
loop_
_geom_bond_atom_site_label_1
_geom_bond_atom_site_label_2
_geom_bond_distance
_geom_bond_site_symmetry_2
_ccdc_geom_bond_type
Er1     Er2    9.993   .     S
Er1     Er3    9.993   .     S
Er1     V6    9.993   .     S
Er1     V5    9.993   .     S
Er1     Ti27    10.02   1_655     S
Er2     Er3    9.993   .     S
Er2     V4    9.993   .     S
Er2     V6    9.993   .     S
Er2     Ti26    10.02   .     S
Er3     V5    9.993   .     S
Er3     V4    9.993   .     S
Er3     Ti25    10.02   1_545     S
V4     V6    9.994   .     S
V4     V5    9.994   .     S
V4     Ce17    10.019   .     S
V5     V6    9.994   .     S
V5     Ce16    10.019   .     S
V6     Ce15    10.019   .     S
Er7     Er8    9.993   .     S
Er7     Er9    9.993   .     S
Er7     V10    9.993   .     S
Er7     V12    9.993   .     S
Er7     Ti23    10.02   1_565     S
Er8     Er9    9.993   .     S
Er8     V11    9.993   .     S
Er8     V10    9.993   .     S
Er8     Ti24    10.02   .     S
Er9     V12    9.993   .     S
Er9     V11    9.993   .     S
Er9     Ti22    10.02   1_455     S
V10     V12    9.994   .     S
V10     V11    9.994   .     S
V10     Ce14    10.019   .     S
V11     V12    9.994   .     S
V11     Ce13    10.019   .     S
V12     Ce18    10.019   .     S
Ce13     Ce14    9.994   1_445     S
Ce13     Ce18    9.994   1_545     S
Ce13     Ce17    9.993   .     S
Ce13     Ce16    9.993   1_455     S
Ce14     Ce13    9.994   1_665     S
Ce14     Ce18    9.994   1_655     S
Ce14     Ce16    9.993   1_565     S
Ce14     Ce15    9.993   .     S
Ce15     Ce17    9.994   1_665     S
Ce15     Ce18    9.993   1_655     S
Ce15     Ce16    9.994   1_565     S
Ce16     Ce17    9.994   1_655     S
Ce16     Ce15    9.994   1_545     S
Ce16     Ce14    9.993   1_545     S
Ce16     Ce13    9.993   1_655     S
Ce17     Ce15    9.994   1_445     S
Ce17     Ce16    9.994   1_455     S
Ce17     Ce18    9.993   1_545     S
Ce18     Ce13    9.994   1_565     S
Ce18     Ce14    9.994   1_455     S
Ce18     Ce15    9.993   1_455     S
Ce18     Ce17    9.993   1_565     S
Ti19     Ti21    9.998   .     S
Ti19     Ti20    9.998   .     S
Ti19     Ti22    10.002   .     S
Ti19     Er45    10.02   1_655     S
Ti20     Ti21    9.998   .     S
Ti20     Ti24    10.002   .     S
Ti20     Er44    10.02   .     S
Ti21     Ti23    10.002   .     S
Ti21     Er43    10.02   1_545     S
Ti22     Ti23    9.998   .     S
Ti22     Ti24    9.998   .     S
Ti22     Er9    10.02   1_655     S
Ti23     Ti24    9.998   .     S
Ti23     Er7    10.02   1_545     S
Ti25     Ti28    10.002   .     S
Ti25     Ti26    9.998   .     S
Ti25     Ti27    9.998   .     S
Ti25     Er3    10.02   1_565     S
Ti26     Ti27    9.998   .     S
Ti26     Ti29    10.002   .     S
Ti27     Ti30    10.002   .     S
Ti27     Er1    10.02   1_455     S
Ti28     Ti30    9.998   .     S
Ti28     Ti29    9.998   .     S
Ti28     Er33    10.02   1_565     S
Ti29     Ti30    9.998   .     S
Ti29     Er32    10.02   .     S
Ti30     Er31    10.02   1_455     S
Er31     Er32    9.993   .     S
Er31     Er33    9.993   .     S
Er31     V36    9.993   .     S
Er31     V35    9.993   .     S
Er31     Ti30    10.02   1_655     S
Er32     Er33    9.993   .     S
Er32     V34    9.993   .     S
Er32     V36    9.993   .     S
Er33     V35    9.993   .     S
Er33     V34    9.993   .     S
Er33     Ti28    10.02   1_545     S
V34     V36    9.994   .     S
V34     V35    9.994   .     S
V34     Ce41    10.019   .     S
V35     V36    9.994   .     S
V35     Ce42    10.019   .     S
V36     Ce40    10.019   .     S
Ce37     Ce40    9.993   1_454     S
Ce37     Ce38    9.994   1_455     S
Ce37     Ce41    9.993   1_564     S
Ce37     Ce39    9.994   1_565     S
Ce37     V48    10.019   .     S
Ce38     Ce37    9.994   1_655     S
Ce38     Ce40    9.993   1_554     S
Ce38     Ce39    9.994   1_665     S
Ce38     Ce42    9.993   1_564     S
Ce38     V47    10.019   .     S
Ce39     Ce41    9.993   1_554     S
Ce39     Ce42    9.993   1_454     S
Ce39     Ce38    9.994   1_445     S
Ce39     Ce37    9.994   1_545     S
Ce39     V46    10.019   .     S
Ce40     Ce41    9.994   1_665     S
Ce40     Ce37    9.993   1_656     S
Ce40     Ce38    9.993   1_556     S
Ce40     Ce42    9.994   1_565     S
Ce41     Ce40    9.994   1_445     S
Ce41     Ce37    9.993   1_546     S
Ce41     Ce39    9.993   1_556     S
Ce41     Ce42    9.994   1_455     S
Ce42     Ce39    9.993   1_656     S
Ce42     Ce38    9.993   1_546     S
Ce42     Ce41    9.994   1_655     S
Ce42     Ce40    9.994   1_545     S
Er43     Er44    9.993   .     S
Er43     Er45    9.993   .     S
Er43     V48    9.993   .     S
Er43     V47    9.993   .     S
Er43     Ti21    10.02   1_565     S
Er44     Er45    9.993   .     S
Er44     V47    9.993   .     S
Er44     V46    9.993   .     S
Er45     V46    9.993   .     S
Er45     V48    9.993   .     S
Er45     Ti19    10.02   1_455     S
V46     V48    9.994   .     S
V46     V47    9.994   .     S
V47     V48    9.994   .     S
