data_str
_audit_creation_date              2020-02-04
_audit_creation_method            'Pymatgen'
_symmetry_space_group_name_H-M    'P1'
_symmetry_Int_Tables_number       1
loop_
_symmetry_equiv_pos_as_xyz
  x,y,z
_cell_length_a                    47.1557
_cell_length_b                    47.1557
_cell_length_c                    47.1557
_cell_angle_alpha                 90.0
_cell_angle_beta                 90.0
_cell_angle_gamma                 90.0
loop_
_atom_site_label
_atom_site_type_symbol
_atom_site_fract_x
_atom_site_fract_y
_atom_site_fract_z
Er1     Er     0.8   0.8   0.8
Er2     Er     0.8   0.95   0.95
Er3     Er     0.95   0.95   0.8
Er4     Er     0.95   0.8   0.95
Er5     Er     0.3001   0.45   0.95
Er6     Er     0.45   0.45   0.8
Er7     Er     0.3   0.3   0.8
Er8     Er     0.45   0.3   0.95
Er9     Er     0.55   0.2   0.55
Er10     Er     0.7   0.2   0.7
Er11     Er     0.7   0.05   0.55
Er12     Er     0.55   0.05   0.7
V13     V     0.5   0.25   0.75
Er14     Er     0.3001   0.8   0.3001
Er15     Er     0.45   0.8   0.45
Er16     Er     0.3001   0.95   0.45
Er17     Er     0.45   0.95   0.3
Er18     Er     0.2   0.7   0.7
Er19     Er     0.1999   0.55   0.55
Er20     Er     0.05   0.7   0.55
Er21     Er     0.05   0.55   0.7
V22     V     0.25   0.75   0.5
V23     V     0.25   0.5   0.75
Er24     Er     0.55   0.55   0.2
Er25     Er     0.7   0.55   0.05
Er26     Er     0.55   0.7   0.05
Er27     Er     0.7   0.7   0.1999
Er28     Er     0.8   0.45   0.45
Er29     Er     0.8   0.3   0.3
Er30     Er     0.95   0.3   0.45
Er31     Er     0.95   0.45   0.3
V32     V     0.75   0.5   0.25
V33     V     0.75   0.75   0.0
Er34     Er     0.2   0.2   0.2
Er35     Er     0.05   0.05   0.2
Er36     Er     0.05   0.2   0.05
Er37     Er     0.2   0.05   0.05
V38     V     0.25   0.25   0.0
V39     V     0.25   0.0   0.25
V40     V     0.0   0.0   0.0
V41     V     0.0   0.25   0.25
V42     V     0.5   0.75   0.25
V43     V     0.0   0.5   0.5
V44     V     0.5   0.5   0.0
V45     V     0.5   0.0   0.5
V46     V     0.75   0.25   0.5
V47     V     0.75   0.0   0.75
V48     V     0.0   0.75   0.75
loop_
_geom_bond_atom_site_label_1
_geom_bond_atom_site_label_2
_geom_bond_distance
_geom_bond_site_symmetry_2
_ccdc_geom_bond_type
Er1     V33    10.002   1_556     S
Er1     V48    10.002   1_655     S
Er1     V47    10.002   1_565     S
Er1     Er2    9.997   .     S
Er1     Er4    9.997   .     S
Er1     Er3    9.997   .     S
Er2     V40    10.002   1_666     S
Er2     V33    10.002   1_556     S
Er2     V47    10.002   1_565     S
Er2     Er3    9.997   .     S
Er2     Er4    9.997   .     S
Er3     V40    10.002   1_666     S
Er3     V48    10.002   1_655     S
Er3     V47    10.002   1_565     S
Er3     Er4    9.997   .     S
Er4     V40    10.002   1_666     S
Er4     V33    10.002   1_556     S
Er4     V48    10.002   1_655     S
Er5     V44    10.002   1_556     S
Er5     V38    10.002   1_556     S
Er5     V23    10.002   .     S
Er5     Er8    9.997   .     S
Er5     Er7    9.997   .     S
Er5     Er6    9.997   .     S
Er6     V44    10.002   1_556     S
Er6     V23    10.002   .     S
Er6     V13    10.002   .     S
Er6     Er7    9.997   .     S
Er6     Er8    9.997   .     S
Er7     V38    10.002   1_556     S
Er7     V23    10.002   .     S
Er7     V13    10.002   .     S
Er7     Er8    9.997   .     S
Er8     V44    10.002   1_556     S
Er8     V38    10.002   1_556     S
Er8     V13    10.002   .     S
Er9     V45    10.002   .     S
Er9     V13    10.002   .     S
Er9     V46    10.002   .     S
Er9     Er11    9.997   .     S
Er9     Er10    9.997   .     S
Er9     Er12    9.997   .     S
Er10     V13    10.002   .     S
Er10     V46    10.002   .     S
Er10     V47    10.002   .     S
Er10     Er11    9.997   .     S
Er10     Er12    9.997   .     S
Er11     V45    10.002   .     S
Er11     V46    10.002   .     S
Er11     V47    10.002   .     S
Er11     Er12    9.997   .     S
Er12     V45    10.002   .     S
Er12     V13    10.002   .     S
Er12     V47    10.002   .     S
Er14     V39    10.002   1_565     S
Er14     V22    10.002   .     S
Er14     V42    10.002   .     S
Er14     Er17    9.997   .     S
Er14     Er16    9.997   .     S
Er14     Er15    9.997   .     S
Er15     V45    10.002   1_565     S
Er15     V22    10.002   .     S
Er15     V42    10.002   .     S
Er15     Er16    9.997   .     S
Er15     Er17    9.997   .     S
Er16     V45    10.002   1_565     S
Er16     V39    10.002   1_565     S
Er16     V22    10.002   .     S
Er16     Er17    9.997   .     S
Er17     V45    10.002   1_565     S
Er17     V39    10.002   1_565     S
Er17     V42    10.002   .     S
Er18     V22    10.002   .     S
Er18     V23    10.002   .     S
Er18     V48    10.002   .     S
Er18     Er21    9.997   .     S
Er18     Er19    9.997   .     S
Er18     Er20    9.997   .     S
Er19     V43    10.002   .     S
Er19     V22    10.002   .     S
Er19     V23    10.002   .     S
Er19     Er21    9.997   .     S
Er19     Er20    9.997   .     S
Er20     V43    10.002   .     S
Er20     V22    10.002   .     S
Er20     V48    10.002   .     S
Er20     Er21    9.997   .     S
Er21     V43    10.002   .     S
Er21     V23    10.002   .     S
Er21     V48    10.002   .     S
Er24     V44    10.002   .     S
Er24     V42    10.002   .     S
Er24     V32    10.002   .     S
Er24     Er27    9.997   .     S
Er24     Er25    9.997   .     S
Er24     Er26    9.997   .     S
Er25     V44    10.002   .     S
Er25     V32    10.002   .     S
Er25     V33    10.002   .     S
Er25     Er27    9.997   .     S
Er25     Er26    9.997   .     S
Er26     V44    10.002   .     S
Er26     V42    10.002   .     S
Er26     V33    10.002   .     S
Er26     Er27    9.997   .     S
Er27     V42    10.002   .     S
Er27     V32    10.002   .     S
Er27     V33    10.002   .     S
Er28     V43    10.002   1_655     S
Er28     V32    10.002   .     S
Er28     V46    10.002   .     S
Er28     Er29    9.997   .     S
Er28     Er30    9.997   .     S
Er28     Er31    9.997   .     S
Er29     V41    10.002   1_655     S
Er29     V32    10.002   .     S
Er29     V46    10.002   .     S
Er29     Er31    9.997   .     S
Er29     Er30    9.997   .     S
Er30     V43    10.002   1_655     S
Er30     V41    10.002   1_655     S
Er30     V46    10.002   .     S
Er30     Er31    9.997   .     S
Er31     V43    10.002   1_655     S
Er31     V41    10.002   1_655     S
Er31     V32    10.002   .     S
V33     Er2    10.002   1_554     S
V33     Er1    10.002   1_554     S
V33     Er4    10.002   1_554     S
Er34     V41    10.002   .     S
Er34     V39    10.002   .     S
Er34     V38    10.002   .     S
Er34     Er36    9.997   .     S
Er34     Er37    9.997   .     S
Er34     Er35    9.997   .     S
Er35     V41    10.002   .     S
Er35     V40    10.002   .     S
Er35     V39    10.002   .     S
Er35     Er37    9.997   .     S
Er35     Er36    9.997   .     S
Er36     V41    10.002   .     S
Er36     V40    10.002   .     S
Er36     V38    10.002   .     S
Er36     Er37    9.997   .     S
Er37     V40    10.002   .     S
Er37     V39    10.002   .     S
Er37     V38    10.002   .     S
V38     Er8    10.002   1_554     S
V38     Er5    10.002   1_554     S
V38     Er7    10.002   1_554     S
V39     Er17    10.002   1_545     S
V39     Er14    10.002   1_545     S
V39     Er16    10.002   1_545     S
V40     Er3    10.002   1_444     S
V40     Er4    10.002   1_444     S
V40     Er2    10.002   1_444     S
V41     Er30    10.002   1_455     S
V41     Er29    10.002   1_455     S
V41     Er31    10.002   1_455     S
V43     Er28    10.002   1_455     S
V43     Er31    10.002   1_455     S
V43     Er30    10.002   1_455     S
V44     Er5    10.002   1_554     S
V44     Er6    10.002   1_554     S
V44     Er8    10.002   1_554     S
V45     Er17    10.002   1_545     S
V45     Er15    10.002   1_545     S
V45     Er16    10.002   1_545     S
V47     Er2    10.002   1_545     S
V47     Er1    10.002   1_545     S
V47     Er3    10.002   1_545     S
V48     Er4    10.002   1_455     S
V48     Er1    10.002   1_455     S
V48     Er3    10.002   1_455     S
