data_svp
_audit_creation_date              2020-02-04
_audit_creation_method            'Pymatgen'
_symmetry_space_group_name_H-M    'P1'
_symmetry_Int_Tables_number       1
loop_
_symmetry_equiv_pos_as_xyz
  x,y,z
_cell_length_a                    43.7102
_cell_length_b                    43.7102
_cell_length_c                    19.9998
_cell_angle_alpha                 90.0
_cell_angle_beta                 90.0
_cell_angle_gamma                 90.0
loop_
_atom_site_label
_atom_site_type_symbol
_atom_site_fract_x
_atom_site_fract_y
_atom_site_fract_z
V1     V     0.4009   0.2608   0.25
V2     V     0.4009   0.2608   0.75
V3     V     0.5991   0.2608   0.0
V4     V     0.5991   0.2608   0.5
V5     V     0.2608   0.4009   0.0
V6     V     0.2608   0.4009   0.5
V7     V     0.2608   0.5991   0.25
V8     V     0.2608   0.5991   0.75
V9     V     0.7392   0.4009   0.25
V10     V     0.7392   0.4009   0.75
V11     V     0.7392   0.5991   0.0
V12     V     0.7392   0.5991   0.5
V13     V     0.4009   0.7392   0.0
V14     V     0.4009   0.7392   0.5
V15     V     0.5991   0.7392   0.25
V16     V     0.5991   0.7392   0.75
V17     V     0.0991   0.7608   0.25
V18     V     0.0991   0.7608   0.75
V19     V     0.9009   0.7608   0.0
V20     V     0.9009   0.7608   0.5
V21     V     0.7608   0.0991   0.0
V22     V     0.7608   0.0991   0.5
V23     V     0.7608   0.9009   0.25
V24     V     0.7608   0.9009   0.75
V25     V     0.2392   0.0991   0.25
V26     V     0.2392   0.0991   0.75
V27     V     0.2392   0.9009   0.0
V28     V     0.2392   0.9009   0.5
V29     V     0.0991   0.2392   0.0
V30     V     0.0991   0.2392   0.5
V31     V     0.9009   0.2392   0.25
V32     V     0.9009   0.2392   0.75
loop_
_geom_bond_atom_site_label_1
_geom_bond_atom_site_label_2
_geom_bond_distance
_geom_bond_site_symmetry_2
_ccdc_geom_bond_type
V1     V4    10.0   .     S
V1     V2    10.0   1_554     S
V1     V2    10.0   .     S
V1     V3    10.0   .     S
V1     V6    10.0   .     S
V1     V5    10.0   .     S
V1     V25    10.001   .     S
V2     V3    10.0   1_556     S
V2     V1    10.0   1_556     S
V2     V4    10.0   .     S
V2     V5    10.0   1_556     S
V2     V6    10.0   .     S
V2     V26    10.001   .     S
V3     V2    10.0   1_554     S
V3     V4    10.0   .     S
V3     V4    10.0   1_554     S
V3     V10    10.0   1_554     S
V3     V9    10.0   .     S
V3     V21    10.001   .     S
V4     V3    10.0   1_556     S
V4     V9    10.0   .     S
V4     V10    10.0   .     S
V4     V22    10.001   .     S
V5     V2    10.0   1_554     S
V5     V8    10.0   1_554     S
V5     V6    10.0   .     S
V5     V6    10.0   1_554     S
V5     V7    10.0   .     S
V5     V29    10.001   .     S
V6     V7    10.0   .     S
V6     V5    10.0   1_556     S
V6     V8    10.0   .     S
V6     V30    10.001   .     S
V7     V8    10.0   1_554     S
V7     V8    10.0   .     S
V7     V14    10.0   .     S
V7     V13    10.0   .     S
V7     V17    10.001   .     S
V8     V5    10.0   1_556     S
V8     V7    10.0   1_556     S
V8     V13    10.0   1_556     S
V8     V14    10.0   .     S
V8     V18    10.001   .     S
V9     V12    10.0   .     S
V9     V10    10.0   1_554     S
V9     V10    10.0   .     S
V9     V11    10.0   .     S
V9     V31    10.001   .     S
V10     V3    10.0   1_556     S
V10     V11    10.0   1_556     S
V10     V9    10.0   1_556     S
V10     V12    10.0   .     S
V10     V32    10.001   .     S
V11     V10    10.0   1_554     S
V11     V12    10.0   .     S
V11     V12    10.0   1_554     S
V11     V16    10.0   1_554     S
V11     V15    10.0   .     S
V11     V19    10.001   .     S
V12     V11    10.0   1_556     S
V12     V15    10.0   .     S
V12     V16    10.0   .     S
V12     V20    10.001   .     S
V13     V8    10.0   1_554     S
V13     V16    10.0   1_554     S
V13     V14    10.0   .     S
V13     V14    10.0   1_554     S
V13     V15    10.0   .     S
V13     V27    10.001   .     S
V14     V15    10.0   .     S
V14     V13    10.0   1_556     S
V14     V16    10.0   .     S
V14     V28    10.001   .     S
V15     V16    10.0   1_554     S
V15     V16    10.0   .     S
V15     V23    10.001   .     S
V16     V13    10.0   1_556     S
V16     V15    10.0   1_556     S
V16     V11    10.0   1_556     S
V16     V24    10.001   .     S
V17     V19    10.0   1_455     S
V17     V18    10.0   1_554     S
V17     V18    10.0   .     S
V17     V20    10.0   1_455     S
V17     V27    10.0   .     S
V17     V28    10.0   .     S
V18     V20    10.0   1_455     S
V18     V17    10.0   1_556     S
V18     V19    10.0   1_456     S
V18     V28    10.0   .     S
V18     V27    10.0   1_556     S
V19     V17    10.0   1_655     S
V19     V18    10.0   1_654     S
V19     V20    10.0   .     S
V19     V20    10.0   1_554     S
V19     V23    10.0   .     S
V19     V24    10.0   1_554     S
V20     V18    10.0   1_655     S
V20     V17    10.0   1_655     S
V20     V19    10.0   1_556     S
V20     V24    10.0   .     S
V20     V23    10.0   .     S
V21     V23    10.0   1_545     S
V21     V22    10.0   .     S
V21     V22    10.0   1_554     S
V21     V24    10.0   1_544     S
V21     V31    10.0   .     S
V21     V32    10.0   1_554     S
V22     V24    10.0   1_545     S
V22     V21    10.0   1_556     S
V22     V23    10.0   1_545     S
V22     V32    10.0   .     S
V22     V31    10.0   .     S
V23     V21    10.0   1_565     S
V23     V22    10.0   1_565     S
V23     V24    10.0   1_554     S
V23     V24    10.0   .     S
V24     V22    10.0   1_565     S
V24     V21    10.0   1_566     S
V24     V23    10.0   1_556     S
V24     V19    10.0   1_556     S
V25     V27    10.0   1_545     S
V25     V26    10.0   1_554     S
V25     V26    10.0   .     S
V25     V28    10.0   1_545     S
V25     V29    10.0   .     S
V25     V30    10.0   .     S
V26     V28    10.0   1_545     S
V26     V25    10.0   1_556     S
V26     V27    10.0   1_546     S
V26     V30    10.0   .     S
V26     V29    10.0   1_556     S
V27     V25    10.0   1_565     S
V27     V26    10.0   1_564     S
V27     V28    10.0   .     S
V27     V28    10.0   1_554     S
V27     V18    10.0   1_554     S
V28     V26    10.0   1_565     S
V28     V25    10.0   1_565     S
V28     V27    10.0   1_556     S
V29     V26    10.0   1_554     S
V29     V31    10.0   1_455     S
V29     V30    10.0   .     S
V29     V30    10.0   1_554     S
V29     V32    10.0   1_454     S
V30     V32    10.0   1_455     S
V30     V29    10.0   1_556     S
V30     V31    10.0   1_455     S
V31     V29    10.0   1_655     S
V31     V30    10.0   1_655     S
V31     V32    10.0   1_554     S
V31     V32    10.0   .     S
V32     V30    10.0   1_655     S
V32     V29    10.0   1_656     S
V32     V31    10.0   1_556     S
V32     V21    10.0   1_556     S
