data_svr
_audit_creation_date              2020-02-04
_audit_creation_method            'Pymatgen'
_symmetry_space_group_name_H-M    'P1'
_symmetry_Int_Tables_number       1
loop_
_symmetry_equiv_pos_as_xyz
  x,y,z
_cell_length_a                    43.8599
_cell_length_b                    43.8599
_cell_length_c                    20.0
_cell_angle_alpha                 90.0
_cell_angle_beta                 90.0
_cell_angle_gamma                 90.0
loop_
_atom_site_label
_atom_site_type_symbol
_atom_site_fract_x
_atom_site_fract_y
_atom_site_fract_z
V1     V     0.8604   0.75   0.1875
V2     V     0.8604   0.75   0.6875
V3     V     0.1396   0.75   0.1875
V4     V     0.1396   0.75   0.6875
V5     V     0.0   0.8896   0.4375
V6     V     0.0   0.8896   0.9375
V7     V     0.0   0.6104   0.4375
V8     V     0.0   0.6104   0.9375
V9     V     0.5   0.6104   0.3125
V10     V     0.5   0.6104   0.8125
V11     V     0.5   0.8896   0.3125
V12     V     0.5   0.8896   0.8125
V13     V     0.3604   0.75   0.0625
V14     V     0.3604   0.75   0.5625
V15     V     0.6396   0.75   0.0625
V16     V     0.6396   0.75   0.5625
V17     V     0.6396   0.25   0.4375
V18     V     0.6396   0.25   0.9375
V19     V     0.5   0.1104   0.1875
V20     V     0.5   0.1104   0.6875
V21     V     0.5   0.3896   0.1875
V22     V     0.5   0.3896   0.6875
V23     V     0.3604   0.25   0.4375
V24     V     0.3604   0.25   0.9375
V25     V     0.8604   0.25   0.3125
V26     V     0.8604   0.25   0.8125
V27     V     0.0   0.1104   0.0625
V28     V     0.0   0.1104   0.5625
V29     V     0.1396   0.25   0.3125
V30     V     0.1396   0.25   0.8125
V31     V     0.0   0.3896   0.0625
V32     V     0.0   0.3896   0.5625
loop_
_geom_bond_atom_site_label_1
_geom_bond_atom_site_label_2
_geom_bond_distance
_geom_bond_site_symmetry_2
_ccdc_geom_bond_type
V1     V5    10.0   1_655     S
V1     V7    10.0   1_655     S
V1     V2    10.0   .     S
V1     V2    10.0   1_554     S
V1     V6    10.0   1_654     S
V1     V8    10.0   1_654     S
V1     V15    10.0   .     S
V2     V6    10.0   1_655     S
V2     V8    10.0   1_655     S
V2     V1    10.0   1_556     S
V2     V5    10.0   1_655     S
V2     V7    10.0   1_655     S
V2     V16    10.0   .     S
V3     V5    10.0   .     S
V3     V7    10.0   .     S
V3     V8    10.0   1_554     S
V3     V6    10.0   1_554     S
V3     V4    10.0   .     S
V3     V4    10.0   1_554     S
V3     V13    10.0   .     S
V4     V6    10.0   .     S
V4     V8    10.0   .     S
V4     V7    10.0   .     S
V4     V5    10.0   .     S
V4     V3    10.0   1_556     S
V4     V14    10.0   .     S
V5     V1    10.0   1_455     S
V5     V6    10.0   1_554     S
V5     V6    10.0   .     S
V5     V2    10.0   1_455     S
V5     V28    10.0   1_565     S
V6     V2    10.0   1_455     S
V6     V5    10.0   1_556     S
V6     V3    10.0   1_556     S
V6     V1    10.0   1_456     S
V6     V27    10.0   1_566     S
V7     V1    10.0   1_455     S
V7     V8    10.0   1_554     S
V7     V8    10.0   .     S
V7     V2    10.0   1_455     S
V7     V32    10.0   .     S
V8     V2    10.0   1_455     S
V8     V7    10.0   1_556     S
V8     V3    10.0   1_556     S
V8     V1    10.0   1_456     S
V8     V31    10.0   1_556     S
V9     V10    10.0   1_554     S
V9     V10    10.0   .     S
V9     V15    10.0   .     S
V9     V13    10.0   .     S
V9     V16    10.0   .     S
V9     V14    10.0   .     S
V9     V21    10.0   .     S
V10     V9    10.0   1_556     S
V10     V16    10.0   .     S
V10     V14    10.0   .     S
V10     V15    10.0   1_556     S
V10     V13    10.0   1_556     S
V10     V22    10.0   .     S
V11     V12    10.0   1_554     S
V11     V12    10.0   .     S
V11     V15    10.0   .     S
V11     V13    10.0   .     S
V11     V16    10.0   .     S
V11     V14    10.0   .     S
V11     V19    10.0   1_565     S
V12     V11    10.0   1_556     S
V12     V16    10.0   .     S
V12     V14    10.0   .     S
V12     V15    10.0   1_556     S
V12     V13    10.0   1_556     S
V12     V20    10.0   1_565     S
V13     V14    10.0   .     S
V13     V14    10.0   1_554     S
V13     V12    10.0   1_554     S
V13     V10    10.0   1_554     S
V14     V13    10.0   1_556     S
V15     V16    10.0   .     S
V15     V16    10.0   1_554     S
V15     V10    10.0   1_554     S
V15     V12    10.0   1_554     S
V16     V15    10.0   1_556     S
V17     V22    10.0   .     S
V17     V20    10.0   .     S
V17     V19    10.0   .     S
V17     V18    10.0   1_554     S
V17     V18    10.0   .     S
V17     V21    10.0   .     S
V17     V25    10.0   .     S
V18     V21    10.0   1_556     S
V18     V19    10.0   1_556     S
V18     V20    10.0   .     S
V18     V17    10.0   1_556     S
V18     V22    10.0   .     S
V18     V26    10.0   .     S
V19     V18    10.0   1_554     S
V19     V24    10.0   1_554     S
V19     V20    10.0   .     S
V19     V20    10.0   1_554     S
V19     V23    10.0   .     S
V19     V11    10.0   1_545     S
V20     V23    10.0   .     S
V20     V19    10.0   1_556     S
V20     V24    10.0   .     S
V20     V12    10.0   1_545     S
V21     V18    10.0   1_554     S
V21     V24    10.0   1_554     S
V21     V23    10.0   .     S
V21     V22    10.0   .     S
V21     V22    10.0   1_554     S
V22     V23    10.0   .     S
V22     V24    10.0   .     S
V22     V21    10.0   1_556     S
V23     V24    10.0   1_554     S
V23     V24    10.0   .     S
V23     V29    10.0   .     S
V24     V21    10.0   1_556     S
V24     V19    10.0   1_556     S
V24     V23    10.0   1_556     S
V24     V30    10.0   .     S
V25     V31    10.0   1_655     S
V25     V27    10.0   1_655     S
V25     V26    10.0   1_554     S
V25     V26    10.0   .     S
V25     V32    10.0   1_655     S
V25     V28    10.0   1_655     S
V26     V32    10.0   1_655     S
V26     V28    10.0   1_655     S
V26     V25    10.0   1_556     S
V26     V31    10.0   1_656     S
V26     V27    10.0   1_656     S
V27     V25    10.0   1_455     S
V27     V29    10.0   .     S
V27     V26    10.0   1_454     S
V27     V30    10.0   1_554     S
V27     V28    10.0   .     S
V27     V28    10.0   1_554     S
V27     V6    10.0   1_544     S
V28     V26    10.0   1_455     S
V28     V30    10.0   .     S
V28     V25    10.0   1_455     S
V28     V29    10.0   .     S
V28     V27    10.0   1_556     S
V28     V5    10.0   1_545     S
V29     V31    10.0   .     S
V29     V30    10.0   1_554     S
V29     V30    10.0   .     S
V29     V32    10.0   .     S
V30     V32    10.0   .     S
V30     V29    10.0   1_556     S
V30     V27    10.0   1_556     S
V30     V31    10.0   1_556     S
V31     V25    10.0   1_455     S
V31     V26    10.0   1_454     S
V31     V30    10.0   1_554     S
V31     V32    10.0   .     S
V31     V32    10.0   1_554     S
V31     V8    10.0   1_554     S
V32     V26    10.0   1_455     S
V32     V25    10.0   1_455     S
V32     V31    10.0   1_556     S
