data_svt
_audit_creation_date              2020-02-04
_audit_creation_method            'Pymatgen'
_symmetry_space_group_name_H-M    'P1'
_symmetry_Int_Tables_number       1
loop_
_symmetry_equiv_pos_as_xyz
  x,y,z
_cell_length_a                    46.5026
_cell_length_b                    46.5026
_cell_length_c                    46.5026
_cell_angle_alpha                 90.0
_cell_angle_beta                 90.0
_cell_angle_gamma                 90.0
loop_
_atom_site_label
_atom_site_type_symbol
_atom_site_fract_x
_atom_site_fract_y
_atom_site_fract_z
V1     V     0.6075   0.674   0.5
V2     V     0.3925   0.674   0.5
V3     V     0.5   0.826   0.3925
V4     V     0.5   0.826   0.6075
V5     V     0.6075   0.0   0.674
V6     V     0.3925   0.0   0.674
V7     V     0.5   0.1075   0.826
V8     V     0.5   0.8925   0.826
V9     V     0.1075   0.674   0.0
V10     V     0.8925   0.674   0.0
V11     V     0.0   0.826   0.1075
V12     V     0.0   0.826   0.8925
V13     V     0.0   0.6075   0.174
V14     V     0.0   0.3925   0.174
V15     V     0.1075   0.5   0.326
V16     V     0.8925   0.5   0.326
V17     V     0.674   0.0   0.1075
V18     V     0.674   0.0   0.8925
V19     V     0.826   0.1075   0.0
V20     V     0.826   0.8925   0.0
V21     V     0.174   0.1075   0.0
V22     V     0.174   0.8925   0.0
V23     V     0.326   0.0   0.8925
V24     V     0.326   0.0   0.1075
V25     V     0.6075   0.174   0.0
V26     V     0.3925   0.174   0.0
V27     V     0.5   0.326   0.1075
V28     V     0.5   0.326   0.8925
V29     V     0.1075   0.0   0.174
V30     V     0.8925   0.0   0.174
V31     V     0.0   0.8925   0.326
V32     V     0.0   0.1075   0.326
V33     V     0.326   0.1075   0.5
V34     V     0.326   0.8925   0.5
V35     V     0.174   0.0   0.3925
V36     V     0.174   0.0   0.6075
V37     V     0.0   0.1075   0.674
V38     V     0.0   0.8925   0.674
V39     V     0.1075   0.0   0.826
V40     V     0.8925   0.0   0.826
V41     V     0.0   0.174   0.8925
V42     V     0.0   0.174   0.1075
V43     V     0.1075   0.326   0.0
V44     V     0.8925   0.326   0.0
V45     V     0.6075   0.5   0.174
V46     V     0.3925   0.5   0.174
V47     V     0.5   0.3925   0.326
V48     V     0.5   0.6075   0.326
V49     V     0.826   0.6075   0.5
V50     V     0.826   0.3925   0.5
V51     V     0.674   0.5   0.3925
V52     V     0.674   0.5   0.6075
V53     V     0.6075   0.326   0.5
V54     V     0.3925   0.326   0.5
V55     V     0.5   0.174   0.3925
V56     V     0.5   0.174   0.6075
V57     V     0.6075   0.0   0.326
V58     V     0.3925   0.0   0.326
V59     V     0.5   0.1075   0.174
V60     V     0.5   0.8925   0.174
V61     V     0.1075   0.174   0.5
V62     V     0.8925   0.174   0.5
V63     V     0.0   0.326   0.3925
V64     V     0.0   0.326   0.6075
V65     V     0.674   0.1075   0.5
V66     V     0.674   0.8925   0.5
V67     V     0.826   0.0   0.3925
V68     V     0.826   0.0   0.6075
V69     V     0.6075   0.5   0.826
V70     V     0.3925   0.5   0.826
V71     V     0.5   0.3925   0.674
V72     V     0.5   0.6075   0.674
V73     V     0.326   0.5   0.3925
V74     V     0.326   0.5   0.6075
V75     V     0.174   0.3925   0.5
V76     V     0.174   0.6075   0.5
V77     V     0.1075   0.826   0.5
V78     V     0.8925   0.826   0.5
V79     V     0.0   0.674   0.3925
V80     V     0.0   0.674   0.6075
V81     V     0.174   0.5   0.8925
V82     V     0.174   0.5   0.1075
V83     V     0.326   0.3925   0.0
V84     V     0.326   0.6075   0.0
V85     V     0.0   0.6075   0.826
V86     V     0.0   0.3925   0.826
V87     V     0.1075   0.5   0.674
V88     V     0.8925   0.5   0.674
V89     V     0.674   0.3925   0.0
V90     V     0.674   0.6075   0.0
V91     V     0.826   0.5   0.1075
V92     V     0.826   0.5   0.8925
V93     V     0.6075   0.826   0.0
V94     V     0.3925   0.826   0.0
V95     V     0.5   0.674   0.1075
V96     V     0.5   0.674   0.8925
loop_
_geom_bond_atom_site_label_1
_geom_bond_atom_site_label_2
_geom_bond_distance
_geom_bond_site_symmetry_2
_ccdc_geom_bond_type
V1     V52    10.0   .     S
V1     V51    10.0   .     S
V1     V2    10.0   .     S
V1     V4    10.0   .     S
V1     V3    10.0   .     S
V1     V48    10.0   .     S
V1     V72    10.0   .     S
V2     V74    10.0   .     S
V2     V73    10.0   .     S
V2     V4    10.0   .     S
V2     V3    10.0   .     S
V2     V48    10.0   .     S
V2     V72    10.0   .     S
V3     V57    10.0   1_565     S
V3     V58    10.0   1_565     S
V3     V4    10.0   .     S
V3     V34    10.0   .     S
V3     V66    10.0   .     S
V4     V6    10.0   1_565     S
V4     V5    10.0   1_565     S
V4     V34    10.0   .     S
V4     V66    10.0   .     S
V5     V4    10.0   1_545     S
V5     V66    10.0   1_545     S
V5     V65    10.0   .     S
V5     V6    10.0   .     S
V5     V8    10.0   1_545     S
V5     V7    10.0   .     S
V5     V56    10.0   .     S
V6     V4    10.0   1_545     S
V6     V33    10.0   .     S
V6     V34    10.0   1_545     S
V6     V8    10.0   1_545     S
V6     V7    10.0   .     S
V6     V56    10.0   .     S
V7     V25    10.0   1_556     S
V7     V26    10.0   1_556     S
V7     V8    10.0   1_545     S
V7     V18    10.0   .     S
V7     V23    10.0   .     S
V8     V93    10.0   1_556     S
V8     V94    10.0   1_556     S
V8     V7    10.0   1_565     S
V8     V5    10.0   1_565     S
V8     V6    10.0   1_565     S
V8     V18    10.0   1_565     S
V8     V23    10.0   1_565     S
V9     V82    10.0   .     S
V9     V81    10.0   1_554     S
V9     V10    10.0   1_455     S
V9     V12    10.0   1_554     S
V9     V11    10.0   .     S
V9     V13    10.0   .     S
V9     V85    10.0   1_554     S
V10     V91    10.0   .     S
V10     V92    10.0   1_554     S
V10     V9    10.0   1_655     S
V10     V12    10.0   1_654     S
V10     V11    10.0   1_655     S
V10     V13    10.0   1_655     S
V10     V85    10.0   1_654     S
V11     V29    10.0   1_565     S
V11     V30    10.0   1_465     S
V11     V12    10.0   1_554     S
V11     V10    10.0   1_455     S
V11     V20    10.0   1_455     S
V11     V22    10.0   .     S
V12     V39    10.0   1_565     S
V12     V40    10.0   1_465     S
V12     V11    10.0   1_556     S
V12     V9    10.0   1_556     S
V12     V10    10.0   1_456     S
V12     V20    10.0   1_456     S
V12     V22    10.0   1_556     S
V13     V10    10.0   1_455     S
V13     V14    10.0   .     S
V13     V15    10.0   .     S
V13     V16    10.0   1_455     S
V13     V82    10.0   .     S
V13     V91    10.0   1_455     S
V14     V43    10.0   .     S
V14     V44    10.0   1_455     S
V14     V15    10.0   .     S
V14     V16    10.0   1_455     S
V14     V82    10.0   .     S
V14     V91    10.0   1_455     S
V15     V75    10.0   .     S
V15     V76    10.0   .     S
V15     V16    10.0   1_455     S
V15     V63    10.0   .     S
V15     V79    10.0   .     S
V16     V50    10.0   .     S
V16     V49    10.0   .     S
V16     V15    10.0   1_655     S
V16     V14    10.0   1_655     S
V16     V13    10.0   1_655     S
V16     V63    10.0   1_655     S
V16     V79    10.0   1_655     S
V17     V59    10.0   .     S
V17     V60    10.0   1_545     S
V17     V18    10.0   1_554     S
V17     V20    10.0   1_545     S
V17     V19    10.0   .     S
V17     V25    10.0   .     S
V17     V93    10.0   1_545     S
V18     V8    10.0   1_545     S
V18     V17    10.0   1_556     S
V18     V20    10.0   1_546     S
V18     V19    10.0   1_556     S
V18     V25    10.0   1_556     S
V18     V93    10.0   1_546     S
V19     V42    10.0   1_655     S
V19     V41    10.0   1_654     S
V19     V20    10.0   1_545     S
V19     V18    10.0   1_554     S
V19     V30    10.0   .     S
V19     V40    10.0   1_554     S
V20     V11    10.0   1_655     S
V20     V12    10.0   1_654     S
V20     V19    10.0   1_565     S
V20     V17    10.0   1_565     S
V20     V18    10.0   1_564     S
V20     V30    10.0   1_565     S
V20     V40    10.0   1_564     S
V21     V42    10.0   .     S
V21     V41    10.0   1_554     S
V21     V22    10.0   1_545     S
V21     V24    10.0   .     S
V21     V23    10.0   1_554     S
V21     V29    10.0   .     S
V21     V39    10.0   1_554     S
V22     V12    10.0   1_554     S
V22     V21    10.0   1_565     S
V22     V24    10.0   1_565     S
V22     V23    10.0   1_564     S
V22     V29    10.0   1_565     S
V22     V39    10.0   1_564     S
V23     V8    10.0   1_545     S
V23     V24    10.0   1_556     S
V23     V21    10.0   1_556     S
V23     V22    10.0   1_546     S
V23     V26    10.0   1_556     S
V23     V94    10.0   1_546     S
V24     V59    10.0   .     S
V24     V60    10.0   1_545     S
V24     V23    10.0   1_554     S
V24     V22    10.0   1_545     S
V24     V26    10.0   .     S
V24     V94    10.0   1_545     S
V25     V7    10.0   1_554     S
V25     V18    10.0   1_554     S
V25     V26    10.0   .     S
V25     V27    10.0   .     S
V25     V28    10.0   1_554     S
V25     V59    10.0   .     S
V26     V7    10.0   1_554     S
V26     V23    10.0   1_554     S
V26     V27    10.0   .     S
V26     V28    10.0   1_554     S
V26     V59    10.0   .     S
V27     V46    10.0   .     S
V27     V45    10.0   .     S
V27     V28    10.0   1_554     S
V27     V83    10.0   .     S
V27     V89    10.0   .     S
V28     V69    10.0   .     S
V28     V70    10.0   .     S
V28     V27    10.0   1_556     S
V28     V25    10.0   1_556     S
V28     V26    10.0   1_556     S
V28     V83    10.0   1_556     S
V28     V89    10.0   1_556     S
V29     V11    10.0   1_545     S
V29     V22    10.0   1_545     S
V29     V30    10.0   1_455     S
V29     V32    10.0   .     S
V29     V31    10.0   1_545     S
V29     V42    10.0   .     S
V30     V11    10.0   1_645     S
V30     V20    10.0   1_545     S
V30     V29    10.0   1_655     S
V30     V32    10.0   1_655     S
V30     V31    10.0   1_645     S
V30     V42    10.0   1_655     S
V31     V77    10.0   .     S
V31     V78    10.0   1_455     S
V31     V32    10.0   1_565     S
V31     V29    10.0   1_565     S
V31     V30    10.0   1_465     S
V31     V35    10.0   1_565     S
V31     V67    10.0   1_465     S
V32     V62    10.0   1_455     S
V32     V61    10.0   .     S
V32     V31    10.0   1_545     S
V32     V30    10.0   1_455     S
V32     V35    10.0   .     S
V32     V67    10.0   1_455     S
V33     V55    10.0   .     S
V33     V56    10.0   .     S
V33     V34    10.0   1_545     S
V33     V35    10.0   .     S
V33     V36    10.0   .     S
V33     V58    10.0   .     S
V34     V6    10.0   1_565     S
V34     V33    10.0   1_565     S
V34     V36    10.0   1_565     S
V34     V35    10.0   1_565     S
V34     V58    10.0   1_565     S
V35     V31    10.0   1_545     S
V35     V36    10.0   .     S
V35     V34    10.0   1_545     S
V35     V61    10.0   .     S
V35     V77    10.0   1_545     S
V36     V37    10.0   .     S
V36     V38    10.0   1_545     S
V36     V34    10.0   1_545     S
V36     V61    10.0   .     S
V36     V77    10.0   1_545     S
V37     V61    10.0   .     S
V37     V62    10.0   1_455     S
V37     V38    10.0   1_545     S
V37     V40    10.0   1_455     S
V37     V39    10.0   .     S
V37     V68    10.0   1_455     S
V38     V36    10.0   1_565     S
V38     V77    10.0   .     S
V38     V78    10.0   1_455     S
V38     V37    10.0   1_565     S
V38     V40    10.0   1_465     S
V38     V39    10.0   1_565     S
V38     V68    10.0   1_465     S
V39     V12    10.0   1_545     S
V39     V21    10.0   1_556     S
V39     V22    10.0   1_546     S
V39     V40    10.0   1_455     S
V39     V38    10.0   1_545     S
V39     V41    10.0   .     S
V40     V12    10.0   1_645     S
V40     V19    10.0   1_556     S
V40     V20    10.0   1_546     S
V40     V39    10.0   1_655     S
V40     V38    10.0   1_645     S
V40     V37    10.0   1_655     S
V40     V41    10.0   1_655     S
V41     V19    10.0   1_456     S
V41     V21    10.0   1_556     S
V41     V40    10.0   1_455     S
V41     V42    10.0   1_556     S
V41     V43    10.0   1_556     S
V41     V44    10.0   1_456     S
V42     V19    10.0   1_455     S
V42     V30    10.0   1_455     S
V42     V41    10.0   1_554     S
V42     V43    10.0   .     S
V42     V44    10.0   1_455     S
V43     V82    10.0   .     S
V43     V81    10.0   1_554     S
V43     V44    10.0   1_455     S
V43     V41    10.0   1_554     S
V43     V86    10.0   1_554     S
V44     V14    10.0   1_655     S
V44     V91    10.0   .     S
V44     V92    10.0   1_554     S
V44     V43    10.0   1_655     S
V44     V42    10.0   1_655     S
V44     V41    10.0   1_654     S
V44     V86    10.0   1_654     S
V45     V89    10.0   .     S
V45     V90    10.0   .     S
V45     V46    10.0   .     S
V45     V47    10.0   .     S
V45     V48    10.0   .     S
V45     V95    10.0   .     S
V46     V83    10.0   .     S
V46     V84    10.0   .     S
V46     V47    10.0   .     S
V46     V48    10.0   .     S
V46     V95    10.0   .     S
V47     V53    10.0   .     S
V47     V54    10.0   .     S
V47     V48    10.0   .     S
V47     V51    10.0   .     S
V47     V73    10.0   .     S
V48     V51    10.0   .     S
V48     V73    10.0   .     S
V49     V80    10.0   1_655     S
V49     V79    10.0   1_655     S
V49     V50    10.0   .     S
V49     V52    10.0   .     S
V49     V51    10.0   .     S
V49     V88    10.0   .     S
V50     V64    10.0   1_655     S
V50     V63    10.0   1_655     S
V50     V52    10.0   .     S
V50     V51    10.0   .     S
V50     V88    10.0   .     S
V51     V52    10.0   .     S
V51     V53    10.0   .     S
V52     V71    10.0   .     S
V52     V72    10.0   .     S
V52     V53    10.0   .     S
V53     V54    10.0   .     S
V53     V55    10.0   .     S
V53     V56    10.0   .     S
V53     V71    10.0   .     S
V54     V73    10.0   .     S
V54     V74    10.0   .     S
V54     V55    10.0   .     S
V54     V56    10.0   .     S
V54     V71    10.0   .     S
V55     V57    10.0   .     S
V55     V58    10.0   .     S
V55     V56    10.0   .     S
V55     V65    10.0   .     S
V56     V65    10.0   .     S
V57     V3    10.0   1_545     S
V57     V65    10.0   .     S
V57     V66    10.0   1_545     S
V57     V58    10.0   .     S
V57     V59    10.0   .     S
V57     V60    10.0   1_545     S
V58     V3    10.0   1_545     S
V58     V34    10.0   1_545     S
V58     V59    10.0   .     S
V58     V60    10.0   1_545     S
V59     V60    10.0   1_545     S
V60     V17    10.0   1_565     S
V60     V24    10.0   1_565     S
V60     V94    10.0   .     S
V60     V93    10.0   .     S
V60     V59    10.0   1_565     S
V60     V58    10.0   1_565     S
V60     V57    10.0   1_565     S
V61     V62    10.0   1_455     S
V61     V63    10.0   .     S
V61     V64    10.0   .     S
V62     V32    10.0   1_655     S
V62     V37    10.0   1_655     S
V62     V67    10.0   .     S
V62     V68    10.0   .     S
V62     V61    10.0   1_655     S
V62     V63    10.0   1_655     S
V62     V64    10.0   1_655     S
V63     V50    10.0   1_455     S
V63     V16    10.0   1_455     S
V63     V64    10.0   .     S
V63     V62    10.0   1_455     S
V63     V75    10.0   .     S
V64     V50    10.0   1_455     S
V64     V87    10.0   .     S
V64     V88    10.0   1_455     S
V64     V62    10.0   1_455     S
V64     V75    10.0   .     S
V65     V66    10.0   1_545     S
V65     V67    10.0   .     S
V65     V68    10.0   .     S
V66     V5    10.0   1_565     S
V66     V57    10.0   1_565     S
V66     V65    10.0   1_565     S
V66     V68    10.0   1_565     S
V66     V67    10.0   1_565     S
V67     V32    10.0   1_655     S
V67     V31    10.0   1_645     S
V67     V68    10.0   .     S
V67     V66    10.0   1_545     S
V67     V78    10.0   1_545     S
V68     V37    10.0   1_655     S
V68     V38    10.0   1_645     S
V68     V66    10.0   1_545     S
V68     V78    10.0   1_545     S
V69     V90    10.0   1_556     S
V69     V89    10.0   1_556     S
V69     V70    10.0   .     S
V69     V72    10.0   .     S
V69     V71    10.0   .     S
V69     V96    10.0   .     S
V70     V84    10.0   1_556     S
V70     V83    10.0   1_556     S
V70     V72    10.0   .     S
V70     V71    10.0   .     S
V70     V96    10.0   .     S
V71     V72    10.0   .     S
V71     V74    10.0   .     S
V72     V74    10.0   .     S
V73     V74    10.0   .     S
V73     V75    10.0   .     S
V73     V76    10.0   .     S
V74     V76    10.0   .     S
V74     V75    10.0   .     S
V75     V76    10.0   .     S
V75     V87    10.0   .     S
V76     V80    10.0   .     S
V76     V79    10.0   .     S
V76     V87    10.0   .     S
V77     V36    10.0   1_565     S
V77     V35    10.0   1_565     S
V77     V78    10.0   1_455     S
V77     V80    10.0   .     S
V77     V79    10.0   .     S
V78     V31    10.0   1_655     S
V78     V38    10.0   1_655     S
V78     V68    10.0   1_565     S
V78     V67    10.0   1_565     S
V78     V77    10.0   1_655     S
V78     V80    10.0   1_655     S
V78     V79    10.0   1_655     S
V79     V49    10.0   1_455     S
V79     V16    10.0   1_455     S
V79     V80    10.0   .     S
V79     V78    10.0   1_455     S
V80     V49    10.0   1_455     S
V80     V87    10.0   .     S
V80     V88    10.0   1_455     S
V80     V78    10.0   1_455     S
V81     V9    10.0   1_556     S
V81     V43    10.0   1_556     S
V81     V86    10.0   .     S
V81     V85    10.0   .     S
V81     V82    10.0   1_556     S
V81     V84    10.0   1_556     S
V81     V83    10.0   1_556     S
V82     V81    10.0   1_554     S
V82     V83    10.0   .     S
V82     V84    10.0   .     S
V83     V70    10.0   1_554     S
V83     V28    10.0   1_554     S
V83     V84    10.0   .     S
V83     V81    10.0   1_554     S
V84     V70    10.0   1_554     S
V84     V95    10.0   .     S
V84     V96    10.0   1_554     S
V84     V81    10.0   1_554     S
V85     V10    10.0   1_456     S
V85     V9    10.0   1_556     S
V85     V86    10.0   .     S
V85     V87    10.0   .     S
V85     V88    10.0   1_455     S
V85     V92    10.0   1_455     S
V86     V43    10.0   1_556     S
V86     V44    10.0   1_456     S
V86     V87    10.0   .     S
V86     V88    10.0   1_455     S
V86     V92    10.0   1_455     S
V87     V88    10.0   1_455     S
V88     V64    10.0   1_655     S
V88     V80    10.0   1_655     S
V88     V87    10.0   1_655     S
V88     V86    10.0   1_655     S
V88     V85    10.0   1_655     S
V89     V69    10.0   1_554     S
V89     V28    10.0   1_554     S
V89     V90    10.0   .     S
V89     V92    10.0   1_554     S
V89     V91    10.0   .     S
V90     V69    10.0   1_554     S
V90     V95    10.0   .     S
V90     V96    10.0   1_554     S
V90     V92    10.0   1_554     S
V90     V91    10.0   .     S
V91     V13    10.0   1_655     S
V91     V14    10.0   1_655     S
V91     V92    10.0   1_554     S
V92     V10    10.0   1_556     S
V92     V44    10.0   1_556     S
V92     V86    10.0   1_655     S
V92     V85    10.0   1_655     S
V92     V91    10.0   1_556     S
V92     V89    10.0   1_556     S
V92     V90    10.0   1_556     S
V93     V8    10.0   1_554     S
V93     V18    10.0   1_564     S
V93     V17    10.0   1_565     S
V93     V94    10.0   .     S
V93     V96    10.0   1_554     S
V93     V95    10.0   .     S
V94     V8    10.0   1_554     S
V94     V24    10.0   1_565     S
V94     V23    10.0   1_564     S
V94     V96    10.0   1_554     S
V94     V95    10.0   .     S
V95     V96    10.0   1_554     S
V96     V84    10.0   1_556     S
V96     V90    10.0   1_556     S
V96     V95    10.0   1_556     S
V96     V94    10.0   1_556     S
V96     V93    10.0   1_556     S
