data_svv
_audit_creation_date              2020-02-04
_audit_creation_method            'Pymatgen'
_symmetry_space_group_name_H-M    'P1'
_symmetry_Int_Tables_number       1
loop_
_symmetry_equiv_pos_as_xyz
  x,y,z
_cell_length_a                    34.5566
_cell_length_b                    34.5566
_cell_length_c                    34.5566
_cell_angle_alpha                 90.0
_cell_angle_beta                 90.0
_cell_angle_gamma                 90.0
loop_
_atom_site_label
_atom_site_type_symbol
_atom_site_fract_x
_atom_site_fract_y
_atom_site_fract_z
V1     V     0.6828   0.4   0.1281
V2     V     0.6   0.1281   0.1828
V3     V     0.8719   0.1828   0.1
V4     V     0.9   0.3719   0.3172
V5     V     0.6281   0.3172   0.4
V6     V     0.8172   0.1   0.3719
V7     V     0.9   0.1281   0.8172
V8     V     0.6281   0.1828   0.9
V9     V     0.6828   0.1   0.6281
V10     V     0.6   0.3719   0.6828
V11     V     0.8719   0.3172   0.6
V12     V     0.8172   0.4   0.8719
V13     V     0.6281   0.6828   0.1
V14     V     0.6828   0.6   0.3719
V15     V     0.6   0.8719   0.3172
V16     V     0.8719   0.8172   0.4
V17     V     0.9   0.6281   0.1828
V18     V     0.8172   0.9   0.1281
V19     V     0.8719   0.6828   0.9
V20     V     0.8172   0.6   0.6281
V21     V     0.9   0.8719   0.6828
V22     V     0.6281   0.8172   0.6
V23     V     0.6   0.6281   0.8172
V24     V     0.6828   0.9   0.8719
V25     V     0.1828   0.6   0.1281
V26     V     0.1   0.8719   0.1828
V27     V     0.1281   0.6828   0.4
V28     V     0.3172   0.9   0.3719
V29     V     0.4   0.6281   0.3172
V30     V     0.3719   0.8172   0.1
V31     V     0.4   0.8719   0.8172
V32     V     0.1828   0.9   0.6281
V33     V     0.1281   0.8172   0.9
V34     V     0.3172   0.6   0.8719
V35     V     0.3719   0.6828   0.6
V36     V     0.1   0.6281   0.6828
V37     V     0.1   0.1281   0.3172
V38     V     0.1828   0.4   0.3719
V39     V     0.1281   0.3172   0.1
V40     V     0.4   0.3719   0.1828
V41     V     0.3172   0.1   0.1281
V42     V     0.3719   0.1828   0.4
V43     V     0.4   0.1281   0.6828
V44     V     0.1281   0.1828   0.6
V45     V     0.1828   0.1   0.8719
V46     V     0.3719   0.3172   0.9
V47     V     0.3172   0.4   0.6281
V48     V     0.1   0.3719   0.8172
loop_
_geom_bond_atom_site_label_1
_geom_bond_atom_site_label_2
_geom_bond_distance
_geom_bond_site_symmetry_2
_ccdc_geom_bond_type
V1     V5    10.0   .     S
V1     V4    10.0   .     S
V1     V2    10.0   .     S
V1     V3    10.0   .     S
V1     V40    10.0   .     S
V1     V13    10.0   .     S
V1     V12    10.0   1_554     S
V2     V5    10.0   .     S
V2     V3    10.0   .     S
V2     V6    10.0   .     S
V2     V8    10.0   1_554     S
V2     V41    10.0   .     S
V2     V15    10.0   1_545     S
V3     V4    10.0   .     S
V3     V6    10.0   .     S
V3     V7    10.0   1_554     S
V3     V18    10.0   1_545     S
V3     V39    10.0   1_655     S
V4     V6    10.0   .     S
V4     V5    10.0   .     S
V4     V11    10.0   .     S
V4     V38    10.0   1_655     S
V4     V17    10.0   .     S
V5     V6    10.0   .     S
V5     V10    10.0   .     S
V5     V14    10.0   .     S
V5     V42    10.0   .     S
V6     V37    10.0   1_655     S
V6     V16    10.0   1_545     S
V6     V9    10.0   .     S
V7     V12    10.0   .     S
V7     V11    10.0   .     S
V7     V8    10.0   .     S
V7     V9    10.0   .     S
V7     V3    10.0   1_556     S
V7     V45    10.0   1_655     S
V7     V21    10.0   1_545     S
V8     V12    10.0   .     S
V8     V9    10.0   .     S
V8     V10    10.0   .     S
V8     V2    10.0   1_556     S
V8     V24    10.0   1_545     S
V8     V46    10.0   .     S
V9     V10    10.0   .     S
V9     V11    10.0   .     S
V9     V22    10.0   1_545     S
V9     V43    10.0   .     S
V10     V11    10.0   .     S
V10     V12    10.0   .     S
V10     V47    10.0   .     S
V10     V23    10.0   .     S
V11     V12    10.0   .     S
V11     V20    10.0   .     S
V11     V44    10.0   1_655     S
V12     V19    10.0   .     S
V12     V48    10.0   1_655     S
V12     V1    10.0   1_556     S
V13     V18    10.0   .     S
V13     V17    10.0   .     S
V13     V14    10.0   .     S
V13     V15    10.0   .     S
V13     V23    10.0   1_554     S
V13     V30    10.0   .     S
V14     V17    10.0   .     S
V14     V15    10.0   .     S
V14     V16    10.0   .     S
V14     V29    10.0   .     S
V14     V20    10.0   .     S
V15     V16    10.0   .     S
V15     V18    10.0   .     S
V15     V22    10.0   .     S
V15     V28    10.0   .     S
V15     V2    10.0   1_565     S
V16     V17    10.0   .     S
V16     V18    10.0   .     S
V16     V21    10.0   .     S
V16     V6    10.0   1_565     S
V16     V27    10.0   1_655     S
V17     V18    10.0   .     S
V17     V25    10.0   1_655     S
V17     V19    10.0   1_554     S
V18     V26    10.0   1_655     S
V18     V3    10.0   1_565     S
V18     V24    10.0   1_554     S
V19     V23    10.0   .     S
V19     V24    10.0   .     S
V19     V20    10.0   .     S
V19     V21    10.0   .     S
V19     V17    10.0   1_556     S
V19     V33    10.0   1_655     S
V20     V23    10.0   .     S
V20     V21    10.0   .     S
V20     V22    10.0   .     S
V20     V36    10.0   1_655     S
V21     V22    10.0   .     S
V21     V24    10.0   .     S
V21     V32    10.0   1_655     S
V21     V7    10.0   1_565     S
V22     V23    10.0   .     S
V22     V24    10.0   .     S
V22     V9    10.0   1_565     S
V22     V35    10.0   .     S
V23     V24    10.0   .     S
V23     V13    10.0   1_556     S
V23     V34    10.0   .     S
V24     V8    10.0   1_565     S
V24     V31    10.0   .     S
V24     V18    10.0   1_556     S
V25     V17    10.0   1_455     S
V25     V27    10.0   .     S
V25     V26    10.0   .     S
V25     V29    10.0   .     S
V25     V30    10.0   .     S
V25     V39    10.0   .     S
V25     V34    10.0   1_554     S
V26     V18    10.0   1_455     S
V26     V27    10.0   .     S
V26     V28    10.0   .     S
V26     V30    10.0   .     S
V26     V33    10.0   1_554     S
V26     V37    10.0   1_565     S
V27     V29    10.0   .     S
V27     V28    10.0   .     S
V27     V38    10.0   .     S
V27     V36    10.0   .     S
V27     V16    10.0   1_455     S
V28     V30    10.0   .     S
V28     V29    10.0   .     S
V28     V42    10.0   1_565     S
V28     V32    10.0   .     S
V29     V30    10.0   .     S
V29     V35    10.0   .     S
V29     V40    10.0   .     S
V30     V41    10.0   1_565     S
V30     V31    10.0   1_554     S
V31     V35    10.0   .     S
V31     V34    10.0   .     S
V31     V32    10.0   .     S
V31     V33    10.0   .     S
V31     V30    10.0   1_556     S
V31     V43    10.0   1_565     S
V32     V21    10.0   1_455     S
V32     V33    10.0   .     S
V32     V35    10.0   .     S
V32     V36    10.0   .     S
V32     V44    10.0   1_565     S
V33     V34    10.0   .     S
V33     V36    10.0   .     S
V33     V45    10.0   1_565     S
V33     V26    10.0   1_556     S
V33     V19    10.0   1_455     S
V34     V36    10.0   .     S
V34     V35    10.0   .     S
V34     V46    10.0   .     S
V34     V25    10.0   1_556     S
V35     V36    10.0   .     S
V35     V47    10.0   .     S
V36     V20    10.0   1_455     S
V36     V48    10.0   .     S
V37     V6    10.0   1_455     S
V37     V38    10.0   .     S
V37     V39    10.0   .     S
V37     V41    10.0   .     S
V37     V42    10.0   .     S
V37     V44    10.0   .     S
V37     V26    10.0   1_545     S
V38     V4    10.0   1_455     S
V38     V42    10.0   .     S
V38     V39    10.0   .     S
V38     V40    10.0   .     S
V38     V47    10.0   .     S
V39     V40    10.0   .     S
V39     V41    10.0   .     S
V39     V48    10.0   1_554     S
V39     V3    10.0   1_455     S
V40     V41    10.0   .     S
V40     V42    10.0   .     S
V40     V46    10.0   1_554     S
V41     V30    10.0   1_545     S
V41     V42    10.0   .     S
V41     V45    10.0   1_554     S
V42     V28    10.0   1_545     S
V42     V43    10.0   .     S
V43     V47    10.0   .     S
V43     V46    10.0   .     S
V43     V44    10.0   .     S
V43     V45    10.0   .     S
V43     V31    10.0   1_545     S
V44     V47    10.0   .     S
V44     V45    10.0   .     S
V44     V48    10.0   .     S
V44     V32    10.0   1_545     S
V44     V11    10.0   1_455     S
V45     V7    10.0   1_455     S
V45     V33    10.0   1_545     S
V45     V46    10.0   .     S
V45     V48    10.0   .     S
V45     V41    10.0   1_556     S
V46     V48    10.0   .     S
V46     V47    10.0   .     S
V46     V40    10.0   1_556     S
V47     V48    10.0   .     S
V48     V39    10.0   1_556     S
V48     V12    10.0   1_455     S
