data_svx
_audit_creation_date              2020-02-04
_audit_creation_method            'Pymatgen'
_symmetry_space_group_name_H-M    'P1'
_symmetry_Int_Tables_number       1
loop_
_symmetry_equiv_pos_as_xyz
  x,y,z
_cell_length_a                    37.818
_cell_length_b                    37.818
_cell_length_c                    37.818
_cell_angle_alpha                 90.0
_cell_angle_beta                 90.0
_cell_angle_gamma                 90.0
loop_
_atom_site_label
_atom_site_type_symbol
_atom_site_fract_x
_atom_site_fract_y
_atom_site_fract_z
V1     V     0.1356   0.4685   0.0663
V2     V     0.9337   0.6356   0.0315
V3     V     0.9685   0.4337   0.8644
V4     V     0.0663   0.1356   0.4685
V5     V     0.0315   0.9337   0.6356
V6     V     0.8644   0.9685   0.4337
V7     V     0.9337   0.3644   0.4685
V8     V     0.1356   0.5315   0.4337
V9     V     0.9685   0.5663   0.6356
V10     V     0.4685   0.0663   0.1356
V11     V     0.6356   0.0315   0.9337
V12     V     0.4337   0.8644   0.9685
V13     V     0.4685   0.9337   0.3644
V14     V     0.6356   0.9685   0.5663
V15     V     0.4337   0.1356   0.5315
V16     V     0.3644   0.5315   0.5663
V17     V     0.5663   0.3644   0.5315
V18     V     0.5315   0.5663   0.3644
V19     V     0.5315   0.4337   0.1356
V20     V     0.3644   0.4685   0.9337
V21     V     0.5663   0.6356   0.9685
V22     V     0.0315   0.0663   0.8644
V23     V     0.0663   0.8644   0.0315
V24     V     0.8644   0.0315   0.0663
V25     V     0.3163   0.2815   0.1144
V26     V     0.2815   0.1144   0.3163
V27     V     0.1144   0.3163   0.2815
V28     V     0.3856   0.3163   0.7185
V29     V     0.2185   0.1144   0.6837
V30     V     0.1837   0.2815   0.8856
V31     V     0.1837   0.7185   0.6144
V32     V     0.3856   0.6837   0.7815
V33     V     0.2185   0.8856   0.8163
V34     V     0.3163   0.7185   0.3856
V35     V     0.2815   0.8856   0.1837
V36     V     0.1144   0.6837   0.2185
V37     V     0.7185   0.6144   0.1837
V38     V     0.6837   0.7815   0.3856
V39     V     0.8856   0.8163   0.2185
V40     V     0.8163   0.7815   0.6144
V41     V     0.6144   0.8163   0.7815
V42     V     0.7815   0.6144   0.8163
V43     V     0.6837   0.2185   0.1144
V44     V     0.7185   0.3856   0.3163
V45     V     0.8856   0.1837   0.2815
V46     V     0.6144   0.1837   0.7185
V47     V     0.7815   0.3856   0.6837
V48     V     0.8163   0.2185   0.8856
loop_
_geom_bond_atom_site_label_1
_geom_bond_atom_site_label_2
_geom_bond_distance
_geom_bond_site_symmetry_2
_ccdc_geom_bond_type
V1     V30    10.0   1_554     S
V1     V3    10.0   1_454     S
V1     V2    10.0   1_455     S
V1     V20    10.0   1_554     S
V1     V36    10.0   .     S
V1     V25    10.0   .     S
V1     V27    10.0   .     S
V2     V36    10.0   1_655     S
V2     V3    10.0   1_554     S
V2     V1    10.0   1_655     S
V2     V23    10.0   1_655     S
V2     V42    10.0   1_554     S
V2     V39    10.0   .     S
V2     V37    10.0   .     S
V3     V1    10.0   1_656     S
V3     V2    10.0   1_556     S
V3     V42    10.0   .     S
V3     V9    10.0   .     S
V3     V30    10.0   1_655     S
V3     V47    10.0   .     S
V3     V48    10.0   .     S
V4     V45    10.0   1_455     S
V4     V6    10.0   1_445     S
V4     V5    10.0   1_545     S
V4     V7    10.0   1_455     S
V4     V29    10.0   .     S
V4     V27    10.0   .     S
V4     V26    10.0   .     S
V5     V29    10.0   1_565     S
V5     V6    10.0   1_455     S
V5     V4    10.0   1_565     S
V5     V22    10.0   1_565     S
V5     V40    10.0   1_455     S
V5     V33    10.0   .     S
V5     V31    10.0   .     S
V6     V4    10.0   1_665     S
V6     V5    10.0   1_655     S
V6     V40    10.0   .     S
V6     V14    10.0   .     S
V6     V45    10.0   1_565     S
V6     V38    10.0   .     S
V6     V39    10.0   .     S
V7     V27    10.0   1_655     S
V7     V8    10.0   1_655     S
V7     V9    10.0   .     S
V7     V4    10.0   1_655     S
V7     V47    10.0   .     S
V7     V45    10.0   .     S
V7     V44    10.0   .     S
V8     V31    10.0   .     S
V8     V7    10.0   1_455     S
V8     V9    10.0   1_455     S
V8     V16    10.0   .     S
V8     V27    10.0   .     S
V8     V34    10.0   .     S
V8     V36    10.0   .     S
V9     V8    10.0   1_655     S
V9     V47    10.0   .     S
V9     V31    10.0   1_655     S
V9     V42    10.0   .     S
V9     V40    10.0   .     S
V10     V35    10.0   1_545     S
V10     V12    10.0   1_544     S
V10     V11    10.0   1_554     S
V10     V13    10.0   1_545     S
V10     V43    10.0   .     S
V10     V26    10.0   .     S
V10     V25    10.0   .     S
V11     V43    10.0   1_556     S
V11     V12    10.0   1_545     S
V11     V10    10.0   1_556     S
V11     V24    10.0   1_556     S
V11     V41    10.0   1_545     S
V11     V48    10.0   .     S
V11     V46    10.0   .     S
V12     V11    10.0   1_565     S
V12     V10    10.0   1_566     S
V12     V41    10.0   .     S
V12     V21    10.0   .     S
V12     V35    10.0   1_556     S
V12     V32    10.0   .     S
V12     V33    10.0   .     S
V13     V26    10.0   1_565     S
V13     V15    10.0   1_565     S
V13     V14    10.0   .     S
V13     V10    10.0   1_565     S
V13     V38    10.0   .     S
V13     V35    10.0   .     S
V13     V34    10.0   .     S
V14     V38    10.0   .     S
V14     V15    10.0   1_565     S
V14     V46    10.0   1_565     S
V14     V40    10.0   .     S
V14     V41    10.0   .     S
V15     V14    10.0   1_545     S
V15     V13    10.0   1_545     S
V15     V46    10.0   .     S
V15     V17    10.0   .     S
V15     V26    10.0   .     S
V15     V28    10.0   .     S
V15     V29    10.0   .     S
V16     V34    10.0   .     S
V16     V18    10.0   .     S
V16     V17    10.0   .     S
V16     V28    10.0   .     S
V16     V31    10.0   .     S
V16     V32    10.0   .     S
V17     V28    10.0   .     S
V17     V18    10.0   .     S
V17     V44    10.0   .     S
V17     V46    10.0   .     S
V17     V47    10.0   .     S
V18     V44    10.0   .     S
V18     V19    10.0   .     S
V18     V34    10.0   .     S
V18     V37    10.0   .     S
V18     V38    10.0   .     S
V19     V37    10.0   .     S
V19     V21    10.0   1_554     S
V19     V20    10.0   1_554     S
V19     V25    10.0   .     S
V19     V44    10.0   .     S
V19     V43    10.0   .     S
V20     V25    10.0   1_556     S
V20     V21    10.0   .     S
V20     V19    10.0   1_556     S
V20     V1    10.0   1_556     S
V20     V32    10.0   .     S
V20     V30    10.0   .     S
V20     V28    10.0   .     S
V21     V19    10.0   1_556     S
V21     V32    10.0   .     S
V21     V37    10.0   1_556     S
V21     V41    10.0   .     S
V21     V42    10.0   .     S
V22     V33    10.0   1_545     S
V22     V24    10.0   1_456     S
V22     V23    10.0   1_546     S
V22     V5    10.0   1_545     S
V22     V48    10.0   1_455     S
V22     V29    10.0   .     S
V22     V30    10.0   .     S
V23     V39    10.0   1_455     S
V23     V24    10.0   1_465     S
V23     V22    10.0   1_564     S
V23     V2    10.0   1_455     S
V23     V33    10.0   1_554     S
V23     V36    10.0   .     S
V23     V35    10.0   .     S
V24     V23    10.0   1_645     S
V24     V22    10.0   1_654     S
V24     V48    10.0   1_554     S
V24     V11    10.0   1_554     S
V24     V39    10.0   1_545     S
V24     V43    10.0   .     S
V24     V45    10.0   .     S
V25     V20    10.0   1_554     S
V25     V26    10.0   .     S
V25     V27    10.0   .     S
V25     V30    10.0   1_554     S
V26     V13    10.0   1_545     S
V26     V27    10.0   .     S
V26     V35    10.0   1_545     S
V27     V7    10.0   1_455     S
V27     V45    10.0   1_455     S
V28     V29    10.0   .     S
V28     V30    10.0   .     S
V28     V46    10.0   .     S
V29     V5    10.0   1_545     S
V29     V30    10.0   .     S
V29     V33    10.0   1_545     S
V30     V1    10.0   1_556     S
V30     V3    10.0   1_455     S
V30     V25    10.0   1_556     S
V31     V9    10.0   1_455     S
V31     V33    10.0   .     S
V31     V32    10.0   .     S
V31     V34    10.0   .     S
V32     V33    10.0   .     S
V32     V41    10.0   .     S
V33     V22    10.0   1_565     S
V33     V23    10.0   1_556     S
V33     V29    10.0   1_565     S
V34     V36    10.0   .     S
V34     V35    10.0   .     S
V35     V10    10.0   1_565     S
V35     V12    10.0   1_554     S
V35     V26    10.0   1_565     S
V35     V36    10.0   .     S
V36     V2    10.0   1_455     S
V36     V39    10.0   1_455     S
V37     V21    10.0   1_554     S
V37     V39    10.0   .     S
V37     V38    10.0   .     S
V37     V44    10.0   .     S
V38     V39    10.0   .     S
V38     V40    10.0   .     S
V39     V23    10.0   1_655     S
V39     V24    10.0   1_565     S
V39     V36    10.0   1_655     S
V40     V5    10.0   1_655     S
V40     V42    10.0   .     S
V40     V41    10.0   .     S
V41     V11    10.0   1_565     S
V41     V42    10.0   .     S
V42     V2    10.0   1_556     S
V42     V47    10.0   .     S
V43     V11    10.0   1_554     S
V43     V44    10.0   .     S
V43     V45    10.0   .     S
V43     V48    10.0   1_554     S
V44     V45    10.0   .     S
V45     V4    10.0   1_655     S
V45     V6    10.0   1_545     S
V45     V27    10.0   1_655     S
V46     V14    10.0   1_545     S
V46     V48    10.0   .     S
V46     V47    10.0   .     S
V47     V48    10.0   .     S
V48     V24    10.0   1_556     S
V48     V22    10.0   1_655     S
V48     V43    10.0   1_556     S
