data_swa
_audit_creation_date              2020-02-04
_audit_creation_method            'Pymatgen'
_symmetry_space_group_name_H-M    'P1'
_symmetry_Int_Tables_number       1
loop_
_symmetry_equiv_pos_as_xyz
  x,y,z
_cell_length_a                    38.3407
_cell_length_b                    38.3407
_cell_length_c                    38.3407
_cell_angle_alpha                 90.0
_cell_angle_beta                 90.0
_cell_angle_gamma                 90.0
loop_
_atom_site_label
_atom_site_type_symbol
_atom_site_fract_x
_atom_site_fract_y
_atom_site_fract_z
V1     V     0.9159   0.8306   0.1344
V2     V     0.8306   0.9159   0.3656
V3     V     0.8306   0.1344   0.9159
V4     V     0.9159   0.3656   0.8306
V5     V     0.1344   0.9159   0.8306
V6     V     0.3656   0.8306   0.9159
V7     V     0.0841   0.1694   0.8656
V8     V     0.1694   0.0841   0.6344
V9     V     0.8656   0.0841   0.1694
V10     V     0.6344   0.1694   0.0841
V11     V     0.1694   0.4159   0.8656
V12     V     0.0841   0.3306   0.6344
V13     V     0.1344   0.6694   0.9159
V14     V     0.3656   0.5841   0.8306
V15     V     0.4159   0.8656   0.1694
V16     V     0.3306   0.6344   0.0841
V17     V     0.6694   0.9159   0.1344
V18     V     0.5841   0.8306   0.3656
V19     V     0.8656   0.1694   0.4159
V20     V     0.6344   0.0841   0.3306
V21     V     0.9159   0.1344   0.6694
V22     V     0.8306   0.3656   0.5841
V23     V     0.1344   0.8306   0.5841
V24     V     0.3656   0.9159   0.6694
V25     V     0.8656   0.3306   0.0841
V26     V     0.6344   0.4159   0.1694
V27     V     0.5841   0.6694   0.1344
V28     V     0.6694   0.5841   0.3656
V29     V     0.3306   0.8656   0.4159
V30     V     0.4159   0.6344   0.3306
V31     V     0.5841   0.1344   0.8306
V32     V     0.6694   0.3656   0.9159
V33     V     0.0841   0.8656   0.3306
V34     V     0.1694   0.6344   0.4159
V35     V     0.1344   0.5841   0.6694
V36     V     0.3656   0.6694   0.5841
V37     V     0.4159   0.3306   0.8656
V38     V     0.3306   0.4159   0.6344
V39     V     0.1694   0.8656   0.0841
V40     V     0.0841   0.6344   0.1694
V41     V     0.8306   0.5841   0.1344
V42     V     0.9159   0.6694   0.3656
V43     V     0.3306   0.0841   0.8656
V44     V     0.4159   0.1694   0.6344
V45     V     0.6694   0.1344   0.5841
V46     V     0.5841   0.3656   0.6694
V47     V     0.8656   0.4159   0.3306
V48     V     0.6344   0.3306   0.4159
loop_
_geom_bond_atom_site_label_1
_geom_bond_atom_site_label_2
_geom_bond_distance
_geom_bond_site_symmetry_2
_ccdc_geom_bond_type
V1     V33    10.0   1_655     S
V1     V2    10.0   .     S
V1     V9    10.0   1_565     S
V1     V17    10.0   .     S
V1     V40    10.0   1_655     S
V1     V41    10.0   .     S
V1     V39    10.0   1_655     S
V2     V9    10.0   1_565     S
V2     V33    10.0   1_655     S
V2     V20    10.0   1_565     S
V2     V18    10.0   .     S
V2     V19    10.0   1_565     S
V2     V42    10.0   .     S
V3     V25    10.0   1_556     S
V3     V4    10.0   .     S
V3     V7    10.0   1_655     S
V3     V21    10.0   .     S
V3     V10    10.0   1_556     S
V3     V31    10.0   .     S
V3     V9    10.0   1_556     S
V4     V7    10.0   1_655     S
V4     V25    10.0   1_556     S
V4     V12    10.0   1_655     S
V4     V22    10.0   .     S
V4     V11    10.0   1_655     S
V4     V32    10.0   .     S
V5     V43    10.0   1_565     S
V5     V6    10.0   .     S
V5     V39    10.0   1_556     S
V5     V8    10.0   1_565     S
V5     V23    10.0   .     S
V5     V7    10.0   1_565     S
V5     V13    10.0   .     S
V6     V39    10.0   1_556     S
V6     V43    10.0   1_565     S
V6     V16    10.0   1_556     S
V6     V14    10.0   .     S
V6     V15    10.0   1_556     S
V6     V24    10.0   .     S
V7     V4    10.0   1_455     S
V7     V11    10.0   .     S
V7     V3    10.0   1_455     S
V7     V43    10.0   .     S
V7     V21    10.0   1_455     S
V7     V8    10.0   .     S
V7     V5    10.0   1_545     S
V8     V5    10.0   1_545     S
V8     V21    10.0   1_455     S
V8     V12    10.0   .     S
V8     V24    10.0   1_545     S
V8     V44    10.0   .     S
V8     V23    10.0   1_545     S
V9     V2    10.0   1_545     S
V9     V19    10.0   .     S
V9     V1    10.0   1_545     S
V9     V25    10.0   .     S
V9     V17    10.0   1_545     S
V9     V10    10.0   .     S
V9     V3    10.0   1_554     S
V10     V3    10.0   1_554     S
V10     V17    10.0   1_545     S
V10     V20    10.0   .     S
V10     V32    10.0   1_554     S
V10     V26    10.0   .     S
V10     V31    10.0   1_554     S
V11     V35    10.0   .     S
V11     V12    10.0   .     S
V11     V4    10.0   1_455     S
V11     V14    10.0   .     S
V11     V13    10.0   .     S
V11     V37    10.0   .     S
V12     V4    10.0   1_455     S
V12     V35    10.0   .     S
V12     V21    10.0   1_455     S
V12     V22    10.0   1_455     S
V12     V38    10.0   .     S
V13     V35    10.0   .     S
V13     V16    10.0   1_556     S
V13     V14    10.0   .     S
V13     V39    10.0   1_556     S
V13     V40    10.0   1_556     S
V14     V16    10.0   1_556     S
V14     V38    10.0   .     S
V14     V36    10.0   .     S
V14     V37    10.0   .     S
V15     V39    10.0   .     S
V15     V27    10.0   .     S
V15     V16    10.0   .     S
V15     V6    10.0   1_554     S
V15     V18    10.0   .     S
V15     V17    10.0   .     S
V15     V29    10.0   .     S
V16     V13    10.0   1_554     S
V16     V40    10.0   .     S
V16     V14    10.0   1_554     S
V16     V6    10.0   1_554     S
V16     V27    10.0   .     S
V16     V30    10.0   .     S
V17     V9    10.0   1_565     S
V17     V10    10.0   1_565     S
V17     V27    10.0   .     S
V17     V20    10.0   1_565     S
V17     V18    10.0   .     S
V18     V20    10.0   1_565     S
V18     V30    10.0   .     S
V18     V28    10.0   .     S
V18     V29    10.0   .     S
V19     V45    10.0   .     S
V19     V20    10.0   .     S
V19     V2    10.0   1_545     S
V19     V22    10.0   .     S
V19     V21    10.0   .     S
V19     V47    10.0   .     S
V20     V17    10.0   1_545     S
V20     V18    10.0   1_545     S
V20     V2    10.0   1_545     S
V20     V45    10.0   .     S
V20     V48    10.0   .     S
V21     V7    10.0   1_655     S
V21     V8    10.0   1_655     S
V21     V45    10.0   .     S
V21     V12    10.0   1_655     S
V21     V22    10.0   .     S
V22     V12    10.0   1_655     S
V22     V48    10.0   .     S
V22     V46    10.0   .     S
V22     V47    10.0   .     S
V23     V29    10.0   .     S
V23     V24    10.0   .     S
V23     V8    10.0   1_565     S
V23     V34    10.0   .     S
V23     V35    10.0   .     S
V23     V33    10.0   .     S
V24     V8    10.0   1_565     S
V24     V29    10.0   .     S
V24     V36    10.0   .     S
V24     V43    10.0   1_565     S
V24     V44    10.0   1_565     S
V25     V3    10.0   1_554     S
V25     V4    10.0   1_554     S
V25     V32    10.0   1_554     S
V25     V26    10.0   .     S
V25     V41    10.0   .     S
V25     V47    10.0   .     S
V26     V41    10.0   .     S
V26     V32    10.0   1_554     S
V26     V28    10.0   .     S
V26     V27    10.0   .     S
V26     V48    10.0   .     S
V27     V41    10.0   .     S
V27     V30    10.0   .     S
V27     V28    10.0   .     S
V28     V30    10.0   .     S
V28     V47    10.0   .     S
V28     V42    10.0   .     S
V28     V48    10.0   .     S
V29     V33    10.0   .     S
V29     V36    10.0   .     S
V29     V30    10.0   .     S
V30     V36    10.0   .     S
V30     V34    10.0   .     S
V31     V37    10.0   .     S
V31     V32    10.0   .     S
V31     V10    10.0   1_556     S
V31     V44    10.0   .     S
V31     V45    10.0   .     S
V31     V43    10.0   .     S
V32     V25    10.0   1_556     S
V32     V26    10.0   1_556     S
V32     V10    10.0   1_556     S
V32     V37    10.0   .     S
V32     V46    10.0   .     S
V33     V1    10.0   1_455     S
V33     V39    10.0   .     S
V33     V2    10.0   1_455     S
V33     V42    10.0   1_455     S
V33     V34    10.0   .     S
V34     V42    10.0   1_455     S
V34     V36    10.0   .     S
V34     V35    10.0   .     S
V34     V40    10.0   .     S
V35     V38    10.0   .     S
V35     V36    10.0   .     S
V36     V38    10.0   .     S
V37     V43    10.0   .     S
V37     V46    10.0   .     S
V37     V38    10.0   .     S
V38     V46    10.0   .     S
V38     V44    10.0   .     S
V39     V6    10.0   1_554     S
V39     V5    10.0   1_554     S
V39     V13    10.0   1_554     S
V39     V40    10.0   .     S
V39     V1    10.0   1_455     S
V40     V1    10.0   1_455     S
V40     V13    10.0   1_554     S
V40     V42    10.0   1_455     S
V40     V41    10.0   1_455     S
V41     V47    10.0   .     S
V41     V42    10.0   .     S
V41     V40    10.0   1_655     S
V42     V33    10.0   1_655     S
V42     V34    10.0   1_655     S
V42     V40    10.0   1_655     S
V42     V47    10.0   .     S
V43     V5    10.0   1_545     S
V43     V6    10.0   1_545     S
V43     V24    10.0   1_545     S
V43     V44    10.0   .     S
V44     V24    10.0   1_545     S
V44     V46    10.0   .     S
V44     V45    10.0   .     S
V45     V48    10.0   .     S
V45     V46    10.0   .     S
V46     V48    10.0   .     S
V47     V48    10.0   .     S
