data_swc
_audit_creation_date              2020-02-04
_audit_creation_method            'Pymatgen'
_symmetry_space_group_name_H-M    'P1'
_symmetry_Int_Tables_number       1
loop_
_symmetry_equiv_pos_as_xyz
  x,y,z
_cell_length_a                    47.0782
_cell_length_b                    47.0782
_cell_length_c                    20.0
_cell_angle_alpha                 90.0
_cell_angle_beta                 90.0
_cell_angle_gamma                 120.0
loop_
_atom_site_label
_atom_site_type_symbol
_atom_site_fract_x
_atom_site_fract_y
_atom_site_fract_z
V1     V     0.1209   0.5605   0.4583
V2     V     0.1209   0.5605   0.9583
V3     V     0.2271   0.7729   0.2083
V4     V     0.2271   0.7729   0.7083
V5     V     0.4395   0.8791   0.4583
V6     V     0.4395   0.8791   0.9583
V7     V     0.5457   0.7729   0.2083
V8     V     0.5457   0.7729   0.7083
V9     V     0.1062   0.8938   0.125
V10     V     0.1062   0.8938   0.625
V11     V     0.8938   0.7876   0.375
V12     V     0.8938   0.7876   0.875
V13     V     0.8938   0.1062   0.375
V14     V     0.8938   0.1062   0.875
V15     V     0.7876   0.8938   0.125
V16     V     0.7876   0.8938   0.625
V17     V     0.5605   0.1209   0.0417
V18     V     0.5605   0.1209   0.5417
V19     V     0.8791   0.4395   0.0417
V20     V     0.8791   0.4395   0.5417
V21     V     0.7729   0.2271   0.2917
V22     V     0.7729   0.2271   0.7917
V23     V     0.7729   0.5457   0.2917
V24     V     0.7729   0.5457   0.7917
V25     V     0.4543   0.2271   0.2917
V26     V     0.4543   0.2271   0.7917
V27     V     0.5605   0.4395   0.0417
V28     V     0.5605   0.4395   0.5417
V29     V     0.2271   0.4543   0.2083
V30     V     0.2271   0.4543   0.7083
V31     V     0.4395   0.5605   0.4583
V32     V     0.4395   0.5605   0.9583
V33     V     0.1062   0.2124   0.125
V34     V     0.1062   0.2124   0.625
V35     V     0.2124   0.1062   0.375
V36     V     0.2124   0.1062   0.875
loop_
_geom_bond_atom_site_label_1
_geom_bond_atom_site_label_2
_geom_bond_distance
_geom_bond_site_symmetry_2
_ccdc_geom_bond_type
V1     V30    10.0   .     S
V1     V29    10.0   .     S
V1     V3    10.0   .     S
V1     V2    10.0   1_554     S
V1     V2    10.0   .     S
V1     V4    10.0   .     S
V1     V20    10.0   1_455     S
V2     V29    10.0   1_556     S
V2     V30    10.0   .     S
V2     V4    10.0   .     S
V2     V1    10.0   1_556     S
V2     V3    10.0   1_556     S
V2     V19    10.0   1_456     S
V3     V9    10.0   .     S
V3     V2    10.0   1_554     S
V3     V4    10.0   .     S
V3     V4    10.0   1_554     S
V3     V5    10.0   .     S
V3     V6    10.0   1_554     S
V4     V10    10.0   .     S
V4     V3    10.0   1_556     S
V4     V6    10.0   .     S
V4     V5    10.0   .     S
V5     V18    10.0   1_565     S
V5     V6    10.0   1_554     S
V5     V6    10.0   .     S
V5     V7    10.0   .     S
V5     V8    10.0   .     S
V6     V17    10.0   1_566     S
V6     V5    10.0   1_556     S
V6     V8    10.0   .     S
V6     V7    10.0   1_556     S
V6     V3    10.0   1_556     S
V7     V15    10.0   .     S
V7     V6    10.0   1_554     S
V7     V8    10.0   .     S
V7     V8    10.0   1_554     S
V7     V32    10.0   1_554     S
V7     V31    10.0   .     S
V8     V16    10.0   .     S
V8     V7    10.0   1_556     S
V8     V31    10.0   .     S
V8     V32    10.0   .     S
V9     V10    10.0   .     S
V9     V10    10.0   1_554     S
V9     V35    10.0   1_565     S
V9     V36    10.0   1_564     S
V9     V11    10.0   1_455     S
V9     V12    10.0   1_454     S
V10     V9    10.0   1_556     S
V10     V36    10.0   1_565     S
V10     V35    10.0   1_565     S
V10     V12    10.0   1_455     S
V10     V11    10.0   1_455     S
V11     V23    10.0   .     S
V11     V12    10.0   1_554     S
V11     V12    10.0   .     S
V11     V15    10.0   .     S
V11     V9    10.0   1_655     S
V11     V10    10.0   1_655     S
V11     V16    10.0   .     S
V12     V24    10.0   .     S
V12     V11    10.0   1_556     S
V12     V16    10.0   .     S
V12     V10    10.0   1_655     S
V12     V9    10.0   1_656     S
V12     V15    10.0   1_556     S
V13     V14    10.0   1_554     S
V13     V14    10.0   .     S
V13     V15    10.0   1_545     S
V13     V16    10.0   1_545     S
V13     V33    10.0   1_655     S
V13     V34    10.0   1_655     S
V13     V21    10.0   .     S
V14     V13    10.0   1_556     S
V14     V16    10.0   1_545     S
V14     V15    10.0   1_546     S
V14     V34    10.0   1_655     S
V14     V33    10.0   1_656     S
V14     V22    10.0   .     S
V15     V12    10.0   1_554     S
V15     V16    10.0   .     S
V15     V16    10.0   1_554     S
V15     V13    10.0   1_565     S
V15     V14    10.0   1_564     S
V16     V15    10.0   1_556     S
V16     V14    10.0   1_565     S
V16     V13    10.0   1_565     S
V17     V6    10.0   1_544     S
V17     V22    10.0   1_554     S
V17     V21    10.0   .     S
V17     V18    10.0   .     S
V17     V18    10.0   1_554     S
V17     V26    10.0   1_554     S
V17     V25    10.0   .     S
V18     V5    10.0   1_545     S
V18     V21    10.0   .     S
V18     V22    10.0   .     S
V18     V17    10.0   1_556     S
V18     V25    10.0   .     S
V18     V26    10.0   .     S
V19     V2    10.0   1_654     S
V19     V20    10.0   .     S
V19     V20    10.0   1_554     S
V19     V24    10.0   1_554     S
V19     V23    10.0   .     S
V19     V22    10.0   1_554     S
V19     V21    10.0   .     S
V20     V1    10.0   1_655     S
V20     V19    10.0   1_556     S
V20     V23    10.0   .     S
V20     V24    10.0   .     S
V20     V21    10.0   .     S
V20     V22    10.0   .     S
V21     V22    10.0   1_554     S
V21     V22    10.0   .     S
V22     V17    10.0   1_556     S
V22     V21    10.0   1_556     S
V22     V19    10.0   1_556     S
V23     V24    10.0   1_554     S
V23     V24    10.0   .     S
V23     V28    10.0   .     S
V23     V27    10.0   .     S
V24     V19    10.0   1_556     S
V24     V23    10.0   1_556     S
V24     V27    10.0   1_556     S
V24     V28    10.0   .     S
V25     V35    10.0   .     S
V25     V27    10.0   .     S
V25     V26    10.0   1_554     S
V25     V26    10.0   .     S
V25     V28    10.0   .     S
V26     V36    10.0   .     S
V26     V28    10.0   .     S
V26     V25    10.0   1_556     S
V26     V27    10.0   1_556     S
V26     V17    10.0   1_556     S
V27     V28    10.0   .     S
V27     V28    10.0   1_554     S
V27     V26    10.0   1_554     S
V27     V24    10.0   1_554     S
V27     V32    10.0   1_554     S
V28     V27    10.0   1_556     S
V28     V31    10.0   .     S
V29     V2    10.0   1_554     S
V29     V32    10.0   1_554     S
V29     V31    10.0   .     S
V29     V30    10.0   .     S
V29     V30    10.0   1_554     S
V29     V33    10.0   .     S
V30     V31    10.0   .     S
V30     V32    10.0   .     S
V30     V29    10.0   1_556     S
V30     V34    10.0   .     S
V31     V32    10.0   1_554     S
V31     V32    10.0   .     S
V32     V27    10.0   1_556     S
V32     V29    10.0   1_556     S
V32     V31    10.0   1_556     S
V32     V7    10.0   1_556     S
V33     V13    10.0   1_455     S
V33     V14    10.0   1_454     S
V33     V35    10.0   .     S
V33     V36    10.0   1_554     S
V33     V34    10.0   .     S
V33     V34    10.0   1_554     S
V34     V14    10.0   1_455     S
V34     V13    10.0   1_455     S
V34     V36    10.0   .     S
V34     V35    10.0   .     S
V34     V33    10.0   1_556     S
V35     V9    10.0   1_545     S
V35     V10    10.0   1_545     S
V35     V36    10.0   1_554     S
V35     V36    10.0   .     S
V36     V10    10.0   1_545     S
V36     V9    10.0   1_546     S
V36     V33    10.0   1_556     S
V36     V35    10.0   1_556     S
