data_swl
_audit_creation_date              2020-02-04
_audit_creation_method            'Pymatgen'
_symmetry_space_group_name_H-M    'P1'
_symmetry_Int_Tables_number       1
loop_
_symmetry_equiv_pos_as_xyz
  x,y,z
_cell_length_a                    20.0
_cell_length_b                    38.637
_cell_length_c                    37.3205
_cell_angle_alpha                 90.0
_cell_angle_beta                 90.0
_cell_angle_gamma                 90.0
loop_
_atom_site_label
_atom_site_type_symbol
_atom_site_fract_x
_atom_site_fract_y
_atom_site_fract_z
V1     V     0.4375   0.375   0.009
V2     V     0.9375   0.375   0.009
V3     V     0.4375   0.375   0.741
V4     V     0.9375   0.375   0.741
V5     V     0.1875   0.875   0.009
V6     V     0.6875   0.875   0.009
V7     V     0.1875   0.875   0.741
V8     V     0.6875   0.875   0.741
V9     V     0.0625   0.625   0.991
V10     V     0.5625   0.625   0.991
V11     V     0.0625   0.625   0.259
V12     V     0.5625   0.625   0.259
V13     V     0.3125   0.125   0.991
V14     V     0.8125   0.125   0.991
V15     V     0.3125   0.125   0.259
V16     V     0.8125   0.125   0.259
V17     V     0.3125   0.625   0.491
V18     V     0.8125   0.625   0.491
V19     V     0.3125   0.625   0.759
V20     V     0.8125   0.625   0.759
V21     V     0.4375   0.875   0.509
V22     V     0.9375   0.875   0.509
V23     V     0.4375   0.875   0.241
V24     V     0.9375   0.875   0.241
V25     V     0.1875   0.375   0.509
V26     V     0.6875   0.375   0.509
V27     V     0.1875   0.375   0.241
V28     V     0.6875   0.375   0.241
V29     V     0.0625   0.125   0.491
V30     V     0.5625   0.125   0.491
V31     V     0.0625   0.125   0.759
V32     V     0.5625   0.125   0.759
loop_
_geom_bond_atom_site_label_1
_geom_bond_atom_site_label_2
_geom_bond_distance
_geom_bond_site_symmetry_2
_ccdc_geom_bond_type
V1     V27    10.0   .     S
V1     V28    10.0   .     S
V1     V3    10.0   1_554     S
V1     V10    10.0   1_554     S
V1     V13    10.0   1_554     S
V1     V2    10.0   1_455     S
V1     V2    10.0   .     S
V2     V28    10.0   .     S
V2     V27    10.0   1_655     S
V2     V4    10.0   1_554     S
V2     V9    10.0   1_654     S
V2     V14    10.0   1_554     S
V2     V1    10.0   1_655     S
V3     V25    10.0   .     S
V3     V26    10.0   .     S
V3     V1    10.0   1_556     S
V3     V32    10.0   .     S
V3     V19    10.0   .     S
V3     V4    10.0   1_455     S
V3     V4    10.0   .     S
V4     V26    10.0   .     S
V4     V25    10.0   1_655     S
V4     V2    10.0   1_556     S
V4     V31    10.0   1_655     S
V4     V20    10.0   .     S
V4     V3    10.0   1_655     S
V5     V23    10.0   .     S
V5     V24    10.0   1_455     S
V5     V7    10.0   1_554     S
V5     V9    10.0   1_554     S
V5     V13    10.0   1_564     S
V5     V6    10.0   .     S
V5     V6    10.0   1_455     S
V6     V24    10.0   .     S
V6     V23    10.0   .     S
V6     V8    10.0   1_554     S
V6     V10    10.0   1_554     S
V6     V14    10.0   1_564     S
V6     V5    10.0   1_655     S
V7     V21    10.0   .     S
V7     V22    10.0   1_455     S
V7     V5    10.0   1_556     S
V7     V31    10.0   1_565     S
V7     V19    10.0   .     S
V7     V8    10.0   .     S
V7     V8    10.0   1_455     S
V8     V22    10.0   .     S
V8     V21    10.0   .     S
V8     V6    10.0   1_556     S
V8     V32    10.0   1_565     S
V8     V20    10.0   .     S
V8     V7    10.0   1_655     S
V9     V19    10.0   .     S
V9     V20    10.0   1_455     S
V9     V11    10.0   1_556     S
V9     V5    10.0   1_556     S
V9     V2    10.0   1_456     S
V9     V10    10.0   .     S
V9     V10    10.0   1_455     S
V10     V20    10.0   .     S
V10     V19    10.0   .     S
V10     V12    10.0   1_556     S
V10     V6    10.0   1_556     S
V10     V1    10.0   1_556     S
V10     V9    10.0   1_655     S
V11     V17    10.0   .     S
V11     V18    10.0   1_455     S
V11     V9    10.0   1_554     S
V11     V24    10.0   1_455     S
V11     V27    10.0   .     S
V11     V12    10.0   .     S
V11     V12    10.0   1_455     S
V12     V18    10.0   .     S
V12     V17    10.0   .     S
V12     V10    10.0   1_554     S
V12     V23    10.0   .     S
V12     V28    10.0   .     S
V12     V11    10.0   1_655     S
V13     V15    10.0   1_556     S
V13     V1    10.0   1_556     S
V13     V5    10.0   1_546     S
V13     V14    10.0   1_455     S
V13     V14    10.0   .     S
V13     V31    10.0   .     S
V13     V32    10.0   .     S
V14     V16    10.0   1_556     S
V14     V2    10.0   1_556     S
V14     V6    10.0   1_546     S
V14     V13    10.0   1_655     S
V14     V32    10.0   .     S
V14     V31    10.0   1_655     S
V15     V29    10.0   .     S
V15     V30    10.0   .     S
V15     V13    10.0   1_554     S
V15     V23    10.0   1_545     S
V15     V27    10.0   .     S
V15     V16    10.0   1_455     S
V15     V16    10.0   .     S
V16     V30    10.0   .     S
V16     V29    10.0   1_655     S
V16     V14    10.0   1_554     S
V16     V24    10.0   1_545     S
V16     V28    10.0   .     S
V16     V15    10.0   1_655     S
V17     V19    10.0   .     S
V17     V21    10.0   .     S
V17     V25    10.0   .     S
V17     V18    10.0   1_455     S
V17     V18    10.0   .     S
V18     V11    10.0   1_655     S
V18     V20    10.0   .     S
V18     V22    10.0   .     S
V18     V26    10.0   .     S
V18     V17    10.0   1_655     S
V19     V20    10.0   1_455     S
V19     V20    10.0   .     S
V20     V9    10.0   1_655     S
V20     V19    10.0   1_655     S
V21     V23    10.0   .     S
V21     V30    10.0   1_565     S
V21     V22    10.0   1_455     S
V21     V22    10.0   .     S
V22     V7    10.0   1_655     S
V22     V24    10.0   .     S
V22     V29    10.0   1_665     S
V22     V21    10.0   1_655     S
V23     V15    10.0   1_565     S
V23     V24    10.0   1_455     S
V23     V24    10.0   .     S
V24     V5    10.0   1_655     S
V24     V16    10.0   1_565     S
V24     V11    10.0   1_655     S
V24     V23    10.0   1_655     S
V25     V4    10.0   1_455     S
V25     V27    10.0   .     S
V25     V29    10.0   .     S
V25     V26    10.0   .     S
V25     V26    10.0   1_455     S
V26     V28    10.0   .     S
V26     V30    10.0   .     S
V26     V25    10.0   1_655     S
V27     V2    10.0   1_455     S
V27     V28    10.0   .     S
V27     V28    10.0   1_455     S
V28     V27    10.0   1_655     S
V29     V16    10.0   1_455     S
V29     V31    10.0   .     S
V29     V22    10.0   1_445     S
V29     V30    10.0   .     S
V29     V30    10.0   1_455     S
V30     V32    10.0   .     S
V30     V21    10.0   1_545     S
V30     V29    10.0   1_655     S
V31     V7    10.0   1_545     S
V31     V4    10.0   1_455     S
V31     V32    10.0   .     S
V31     V32    10.0   1_455     S
V31     V14    10.0   1_455     S
V32     V8    10.0   1_545     S
V32     V31    10.0   1_655     S
