data_swm
_audit_creation_date              2020-02-04
_audit_creation_method            'Pymatgen'
_symmetry_space_group_name_H-M    'P1'
_symmetry_Int_Tables_number       1
loop_
_symmetry_equiv_pos_as_xyz
  x,y,z
_cell_length_a                    39.7873
_cell_length_b                    39.7873
_cell_length_c                    39.7873
_cell_angle_alpha                 90.0
_cell_angle_beta                 90.0
_cell_angle_gamma                 90.0
loop_
_atom_site_label
_atom_site_type_symbol
_atom_site_fract_x
_atom_site_fract_y
_atom_site_fract_z
V1     V     0.4086   0.2936   0.2091
V2     V     0.5914   0.2064   0.2091
V3     V     0.6586   0.0409   0.0436
V4     V     0.8414   0.0409   0.9564
V5     V     0.3414   0.4591   0.0436
V6     V     0.1586   0.4591   0.9564
V7     V     0.9086   0.2064   0.7909
V8     V     0.0914   0.2936   0.7909
V9     V     0.5436   0.1586   0.5409
V10     V     0.4564   0.3414   0.5409
V11     V     0.2909   0.4086   0.7064
V12     V     0.2909   0.5914   0.7936
V13     V     0.4564   0.6586   0.9591
V14     V     0.5436   0.8414   0.9591
V15     V     0.7091   0.9086   0.7936
V16     V     0.7091   0.0914   0.7064
V17     V     0.4591   0.0436   0.3414
V18     V     0.4591   0.9564   0.1586
V19     V     0.2936   0.2091   0.4086
V20     V     0.2064   0.2091   0.5914
V21     V     0.2064   0.7909   0.9086
V22     V     0.2936   0.7909   0.0914
V23     V     0.0409   0.0436   0.6586
V24     V     0.0409   0.9564   0.8414
V25     V     0.4086   0.7064   0.2909
V26     V     0.5914   0.7936   0.2909
V27     V     0.1586   0.5409   0.5436
V28     V     0.3414   0.5409   0.4564
V29     V     0.9086   0.7936   0.7091
V30     V     0.0914   0.7064   0.7091
V31     V     0.6586   0.9591   0.4564
V32     V     0.8414   0.9591   0.5436
V33     V     0.0436   0.6586   0.0409
V34     V     0.9564   0.8414   0.0409
V35     V     0.2091   0.4086   0.2936
V36     V     0.2091   0.5914   0.2064
V37     V     0.0436   0.3414   0.4591
V38     V     0.9564   0.1586   0.4591
V39     V     0.7909   0.9086   0.2064
V40     V     0.7909   0.0914   0.2936
V41     V     0.9591   0.4564   0.6586
V42     V     0.9591   0.5436   0.8414
V43     V     0.7936   0.7091   0.9086
V44     V     0.7064   0.7091   0.0914
V45     V     0.7936   0.2909   0.5914
V46     V     0.7064   0.2909   0.4086
V47     V     0.5409   0.5436   0.1586
V48     V     0.5409   0.4564   0.3414
loop_
_geom_bond_atom_site_label_1
_geom_bond_atom_site_label_2
_geom_bond_distance
_geom_bond_site_symmetry_2
_ccdc_geom_bond_type
V1     V2    8.059   .     S
V1     V48    9.869   .     S
V1     V35    9.761   .     S
V1     V19    9.761   .     S
V1     V5    9.686   .     S
V1     V47    11.432   .     S
V1     V17    11.432   .     S
V2     V17    9.869   .     S
V2     V46    9.761   .     S
V2     V40    9.761   .     S
V2     V3    9.686   .     S
V2     V48    11.432   .     S
V2     V18    11.432   1_545     S
V3     V4    8.059   1_554     S
V3     V39    9.869   1_545     S
V3     V14    9.761   1_544     S
V3     V18    9.761   1_545     S
V3     V15    11.432   1_544     S
V3     V40    11.432   .     S
V4     V3    8.059   1_556     S
V4     V15    9.869   1_545     S
V4     V34    9.761   1_546     S
V4     V24    9.761   1_645     S
V4     V7    9.686   .     S
V4     V16    11.432   .     S
V4     V39    11.432   1_546     S
V5     V6    8.059   1_554     S
V5     V36    9.869   .     S
V5     V13    9.761   1_554     S
V5     V47    9.761   .     S
V5     V12    11.432   1_554     S
V5     V35    11.432   .     S
V6     V5    8.059   1_556     S
V6     V12    9.869   .     S
V6     V42    9.761   1_455     S
V6     V33    9.761   1_556     S
V6     V8    9.686   .     S
V6     V11    11.432   .     S
V6     V36    11.432   1_556     S
V7     V8    8.059   1_655     S
V7     V23    9.869   1_655     S
V7     V45    9.761   .     S
V7     V16    9.761   .     S
V7     V41    11.432   .     S
V7     V24    11.432   1_645     S
V8     V7    8.059   1_455     S
V8     V41    9.869   1_455     S
V8     V11    9.761   .     S
V8     V20    9.761   .     S
V8     V42    11.432   1_455     S
V8     V23    11.432   .     S
V9     V10    8.059   .     S
V9     V46    9.869   .     S
V9     V17    9.761   .     S
V9     V31    9.761   1_545     S
V9     V16    9.686   .     S
V9     V19    11.432   .     S
V9     V45    11.432   .     S
V10     V19    9.869   .     S
V10     V48    9.761   .     S
V10     V28    9.761   .     S
V10     V11    9.686   .     S
V10     V20    11.432   .     S
V10     V46    11.432   .     S
V11     V12    8.059   .     S
V11     V27    9.869   .     S
V11     V20    9.761   .     S
V11     V28    11.432   .     S
V12     V21    9.761   .     S
V12     V30    9.761   .     S
V12     V13    9.686   .     S
V12     V5    11.432   1_556     S
V12     V27    11.432   .     S
V13     V14    8.059   .     S
V13     V22    9.869   1_556     S
V13     V5    9.761   1_556     S
V13     V47    9.761   1_556     S
V13     V21    11.432   .     S
V13     V44    11.432   1_556     S
V14     V44    9.869   1_556     S
V14     V18    9.761   1_556     S
V14     V3    9.761   1_566     S
V14     V15    9.686   .     S
V14     V22    11.432   1_556     S
V14     V43    11.432   .     S
V15     V16    8.059   1_565     S
V15     V4    9.869   1_565     S
V15     V43    9.761   .     S
V15     V29    9.761   .     S
V15     V3    11.432   1_566     S
V15     V32    11.432   .     S
V16     V15    8.059   1_545     S
V16     V32    9.869   1_545     S
V16     V45    9.761   .     S
V16     V31    11.432   1_545     S
V17     V18    8.059   1_545     S
V17     V31    9.761   1_545     S
V17     V19    9.686   .     S
V17     V26    11.432   1_545     S
V18     V17    8.059   1_565     S
V18     V26    9.869   .     S
V18     V14    9.761   1_554     S
V18     V3    9.761   1_565     S
V18     V22    9.686   .     S
V18     V2    11.432   1_565     S
V18     V25    11.432   .     S
V19     V20    8.059   .     S
V19     V35    9.761   .     S
V19     V37    11.432   .     S
V20     V37    9.869   .     S
V20     V23    9.686   .     S
V20     V38    11.432   1_455     S
V21     V22    8.059   1_556     S
V21     V33    9.869   1_556     S
V21     V30    9.761   .     S
V21     V24    9.686   .     S
V21     V34    11.432   1_456     S
V22     V21    8.059   1_554     S
V22     V13    9.869   1_554     S
V22     V36    9.761   .     S
V22     V25    9.761   .     S
V22     V33    11.432   .     S
V22     V14    11.432   1_554     S
V23     V24    8.059   1_545     S
V23     V7    9.869   1_455     S
V23     V32    9.761   1_445     S
V23     V38    9.761   1_455     S
V23     V29    11.432   1_445     S
V24     V23    8.059   1_565     S
V24     V29    9.869   1_455     S
V24     V34    9.761   1_456     S
V24     V4    9.761   1_465     S
V24     V30    11.432   .     S
V24     V7    11.432   1_465     S
V25     V26    8.059   .     S
V25     V47    9.869   .     S
V25     V36    9.761   .     S
V25     V28    9.686   .     S
V25     V48    11.432   .     S
V26     V39    9.761   .     S
V26     V44    9.761   .     S
V26     V31    9.686   .     S
V26     V17    11.432   1_565     S
V26     V47    11.432   .     S
V27     V28    8.059   .     S
V27     V37    9.761   .     S
V27     V41    9.761   1_455     S
V27     V30    9.686   .     S
V27     V35    11.432   .     S
V28     V35    9.869   .     S
V28     V48    9.761   .     S
V28     V36    11.432   .     S
V29     V30    8.059   1_655     S
V29     V24    9.869   1_655     S
V29     V43    9.761   .     S
V29     V32    9.686   .     S
V29     V23    11.432   1_665     S
V29     V42    11.432   .     S
V30     V29    8.059   1_455     S
V30     V42    9.869   1_455     S
V30     V41    11.432   1_455     S
V31     V32    8.059   .     S
V31     V40    9.869   1_565     S
V31     V17    9.761   1_565     S
V31     V9    9.761   1_565     S
V31     V16    11.432   1_565     S
V31     V39    11.432   .     S
V32     V16    9.869   1_565     S
V32     V23    9.761   1_665     S
V32     V38    9.761   1_565     S
V32     V40    11.432   1_565     S
V33     V34    8.059   1_455     S
V33     V21    9.869   1_554     S
V33     V6    9.761   1_554     S
V33     V42    9.761   1_454     S
V33     V36    9.686   .     S
V33     V43    11.432   1_454     S
V34     V33    8.059   1_655     S
V34     V43    9.869   1_554     S
V34     V24    9.761   1_654     S
V34     V4    9.761   1_564     S
V34     V39    9.686   .     S
V34     V21    11.432   1_654     S
V34     V44    11.432   .     S
V35     V36    8.059   .     S
V35     V37    9.686   .     S
V36     V6    11.432   1_554     S
V37     V38    8.059   1_455     S
V37     V41    9.761   1_455     S
V37     V45    11.432   1_455     S
V38     V37    8.059   1_655     S
V38     V45    9.869   .     S
V38     V32    9.761   1_545     S
V38     V23    9.761   1_655     S
V38     V40    9.686   .     S
V38     V20    11.432   1_655     S
V38     V46    11.432   .     S
V39     V40    8.059   1_565     S
V39     V3    9.869   1_565     S
V39     V44    9.761   .     S
V39     V4    11.432   1_564     S
V40     V39    8.059   1_545     S
V40     V31    9.869   1_545     S
V40     V46    9.761   .     S
V40     V32    11.432   1_545     S
V41     V42    8.059   .     S
V41     V8    9.869   1_655     S
V41     V37    9.761   1_655     S
V41     V27    9.761   1_655     S
V41     V45    9.686   .     S
V41     V30    11.432   1_655     S
V42     V30    9.869   1_655     S
V42     V6    9.761   1_655     S
V42     V33    9.761   1_656     S
V42     V43    9.686   .     S
V42     V8    11.432   1_655     S
V43     V44    8.059   1_556     S
V43     V34    9.869   1_556     S
V43     V33    11.432   1_656     S
V44     V43    8.059   1_554     S
V44     V14    9.869   1_554     S
V44     V47    9.686   .     S
V44     V13    11.432   1_554     S
V45     V46    8.059   .     S
V45     V37    11.432   1_655     S
V46     V48    9.686   .     S
V47     V48    8.059   .     S
V47     V13    9.761   1_554     S
