data_swn
_audit_creation_date              2020-02-04
_audit_creation_method            'Pymatgen'
_symmetry_space_group_name_H-M    'P1'
_symmetry_Int_Tables_number       1
loop_
_symmetry_equiv_pos_as_xyz
  x,y,z
_cell_length_a                    42.7556
_cell_length_b                    42.7556
_cell_length_c                    42.7556
_cell_angle_alpha                 90.0
_cell_angle_beta                 90.0
_cell_angle_gamma                 90.0
loop_
_atom_site_label
_atom_site_type_symbol
_atom_site_fract_x
_atom_site_fract_y
_atom_site_fract_z
V1     V     0.0363   0.4855   0.8143
V2     V     0.0363   0.5145   0.6857
V3     V     0.2137   0.4357   0.7645
V4     V     0.2137   0.5643   0.7355
V5     V     0.4855   0.8143   0.0363
V6     V     0.5145   0.6857   0.0363
V7     V     0.4357   0.7645   0.2137
V8     V     0.5643   0.7355   0.2137
V9     V     0.2863   0.4357   0.2355
V10     V     0.2863   0.5643   0.2645
V11     V     0.4637   0.5145   0.3143
V12     V     0.4637   0.4855   0.1857
V13     V     0.0145   0.8143   0.9637
V14     V     0.9855   0.6857   0.9637
V15     V     0.0643   0.7645   0.7863
V16     V     0.9357   0.7355   0.7863
V17     V     0.2355   0.7137   0.0643
V18     V     0.2645   0.7137   0.9357
V19     V     0.3143   0.5363   0.9855
V20     V     0.1857   0.5363   0.0145
V21     V     0.2645   0.2863   0.5643
V22     V     0.2355   0.2863   0.4357
V23     V     0.3143   0.4637   0.5145
V24     V     0.1857   0.4637   0.4855
V25     V     0.7863   0.9357   0.7355
V26     V     0.7863   0.0643   0.7645
V27     V     0.9637   0.0145   0.8143
V28     V     0.9637   0.9855   0.6857
V29     V     0.0643   0.2355   0.7137
V30     V     0.9357   0.2645   0.7137
V31     V     0.9855   0.3143   0.5363
V32     V     0.0145   0.1857   0.5363
V33     V     0.7355   0.7863   0.9357
V34     V     0.7645   0.7863   0.0643
V35     V     0.8143   0.9637   0.0145
V36     V     0.6857   0.9637   0.9855
V37     V     0.4357   0.2355   0.2863
V38     V     0.5643   0.2645   0.2863
V39     V     0.5145   0.3143   0.4637
V40     V     0.4855   0.1857   0.4637
V41     V     0.8143   0.0363   0.4855
V42     V     0.6857   0.0363   0.5145
V43     V     0.7355   0.2137   0.5643
V44     V     0.7645   0.2137   0.4357
V45     V     0.7137   0.0643   0.2355
V46     V     0.7137   0.9357   0.2645
V47     V     0.5363   0.9855   0.3143
V48     V     0.5363   0.0145   0.1857
loop_
_geom_bond_atom_site_label_1
_geom_bond_atom_site_label_2
_geom_bond_distance
_geom_bond_site_symmetry_2
_ccdc_geom_bond_type
V1     V30    11.24   1_455     S
V1     V2    5.637   .     S
V1     V29    11.584   .     S
V1     V16    11.584   1_455     S
V1     V14    10.897   1_455     S
V1     V20    10.897   1_556     S
V1     V3    8.16   .     S
V2     V16    11.24   1_455     S
V2     V30    11.584   1_455     S
V2     V15    11.584   .     S
V2     V24    10.897   .     S
V2     V31    10.897   1_455     S
V2     V4    8.16   .     S
V3     V19    11.24   .     S
V3     V4    5.637   .     S
V3     V23    11.584   .     S
V3     V20    11.584   1_556     S
V3     V21    10.897   .     S
V3     V29    10.897   .     S
V4     V23    11.24   .     S
V4     V24    11.584   .     S
V4     V19    11.584   .     S
V4     V15    10.897   .     S
V4     V18    10.897   .     S
V5     V18    11.24   1_554     S
V5     V6    5.637   .     S
V5     V17    11.584   .     S
V5     V33    11.584   1_554     S
V5     V36    10.897   1_554     S
V5     V48    10.897   1_565     S
V5     V7    8.16   .     S
V6     V33    11.24   1_554     S
V6     V18    11.584   1_554     S
V6     V34    11.584   .     S
V6     V12    10.897   .     S
V6     V19    10.897   1_554     S
V6     V8    8.16   .     S
V7     V47    11.24   .     S
V7     V8    5.637   .     S
V7     V11    11.584   .     S
V7     V48    11.584   1_565     S
V7     V10    10.897   .     S
V7     V17    10.897   .     S
V8     V11    11.24   .     S
V8     V12    11.584   .     S
V8     V47    11.584   .     S
V8     V34    10.897   .     S
V8     V46    10.897   .     S
V9     V20    11.24   .     S
V9     V10    5.637   .     S
V9     V24    11.584   .     S
V9     V19    11.584   1_554     S
V9     V22    10.897   .     S
V9     V37    10.897   .     S
V9     V12    8.16   .     S
V10     V24    11.24   .     S
V10     V23    11.584   .     S
V10     V20    11.584   .     S
V10     V17    10.897   .     S
V10     V11    8.16   .     S
V11     V12    5.637   .     S
V11     V38    11.584   .     S
V11     V23    10.897   .     S
V11     V39    10.897   .     S
V12     V38    11.24   .     S
V12     V37    11.584   .     S
V12     V19    10.897   1_554     S
V13     V17    11.24   1_556     S
V13     V14    5.637   1_455     S
V13     V34    11.584   1_456     S
V13     V18    11.584   .     S
V13     V35    10.897   1_456     S
V13     V27    10.897   1_465     S
V13     V15    8.16   .     S
V14     V34    11.24   1_556     S
V14     V13    5.637   1_655     S
V14     V33    11.584   .     S
V14     V17    11.584   1_656     S
V14     V1    10.897   1_655     S
V14     V20    10.897   1_656     S
V14     V16    8.16   .     S
V15     V28    11.24   1_455     S
V15     V16    5.637   1_455     S
V15     V27    11.584   1_465     S
V15     V18    10.897   .     S
V16     V2    11.24   1_655     S
V16     V15    5.637   1_655     S
V16     V1    11.584   1_655     S
V16     V28    11.584   .     S
V16     V33    10.897   .     S
V16     V25    10.897   .     S
V17     V13    11.24   1_554     S
V17     V18    5.637   1_554     S
V17     V14    11.584   1_454     S
V17     V20    8.16   .     S
V18     V5    11.24   1_556     S
V18     V17    5.637   1_556     S
V18     V6    11.584   1_556     S
V18     V19    8.16   .     S
V19     V20    5.637   1_556     S
V19     V9    11.584   1_556     S
V19     V6    10.897   1_556     S
V19     V12    10.897   1_556     S
V20     V19    5.637   1_554     S
V20     V3    11.584   1_554     S
V20     V1    10.897   1_554     S
V20     V14    10.897   1_454     S
V21     V40    11.24   .     S
V21     V22    5.637   .     S
V21     V39    11.584   .     S
V21     V32    11.584   .     S
V21     V29    10.897   .     S
V21     V23    8.16   .     S
V22     V32    11.24   .     S
V22     V40    11.584   .     S
V22     V31    11.584   1_455     S
V22     V37    10.897   .     S
V22     V24    8.16   .     S
V23     V24    5.637   .     S
V23     V39    10.897   .     S
V24     V31    10.897   1_455     S
V25     V42    11.24   1_565     S
V25     V26    5.637   1_565     S
V25     V41    11.584   1_565     S
V25     V36    11.584   .     S
V25     V33    10.897   .     S
V25     V28    8.16   .     S
V26     V36    11.24   1_545     S
V26     V25    5.637   1_545     S
V26     V42    11.584   .     S
V26     V35    11.584   1_546     S
V26     V43    10.897   .     S
V26     V30    10.897   .     S
V26     V27    8.16   .     S
V27     V29    11.24   1_655     S
V27     V28    5.637   1_545     S
V27     V15    11.584   1_645     S
V27     V30    11.584   .     S
V27     V13    10.897   1_645     S
V27     V35    10.897   1_546     S
V28     V15    11.24   1_655     S
V28     V27    5.637   1_565     S
V28     V29    11.584   1_665     S
V28     V41    10.897   1_565     S
V28     V32    10.897   1_665     S
V29     V27    11.24   1_455     S
V29     V30    5.637   1_455     S
V29     V28    11.584   1_445     S
V29     V32    8.16   .     S
V30     V1    11.24   1_655     S
V30     V29    5.637   1_655     S
V30     V2    11.584   1_655     S
V30     V43    10.897   .     S
V30     V31    8.16   .     S
V31     V44    11.24   .     S
V31     V32    5.637   1_655     S
V31     V43    11.584   .     S
V31     V22    11.584   1_655     S
V31     V2    10.897   1_655     S
V31     V24    10.897   1_655     S
V32     V31    5.637   1_455     S
V32     V44    11.584   1_455     S
V32     V41    10.897   1_455     S
V32     V28    10.897   1_445     S
V33     V6    11.24   1_556     S
V33     V34    5.637   1_556     S
V33     V5    11.584   1_556     S
V33     V36    8.16   .     S
V34     V14    11.24   1_554     S
V34     V33    5.637   1_554     S
V34     V13    11.584   1_654     S
V34     V46    10.897   .     S
V34     V35    8.16   .     S
V35     V45    11.24   1_565     S
V35     V36    5.637   1_554     S
V35     V26    11.584   1_564     S
V35     V46    11.584   .     S
V35     V13    10.897   1_654     S
V35     V27    10.897   1_564     S
V36     V26    11.24   1_565     S
V36     V35    5.637   1_556     S
V36     V45    11.584   1_566     S
V36     V5    10.897   1_556     S
V36     V48    10.897   1_566     S
V37     V48    11.24   .     S
V37     V38    5.637   .     S
V37     V47    11.584   1_545     S
V37     V40    8.16   .     S
V38     V48    11.584   .     S
V38     V44    10.897   .     S
V38     V45    10.897   .     S
V38     V39    8.16   .     S
V39     V43    11.24   .     S
V39     V40    5.637   .     S
V39     V44    11.584   .     S
V40     V43    11.584   .     S
V40     V42    10.897   .     S
V40     V47    10.897   1_545     S
V41     V46    11.24   1_545     S
V41     V42    5.637   .     S
V41     V25    11.584   1_545     S
V41     V45    11.584   .     S
V41     V28    10.897   1_545     S
V41     V32    10.897   1_655     S
V41     V44    8.16   .     S
V42     V25    11.24   1_545     S
V42     V46    11.584   1_545     S
V42     V47    10.897   1_545     S
V42     V43    8.16   .     S
V43     V44    5.637   .     S
V44     V32    11.584   1_655     S
V44     V45    10.897   .     S
V45     V35    11.24   1_545     S
V45     V46    5.637   1_545     S
V45     V36    11.584   1_544     S
V45     V48    8.16   .     S
V46     V41    11.24   1_565     S
V46     V45    5.637   1_565     S
V46     V42    11.584   1_565     S
V46     V47    8.16   .     S
V47     V48    5.637   1_565     S
V47     V37    11.584   1_565     S
V47     V40    10.897   1_565     S
V47     V42    10.897   1_565     S
V48     V47    5.637   1_545     S
V48     V7    11.584   1_545     S
V48     V5    10.897   1_545     S
V48     V36    10.897   1_544     S
