data_swp
_audit_creation_date              2020-02-04
_audit_creation_method            'Pymatgen'
_symmetry_space_group_name_H-M    'P1'
_symmetry_Int_Tables_number       1
loop_
_symmetry_equiv_pos_as_xyz
  x,y,z
_cell_length_a                    36.8186
_cell_length_b                    36.8186
_cell_length_c                    36.8186
_cell_angle_alpha                 90.0
_cell_angle_beta                 90.0
_cell_angle_gamma                 90.0
loop_
_atom_site_label
_atom_site_type_symbol
_atom_site_fract_x
_atom_site_fract_y
_atom_site_fract_z
V1     V     0.633   0.3572   0.2568
V2     V     0.4932   0.3928   0.117
V3     V     0.6428   0.2432   0.633
V4     V     0.6072   0.383   0.4932
V5     V     0.7568   0.867   0.6428
V6     V     0.617   0.0068   0.6072
V7     V     0.2568   0.367   0.1428
V8     V     0.117   0.5068   0.1072
V9     V     0.133   0.8572   0.7568
V10     V     0.9932   0.8928   0.617
V11     V     0.1428   0.7432   0.133
V12     V     0.1072   0.883   0.9932
V13     V     0.8572   0.2432   0.367
V14     V     0.8928   0.383   0.5068
V15     V     0.0068   0.3928   0.883
V16     V     0.867   0.3572   0.7432
V17     V     0.367   0.8572   0.2432
V18     V     0.5068   0.8928   0.383
V19     V     0.7432   0.867   0.3572
V20     V     0.883   0.0068   0.3928
V21     V     0.2432   0.367   0.8572
V22     V     0.383   0.5068   0.8928
V23     V     0.3572   0.7432   0.867
V24     V     0.3928   0.883   0.0068
V25     V     0.3928   0.117   0.4932
V26     V     0.3572   0.2568   0.633
V27     V     0.2432   0.633   0.6428
V28     V     0.383   0.4932   0.6072
V29     V     0.867   0.6428   0.7568
V30     V     0.0068   0.6072   0.617
V31     V     0.367   0.1428   0.2568
V32     V     0.5068   0.1072   0.117
V33     V     0.8572   0.7568   0.133
V34     V     0.8928   0.617   0.9932
V35     V     0.7432   0.133   0.1428
V36     V     0.883   0.9932   0.1072
V37     V     0.2568   0.633   0.3572
V38     V     0.117   0.4932   0.3928
V39     V     0.633   0.6428   0.2432
V40     V     0.4932   0.6072   0.383
V41     V     0.6428   0.7568   0.867
V42     V     0.6072   0.617   0.0068
V43     V     0.1428   0.2568   0.367
V44     V     0.1072   0.117   0.5068
V45     V     0.7568   0.133   0.8572
V46     V     0.617   0.9932   0.8928
V47     V     0.133   0.1428   0.7432
V48     V     0.9932   0.1072   0.883
loop_
_geom_bond_atom_site_label_1
_geom_bond_atom_site_label_2
_geom_bond_distance
_geom_bond_site_symmetry_2
_ccdc_geom_bond_type
V1     V4    8.805   .     S
V1     V39    10.526   .     S
V1     V2    7.398   .     S
V1     V32    11.525   .     S
V1     V40    11.525   .     S
V1     V35    10.111   .     S
V1     V13    10.111   .     S
V2     V7    8.805   .     S
V2     V32    10.526   .     S
V2     V31    11.525   .     S
V2     V39    11.525   .     S
V2     V42    10.111   .     S
V2     V22    10.111   1_554     S
V3     V6    8.805   .     S
V3     V26    10.526   .     S
V3     V4    7.398   .     S
V3     V14    11.525   .     S
V3     V25    11.525   .     S
V3     V16    10.111   .     S
V3     V45    10.111   .     S
V4     V14    10.526   .     S
V4     V13    11.525   .     S
V4     V26    11.525   .     S
V4     V40    10.111   .     S
V4     V28    10.111   .     S
V5     V10    8.805   .     S
V5     V19    10.526   .     S
V5     V6    7.398   1_565     S
V5     V46    11.525   .     S
V5     V20    11.525   1_565     S
V5     V41    10.111   .     S
V5     V29    10.111   .     S
V6     V46    10.526   1_545     S
V6     V5    7.398   1_545     S
V6     V45    11.525   .     S
V6     V19    11.525   1_545     S
V6     V25    10.111   .     S
V6     V18    10.111   1_545     S
V7     V21    10.526   1_554     S
V7     V8    7.398   .     S
V7     V38    11.525   .     S
V7     V22    11.525   1_554     S
V7     V43    10.111   .     S
V7     V31    10.111   .     S
V8     V11    8.805   .     S
V8     V38    10.526   .     S
V8     V37    11.525   .     S
V8     V21    11.525   1_554     S
V8     V34    10.111   1_454     S
V8     V15    10.111   1_554     S
V9     V12    8.805   .     S
V9     V47    10.526   1_565     S
V9     V10    7.398   1_455     S
V9     V30    11.525   .     S
V9     V48    11.525   1_465     S
V9     V23    10.111   .     S
V9     V27    10.111   .     S
V10     V30    10.526   1_655     S
V10     V9    7.398   1_655     S
V10     V29    11.525   .     S
V10     V47    11.525   1_665     S
V10     V44    10.111   1_665     S
V10     V20    10.111   1_565     S
V11     V33    10.526   1_455     S
V11     V12    7.398   1_554     S
V11     V24    11.525   .     S
V11     V34    11.525   1_454     S
V11     V37    10.111   .     S
V11     V17    10.111   .     S
V12     V24    10.526   1_556     S
V12     V11    7.398   1_556     S
V12     V23    11.525   .     S
V12     V33    11.525   1_456     S
V12     V36    10.111   1_456     S
V12     V48    10.111   1_465     S
V13     V20    8.805   .     S
V13     V43    10.526   1_655     S
V13     V14    7.398   .     S
V13     V44    11.525   1_655     S
V13     V35    10.111   .     S
V14     V16    8.805   .     S
V14     V43    11.525   1_655     S
V14     V30    10.111   1_655     S
V14     V38    10.111   1_655     S
V15     V21    8.805   .     S
V15     V48    10.526   1_455     S
V15     V16    7.398   1_455     S
V15     V47    11.525   .     S
V15     V29    11.525   1_455     S
V15     V34    10.111   1_455     S
V15     V8    10.111   1_556     S
V16     V29    10.526   .     S
V16     V15    7.398   1_655     S
V16     V48    11.525   .     S
V16     V30    11.525   1_655     S
V16     V45    10.111   .     S
V17     V24    8.805   .     S
V17     V31    10.526   1_565     S
V17     V18    7.398   .     S
V17     V40    11.525   .     S
V17     V32    11.525   1_565     S
V17     V37    10.111   .     S
V18     V19    8.805   .     S
V18     V40    10.526   .     S
V18     V39    11.525   .     S
V18     V31    11.525   1_565     S
V18     V25    10.111   1_565     S
V18     V6    10.111   1_565     S
V19     V20    7.398   1_565     S
V19     V36    11.525   .     S
V19     V6    11.525   1_565     S
V19     V39    10.111   .     S
V19     V33    10.111   .     S
V20     V36    10.526   1_545     S
V20     V19    7.398   1_545     S
V20     V35    11.525   .     S
V20     V5    11.525   1_545     S
V20     V44    10.111   1_655     S
V20     V10    10.111   1_545     S
V21     V7    10.526   1_556     S
V21     V22    7.398   .     S
V21     V28    11.525   .     S
V21     V8    11.525   1_556     S
V21     V26    10.111   .     S
V21     V47    10.111   .     S
V22     V23    8.805   .     S
V22     V28    10.526   .     S
V22     V27    11.525   .     S
V22     V7    11.525   1_556     S
V22     V2    10.111   1_556     S
V22     V42    10.111   1_556     S
V23     V41    10.526   .     S
V23     V24    7.398   1_556     S
V23     V42    11.525   1_556     S
V23     V27    10.111   .     S
V24     V12    10.526   1_554     S
V24     V23    7.398   1_554     S
V24     V41    11.525   1_554     S
V24     V46    10.111   1_554     S
V24     V32    10.111   1_565     S
V25     V31    8.805   .     S
V25     V44    10.526   .     S
V25     V26    7.398   .     S
V25     V43    11.525   .     S
V25     V18    10.111   1_545     S
V26     V28    8.805   .     S
V26     V44    11.525   .     S
V26     V47    10.111   .     S
V27     V30    8.805   .     S
V27     V37    10.526   .     S
V27     V28    7.398   .     S
V27     V38    11.525   .     S
V28     V37    11.525   .     S
V28     V40    10.111   .     S
V29     V34    8.805   .     S
V29     V30    7.398   1_655     S
V29     V15    11.525   1_655     S
V29     V41    10.111   .     S
V30     V10    10.526   1_455     S
V30     V29    7.398   1_455     S
V30     V16    11.525   1_455     S
V30     V38    10.111   .     S
V30     V14    10.111   1_455     S
V31     V17    10.526   1_545     S
V31     V32    7.398   .     S
V31     V18    11.525   1_545     S
V31     V43    10.111   .     S
V32     V35    8.805   .     S
V32     V17    11.525   1_545     S
V32     V46    10.111   1_544     S
V32     V24    10.111   1_545     S
V33     V36    8.805   .     S
V33     V11    10.526   1_655     S
V33     V34    7.398   1_554     S
V33     V42    11.525   .     S
V33     V12    11.525   1_654     S
V33     V39    10.111   .     S
V34     V42    10.526   1_556     S
V34     V33    7.398   1_556     S
V34     V41    11.525   .     S
V34     V11    11.525   1_656     S
V34     V15    10.111   1_655     S
V34     V8    10.111   1_656     S
V35     V45    10.526   1_554     S
V35     V36    7.398   1_545     S
V35     V46    11.525   1_544     S
V36     V20    10.526   1_565     S
V36     V35    7.398   1_565     S
V36     V45    11.525   1_564     S
V36     V12    10.111   1_654     S
V36     V48    10.111   1_564     S
V37     V40    8.805   .     S
V37     V38    7.398   .     S
V38     V43    8.805   .     S
V38     V14    10.111   1_455     S
V39     V42    8.805   .     S
V39     V40    7.398   .     S
V41     V46    8.805   .     S
V41     V42    7.398   1_556     S
V41     V24    11.525   1_556     S
V42     V34    10.526   1_554     S
V42     V41    7.398   1_554     S
V42     V23    11.525   1_554     S
V42     V22    10.111   1_554     S
V43     V13    10.526   1_455     S
V43     V44    7.398   .     S
V43     V14    11.525   1_455     S
V44     V47    8.805   .     S
V44     V13    11.525   1_455     S
V44     V10    10.111   1_445     S
V44     V20    10.111   1_455     S
V45     V48    8.805   .     S
V45     V35    10.526   1_556     S
V45     V46    7.398   1_545     S
V45     V36    11.525   1_546     S
V46     V6    10.526   1_565     S
V46     V45    7.398   1_565     S
V46     V35    11.525   1_566     S
V46     V24    10.111   1_556     S
V46     V32    10.111   1_566     S
V47     V9    10.526   1_545     S
V47     V48    7.398   1_455     S
V47     V10    11.525   1_445     S
V48     V15    10.526   1_655     S
V48     V47    7.398   1_655     S
V48     V9    11.525   1_645     S
V48     V12    10.111   1_645     S
V48     V36    10.111   1_546     S
