data_sxe
_audit_creation_date              2020-02-04
_audit_creation_method            'Pymatgen'
_symmetry_space_group_name_H-M    'P1'
_symmetry_Int_Tables_number       1
loop_
_symmetry_equiv_pos_as_xyz
  x,y,z
_cell_length_a                    30.5997
_cell_length_b                    30.5997
_cell_length_c                    30.5997
_cell_angle_alpha                 90.0
_cell_angle_beta                 90.0
_cell_angle_gamma                 90.0
loop_
_atom_site_label
_atom_site_type_symbol
_atom_site_fract_x
_atom_site_fract_y
_atom_site_fract_z
V1     V     0.7675   0.8287   0.5732
V2     V     0.8287   0.9268   0.2675
V3     V     0.0732   0.7675   0.6713
V4     V     0.2325   0.1713   0.4268
V5     V     0.1713   0.0732   0.7325
V6     V     0.9268   0.2325   0.3287
V7     V     0.7325   0.3287   0.5732
V8     V     0.6713   0.4268   0.2675
V9     V     0.3287   0.5732   0.7325
V10     V     0.4268   0.2675   0.6713
V11     V     0.5732   0.7325   0.3287
V12     V     0.2675   0.6713   0.4268
V13     V     0.8287   0.5732   0.7675
V14     V     0.9268   0.2675   0.8287
V15     V     0.7675   0.6713   0.0732
V16     V     0.1713   0.4268   0.2325
V17     V     0.0732   0.7325   0.1713
V18     V     0.2325   0.3287   0.9268
V19     V     0.5732   0.7675   0.8287
V20     V     0.2675   0.8287   0.9268
V21     V     0.6713   0.0732   0.7675
V22     V     0.4268   0.2325   0.1713
V23     V     0.7325   0.1713   0.0732
V24     V     0.3287   0.9268   0.2325
loop_
_geom_bond_atom_site_label_1
_geom_bond_atom_site_label_2
_geom_bond_distance
_geom_bond_site_symmetry_2
_ccdc_geom_bond_type
V1     V11    10.0   .     S
V1     V13    10.0   .     S
V1     V21    10.0   1_565     S
V1     V19    10.0   .     S
V1     V2    10.0   .     S
V1     V3    10.0   1_655     S
V2     V11    10.0   .     S
V2     V23    10.0   1_565     S
V2     V17    10.0   1_655     S
V2     V15    10.0   .     S
V2     V6    10.0   1_565     S
V3     V20    10.0   .     S
V3     V13    10.0   1_455     S
V3     V1    10.0   1_455     S
V3     V5    10.0   1_565     S
V3     V12    10.0   .     S
V3     V9    10.0   .     S
V4     V16    10.0   .     S
V4     V5    10.0   .     S
V4     V6    10.0   1_455     S
V4     V10    10.0   .     S
V4     V24    10.0   1_545     S
V4     V22    10.0   .     S
V5     V20    10.0   1_545     S
V5     V14    10.0   1_455     S
V5     V18    10.0   .     S
V5     V3    10.0   1_545     S
V5     V10    10.0   .     S
V6     V23    10.0   .     S
V6     V16    10.0   1_655     S
V6     V2    10.0   1_545     S
V6     V4    10.0   1_655     S
V6     V7    10.0   .     S
V6     V8    10.0   .     S
V7     V13    10.0   .     S
V7     V14    10.0   .     S
V7     V21    10.0   .     S
V7     V10    10.0   .     S
V7     V8    10.0   .     S
V8     V15    10.0   .     S
V8     V22    10.0   .     S
V8     V23    10.0   .     S
V8     V11    10.0   .     S
V9     V19    10.0   .     S
V9     V20    10.0   .     S
V9     V18    10.0   .     S
V9     V12    10.0   .     S
V9     V10    10.0   .     S
V10     V18    10.0   .     S
V10     V21    10.0   .     S
V11     V24    10.0   .     S
V11     V15    10.0   .     S
V11     V12    10.0   .     S
V12     V24    10.0   .     S
V12     V16    10.0   .     S
V12     V17    10.0   .     S
V13     V3    10.0   1_655     S
V13     V19    10.0   .     S
V13     V14    10.0   .     S
V13     V15    10.0   1_556     S
V14     V23    10.0   1_556     S
V14     V21    10.0   .     S
V14     V5    10.0   1_655     S
V14     V18    10.0   1_655     S
V15     V19    10.0   1_554     S
V15     V13    10.0   1_554     S
V15     V17    10.0   1_655     S
V16     V6    10.0   1_455     S
V16     V22    10.0   .     S
V16     V17    10.0   .     S
V16     V18    10.0   1_554     S
V17     V20    10.0   1_554     S
V17     V24    10.0   .     S
V17     V2    10.0   1_455     S
V17     V15    10.0   1_455     S
V18     V22    10.0   1_556     S
V18     V14    10.0   1_455     S
V18     V16    10.0   1_556     S
V19     V15    10.0   1_556     S
V19     V20    10.0   .     S
V19     V21    10.0   1_565     S
V20     V5    10.0   1_565     S
V20     V17    10.0   1_556     S
V20     V24    10.0   1_556     S
V21     V1    10.0   1_545     S
V21     V19    10.0   1_545     S
V21     V23    10.0   1_556     S
V22     V18    10.0   1_554     S
V22     V23    10.0   .     S
V22     V24    10.0   1_545     S
V23     V14    10.0   1_554     S
V23     V2    10.0   1_545     S
V23     V21    10.0   1_554     S
V24     V4    10.0   1_565     S
V24     V20    10.0   1_554     S
V24     V22    10.0   1_565     S
