data_sxi
_audit_creation_date              2020-02-04
_audit_creation_method            'Pymatgen'
_symmetry_space_group_name_H-M    'P1'
_symmetry_Int_Tables_number       1
loop_
_symmetry_equiv_pos_as_xyz
  x,y,z
_cell_length_a                    30.598
_cell_length_b                    30.598
_cell_length_c                    30.598
_cell_angle_alpha                 90.0
_cell_angle_beta                 90.0
_cell_angle_gamma                 90.0
loop_
_atom_site_label
_atom_site_type_symbol
_atom_site_fract_x
_atom_site_fract_y
_atom_site_fract_z
V1     V     0.1605   0.6061   0.538
V2     V     0.1439   0.5895   0.212
V3     V     0.212   0.1439   0.5895
V4     V     0.538   0.1605   0.6061
V5     V     0.6061   0.538   0.1605
V6     V     0.5895   0.212   0.1439
V7     V     0.6605   0.8939   0.462
V8     V     0.6439   0.9105   0.788
V9     V     0.288   0.8561   0.0895
V10     V     0.962   0.8395   0.1061
V11     V     0.3939   0.038   0.3395
V12     V     0.4105   0.712   0.3561
V13     V     0.462   0.6605   0.8939
V14     V     0.788   0.6439   0.9105
V15     V     0.3395   0.3939   0.038
V16     V     0.3561   0.4105   0.712
V17     V     0.0895   0.288   0.8561
V18     V     0.1061   0.962   0.8395
V19     V     0.9105   0.788   0.6439
V20     V     0.8939   0.462   0.6605
V21     V     0.038   0.3395   0.3939
V22     V     0.712   0.3561   0.4105
V23     V     0.8561   0.0895   0.288
V24     V     0.8395   0.1061   0.962
loop_
_geom_bond_atom_site_label_1
_geom_bond_atom_site_label_2
_geom_bond_distance
_geom_bond_site_symmetry_2
_ccdc_geom_bond_type
V1     V21    10.0   .     S
V1     V2    10.0   .     S
V1     V20    10.0   1_455     S
V1     V16    10.0   .     S
V1     V19    10.0   1_455     S
V1     V12    10.0   .     S
V2     V12    10.0   .     S
V2     V9    10.0   .     S
V2     V15    10.0   .     S
V2     V10    10.0   1_455     S
V2     V21    10.0   .     S
V3     V16    10.0   .     S
V3     V4    10.0   .     S
V3     V17    10.0   .     S
V3     V21    10.0   .     S
V3     V18    10.0   1_545     S
V3     V11    10.0   .     S
V4     V11    10.0   .     S
V4     V7    10.0   1_545     S
V4     V22    10.0   .     S
V4     V8    10.0   1_545     S
V4     V16    10.0   .     S
V5     V15    10.0   .     S
V5     V6    10.0   .     S
V5     V13    10.0   1_554     S
V5     V12    10.0   .     S
V5     V14    10.0   1_554     S
V5     V22    10.0   .     S
V6     V22    10.0   .     S
V6     V23    10.0   .     S
V6     V11    10.0   .     S
V6     V24    10.0   1_554     S
V6     V15    10.0   .     S
V7     V4    10.0   1_565     S
V7     V8    10.0   .     S
V7     V11    10.0   1_565     S
V7     V23    10.0   1_565     S
V7     V12    10.0   .     S
V7     V19    10.0   .     S
V8     V19    10.0   .     S
V8     V14    10.0   .     S
V8     V24    10.0   1_565     S
V8     V4    10.0   1_565     S
V8     V13    10.0   .     S
V9     V10    10.0   1_455     S
V9     V12    10.0   .     S
V9     V13    10.0   1_554     S
V9     V11    10.0   1_565     S
V9     V18    10.0   1_554     S
V10     V18    10.0   1_654     S
V10     V9    10.0   1_655     S
V10     V24    10.0   1_564     S
V10     V14    10.0   1_554     S
V10     V2    10.0   1_655     S
V10     V23    10.0   1_565     S
V11     V7    10.0   1_545     S
V11     V12    10.0   1_545     S
V11     V9    10.0   1_545     S
V12     V11    10.0   1_565     S
V13     V5    10.0   1_556     S
V13     V14    10.0   .     S
V13     V15    10.0   1_556     S
V13     V9    10.0   1_556     S
V13     V16    10.0   .     S
V14     V19    10.0   .     S
V14     V10    10.0   1_556     S
V14     V20    10.0   .     S
V14     V5    10.0   1_556     S
V15     V13    10.0   1_554     S
V15     V16    10.0   1_554     S
V15     V17    10.0   1_554     S
V16     V17    10.0   .     S
V16     V15    10.0   1_556     S
V17     V18    10.0   1_545     S
V17     V20    10.0   1_455     S
V17     V15    10.0   1_556     S
V17     V24    10.0   1_455     S
V18     V10    10.0   1_456     S
V18     V24    10.0   1_465     S
V18     V17    10.0   1_565     S
V18     V19    10.0   1_455     S
V18     V3    10.0   1_565     S
V18     V9    10.0   1_556     S
V19     V20    10.0   .     S
V19     V18    10.0   1_655     S
V19     V1    10.0   1_655     S
V20     V1    10.0   1_655     S
V20     V21    10.0   1_655     S
V20     V17    10.0   1_655     S
V20     V22    10.0   .     S
V21     V20    10.0   1_455     S
V21     V22    10.0   1_455     S
V21     V23    10.0   1_455     S
V22     V23    10.0   .     S
V22     V21    10.0   1_655     S
V23     V24    10.0   1_554     S
V23     V7    10.0   1_545     S
V23     V21    10.0   1_655     S
V23     V10    10.0   1_545     S
V24     V18    10.0   1_645     S
V24     V10    10.0   1_546     S
V24     V23    10.0   1_556     S
V24     V8    10.0   1_545     S
V24     V6    10.0   1_556     S
V24     V17    10.0   1_655     S
