data_sxj
_audit_creation_date              2020-02-04
_audit_creation_method            'Pymatgen'
_symmetry_space_group_name_H-M    'P1'
_symmetry_Int_Tables_number       1
loop_
_symmetry_equiv_pos_as_xyz
  x,y,z
_cell_length_a                    38.7022
_cell_length_b                    38.7022
_cell_length_c                    38.7022
_cell_angle_alpha                 90.0
_cell_angle_beta                 90.0
_cell_angle_gamma                 90.0
loop_
_atom_site_label
_atom_site_type_symbol
_atom_site_fract_x
_atom_site_fract_y
_atom_site_fract_z
V1     V     0.1128   0.4399   0.0783
V2     V     0.1717   0.3101   0.8628
V3     V     0.3283   0.3101   0.1372
V4     V     0.3872   0.4399   0.9217
V5     V     0.4399   0.0783   0.1128
V6     V     0.3101   0.8628   0.1717
V7     V     0.3101   0.1372   0.3283
V8     V     0.4399   0.9217   0.3872
V9     V     0.0783   0.1128   0.4399
V10     V     0.8628   0.1717   0.3101
V11     V     0.1372   0.3283   0.3101
V12     V     0.9217   0.3872   0.4399
V13     V     0.6372   0.8283   0.8101
V14     V     0.5783   0.6128   0.9399
V15     V     0.3628   0.6717   0.8101
V16     V     0.4217   0.8872   0.9399
V17     V     0.8283   0.8101   0.6372
V18     V     0.6128   0.9399   0.5783
V19     V     0.8872   0.9399   0.4217
V20     V     0.6717   0.8101   0.3628
V21     V     0.6717   0.1899   0.1372
V22     V     0.6128   0.0601   0.9217
V23     V     0.8872   0.0601   0.0783
V24     V     0.8283   0.1899   0.8628
V25     V     0.1899   0.1372   0.6717
V26     V     0.0601   0.9217   0.6128
V27     V     0.0601   0.0783   0.8872
V28     V     0.1899   0.8628   0.8283
V29     V     0.1372   0.6717   0.1899
V30     V     0.9217   0.6128   0.0601
V31     V     0.0783   0.8872   0.0601
V32     V     0.8628   0.8283   0.1899
V33     V     0.9399   0.5783   0.6128
V34     V     0.8101   0.6372   0.8283
V35     V     0.8101   0.3628   0.6717
V36     V     0.9399   0.4217   0.8872
V37     V     0.3628   0.3283   0.6899
V38     V     0.5783   0.3872   0.5601
V39     V     0.4217   0.1128   0.5601
V40     V     0.6372   0.1717   0.6899
V41     V     0.3283   0.6899   0.3628
V42     V     0.3872   0.5601   0.5783
V43     V     0.1128   0.5601   0.4217
V44     V     0.1717   0.6899   0.6372
V45     V     0.6899   0.3628   0.3283
V46     V     0.5601   0.5783   0.3872
V47     V     0.5601   0.4217   0.1128
V48     V     0.6899   0.6372   0.1717
loop_
_geom_bond_atom_site_label_1
_geom_bond_atom_site_label_2
_geom_bond_distance
_geom_bond_site_symmetry_2
_ccdc_geom_bond_type
V1     V11    10.0   .     S
V1     V3    10.0   .     S
V1     V2    10.0   1_554     S
V1     V29    10.0   .     S
V1     V36    10.0   1_454     S
V1     V30    10.0   1_455     S
V2     V25    10.0   .     S
V2     V37    10.0   .     S
V2     V36    10.0   1_455     S
V2     V1    10.0   1_556     S
V2     V4    10.0   .     S
V2     V27    10.0   .     S
V3     V7    10.0   .     S
V3     V11    10.0   .     S
V3     V47    10.0   .     S
V3     V4    10.0   1_554     S
V3     V5    10.0   .     S
V4     V3    10.0   1_556     S
V4     V37    10.0   .     S
V4     V47    10.0   1_556     S
V4     V14    10.0   .     S
V4     V15    10.0   .     S
V5     V7    10.0   .     S
V5     V6    10.0   1_545     S
V5     V22    10.0   1_554     S
V5     V16    10.0   1_544     S
V5     V21    10.0   .     S
V6     V41    10.0   .     S
V6     V29    10.0   .     S
V6     V16    10.0   1_554     S
V6     V5    10.0   1_565     S
V6     V8    10.0   .     S
V6     V31    10.0   .     S
V7     V11    10.0   .     S
V7     V39    10.0   .     S
V7     V8    10.0   1_545     S
V7     V9    10.0   .     S
V8     V7    10.0   1_565     S
V8     V41    10.0   .     S
V8     V18    10.0   .     S
V8     V39    10.0   1_565     S
V8     V20    10.0   .     S
V9     V11    10.0   .     S
V9     V10    10.0   1_455     S
V9     V26    10.0   1_545     S
V9     V19    10.0   1_445     S
V9     V25    10.0   .     S
V10     V45    10.0   .     S
V10     V21    10.0   .     S
V10     V19    10.0   1_545     S
V10     V9    10.0   1_655     S
V10     V12    10.0   .     S
V10     V23    10.0   .     S
V11     V43    10.0   .     S
V11     V12    10.0   1_455     S
V12     V11    10.0   1_655     S
V12     V45    10.0   .     S
V12     V33    10.0   .     S
V12     V43    10.0   1_655     S
V12     V35    10.0   .     S
V13     V17    10.0   .     S
V13     V34    10.0   .     S
V13     V22    10.0   1_565     S
V13     V16    10.0   .     S
V13     V14    10.0   .     S
V13     V18    10.0   .     S
V14     V47    10.0   1_556     S
V14     V34    10.0   .     S
V14     V15    10.0   .     S
V14     V48    10.0   1_556     S
V15     V44    10.0   .     S
V15     V28    10.0   .     S
V15     V16    10.0   .     S
V15     V42    10.0   .     S
V16     V6    10.0   1_556     S
V16     V28    10.0   .     S
V16     V22    10.0   1_565     S
V16     V5    10.0   1_566     S
V17     V34    10.0   .     S
V17     V26    10.0   1_655     S
V17     V19    10.0   .     S
V17     V18    10.0   .     S
V17     V33    10.0   .     S
V18     V39    10.0   1_565     S
V18     V20    10.0   .     S
V18     V40    10.0   1_565     S
V19     V10    10.0   1_565     S
V19     V32    10.0   .     S
V19     V20    10.0   .     S
V19     V26    10.0   1_655     S
V19     V9    10.0   1_665     S
V20     V32    10.0   .     S
V20     V48    10.0   .     S
V20     V46    10.0   .     S
V21     V45    10.0   .     S
V21     V22    10.0   1_554     S
V21     V23    10.0   .     S
V21     V47    10.0   .     S
V22     V13    10.0   1_545     S
V22     V5    10.0   1_556     S
V22     V16    10.0   1_545     S
V22     V21    10.0   1_556     S
V22     V40    10.0   .     S
V22     V24    10.0   .     S
V23     V24    10.0   1_554     S
V23     V27    10.0   1_654     S
V23     V31    10.0   1_645     S
V23     V32    10.0   1_545     S
V24     V35    10.0   .     S
V24     V40    10.0   .     S
V24     V27    10.0   1_655     S
V24     V23    10.0   1_556     S
V24     V36    10.0   .     S
V25     V37    10.0   .     S
V25     V26    10.0   1_545     S
V25     V27    10.0   .     S
V25     V39    10.0   .     S
V26     V17    10.0   1_455     S
V26     V9    10.0   1_565     S
V26     V19    10.0   1_455     S
V26     V25    10.0   1_565     S
V26     V44    10.0   .     S
V26     V28    10.0   .     S
V27     V24    10.0   1_455     S
V27     V28    10.0   1_545     S
V27     V31    10.0   1_546     S
V27     V23    10.0   1_456     S
V28     V44    10.0   .     S
V28     V31    10.0   1_556     S
V28     V27    10.0   1_565     S
V29     V41    10.0   .     S
V29     V30    10.0   1_455     S
V29     V31    10.0   .     S
V29     V43    10.0   .     S
V30     V29    10.0   1_655     S
V30     V48    10.0   .     S
V30     V32    10.0   .     S
V30     V36    10.0   1_554     S
V30     V1    10.0   1_655     S
V30     V34    10.0   1_554     S
V31     V28    10.0   1_554     S
V31     V27    10.0   1_564     S
V31     V23    10.0   1_465     S
V31     V32    10.0   1_455     S
V32     V48    10.0   .     S
V32     V23    10.0   1_565     S
V32     V31    10.0   1_655     S
V33     V43    10.0   1_655     S
V33     V34    10.0   .     S
V33     V35    10.0   .     S
V33     V44    10.0   1_655     S
V34     V30    10.0   1_556     S
V34     V36    10.0   .     S
V35     V40    10.0   .     S
V35     V36    10.0   .     S
V35     V38    10.0   .     S
V36     V2    10.0   1_655     S
V36     V30    10.0   1_556     S
V36     V1    10.0   1_656     S
V37     V42    10.0   .     S
V37     V38    10.0   .     S
V37     V39    10.0   .     S
V38     V40    10.0   .     S
V38     V42    10.0   .     S
V38     V46    10.0   .     S
V38     V45    10.0   .     S
V39     V8    10.0   1_545     S
V39     V18    10.0   1_545     S
V39     V40    10.0   .     S
V40     V18    10.0   1_545     S
V41     V46    10.0   .     S
V41     V42    10.0   .     S
V41     V43    10.0   .     S
V42     V44    10.0   .     S
V42     V46    10.0   .     S
V43     V12    10.0   1_455     S
V43     V33    10.0   1_455     S
V43     V44    10.0   .     S
V44     V33    10.0   1_455     S
V45     V46    10.0   .     S
V45     V47    10.0   .     S
V46     V48    10.0   .     S
V47     V4    10.0   1_554     S
V47     V14    10.0   1_554     S
V47     V48    10.0   .     S
V48     V14    10.0   1_554     S
