data_sxk
_audit_creation_date              2020-02-04
_audit_creation_method            'Pymatgen'
_symmetry_space_group_name_H-M    'P1'
_symmetry_Int_Tables_number       1
loop_
_symmetry_equiv_pos_as_xyz
  x,y,z
_cell_length_a                    37.0779
_cell_length_b                    37.0779
_cell_length_c                    37.0779
_cell_angle_alpha                 90.0
_cell_angle_beta                 90.0
_cell_angle_gamma                 90.0
loop_
_atom_site_label
_atom_site_type_symbol
_atom_site_fract_x
_atom_site_fract_y
_atom_site_fract_z
V1     V     0.9704   0.6185   0.8145
V2     V     0.9704   0.3816   0.6855
V3     V     0.7796   0.5645   0.6315
V4     V     0.7796   0.4355   0.8684
V5     V     0.3816   0.6855   0.9704
V6     V     0.6185   0.8145   0.9704
V7     V     0.5645   0.6315   0.7796
V8     V     0.4355   0.8684   0.7796
V9     V     0.6855   0.9704   0.3816
V10     V     0.8145   0.9704   0.6185
V11     V     0.8684   0.7796   0.4355
V12     V     0.6315   0.7796   0.5645
V13     V     0.2204   0.0645   0.8684
V14     V     0.0296   0.1184   0.6855
V15     V     0.2204   0.9355   0.6315
V16     V     0.0296   0.8816   0.8145
V17     V     0.6185   0.1855   0.5296
V18     V     0.5645   0.3684   0.7204
V19     V     0.4355   0.1316   0.7204
V20     V     0.3816   0.3145   0.5296
V21     V     0.1316   0.2796   0.0645
V22     V     0.3145   0.4704   0.1184
V23     V     0.1855   0.4704   0.8816
V24     V     0.3684   0.2796   0.9355
V25     V     0.2796   0.0645   0.1316
V26     V     0.4704   0.1184   0.3145
V27     V     0.2796   0.9355   0.3684
V28     V     0.4704   0.8816   0.1855
V29     V     0.0645   0.1316   0.2796
V30     V     0.1184   0.3145   0.4704
V31     V     0.9355   0.3684   0.2796
V32     V     0.8816   0.1855   0.4704
V33     V     0.0645   0.8684   0.2204
V34     V     0.1184   0.6855   0.0296
V35     V     0.9355   0.6315   0.2204
V36     V     0.8816   0.8145   0.0296
V37     V     0.3145   0.5296   0.3816
V38     V     0.1855   0.5296   0.6185
V39     V     0.1316   0.7204   0.4355
V40     V     0.3684   0.7204   0.5645
V41     V     0.8684   0.2204   0.0645
V42     V     0.6855   0.0296   0.1184
V43     V     0.8145   0.0296   0.8816
V44     V     0.6315   0.2204   0.9355
V45     V     0.7204   0.5645   0.3684
V46     V     0.5296   0.6185   0.1855
V47     V     0.7204   0.4355   0.1316
V48     V     0.5296   0.3816   0.3145
loop_
_geom_bond_atom_site_label_1
_geom_bond_atom_site_label_2
_geom_bond_distance
_geom_bond_site_symmetry_2
_ccdc_geom_bond_type
V1     V4    10.0   .     S
V1     V3    10.0   .     S
V1     V2    10.0   .     S
V1     V23    10.0   1_655     S
V1     V34    10.0   1_656     S
V1     V16    10.0   1_655     S
V2     V4    10.0   .     S
V2     V3    10.0   .     S
V2     V38    10.0   1_655     S
V2     V30    10.0   1_655     S
V2     V14    10.0   1_655     S
V3     V4    10.0   .     S
V3     V7    10.0   .     S
V3     V12    10.0   .     S
V3     V45    10.0   .     S
V4     V18    10.0   .     S
V4     V44    10.0   .     S
V4     V47    10.0   1_556     S
V5     V8    10.0   .     S
V5     V7    10.0   .     S
V5     V6    10.0   .     S
V5     V46    10.0   1_556     S
V5     V22    10.0   1_556     S
V5     V34    10.0   1_556     S
V6     V8    10.0   .     S
V6     V7    10.0   .     S
V6     V28    10.0   1_556     S
V6     V42    10.0   1_566     S
V6     V36    10.0   1_556     S
V7     V8    10.0   .     S
V7     V12    10.0   .     S
V7     V18    10.0   .     S
V8     V40    10.0   .     S
V8     V15    10.0   .     S
V8     V19    10.0   1_565     S
V9     V11    10.0   .     S
V9     V12    10.0   .     S
V9     V10    10.0   .     S
V9     V17    10.0   1_565     S
V9     V26    10.0   1_565     S
V9     V42    10.0   1_565     S
V10     V11    10.0   .     S
V10     V12    10.0   .     S
V10     V14    10.0   1_665     S
V10     V32    10.0   1_565     S
V10     V43    10.0   1_565     S
V11     V35    10.0   .     S
V11     V45    10.0   .     S
V11     V12    10.0   .     S
V11     V39    10.0   1_655     S
V12     V40    10.0   .     S
V13     V14    10.0   .     S
V13     V16    10.0   1_545     S
V13     V15    10.0   1_545     S
V13     V24    10.0   .     S
V13     V19    10.0   .     S
V13     V25    10.0   1_556     S
V14     V15    10.0   1_545     S
V14     V16    10.0   1_545     S
V14     V10    10.0   1_445     S
V14     V32    10.0   1_455     S
V14     V2    10.0   1_455     S
V15     V40    10.0   .     S
V15     V14    10.0   1_565     S
V15     V16    10.0   .     S
V15     V13    10.0   1_565     S
V15     V27    10.0   .     S
V16     V36    10.0   1_456     S
V16     V43    10.0   1_465     S
V16     V13    10.0   1_565     S
V16     V14    10.0   1_565     S
V16     V1    10.0   1_455     S
V17     V26    10.0   .     S
V17     V9    10.0   1_545     S
V17     V19    10.0   .     S
V17     V18    10.0   .     S
V17     V20    10.0   .     S
V17     V32    10.0   .     S
V18     V44    10.0   .     S
V18     V20    10.0   .     S
V18     V19    10.0   .     S
V19     V24    10.0   .     S
V19     V20    10.0   .     S
V19     V8    10.0   1_545     S
V20     V37    10.0   .     S
V20     V48    10.0   .     S
V20     V30    10.0   .     S
V21     V23    10.0   1_554     S
V21     V22    10.0   .     S
V21     V24    10.0   1_554     S
V21     V29    10.0   .     S
V21     V25    10.0   .     S
V21     V41    10.0   1_455     S
V22     V24    10.0   1_554     S
V22     V23    10.0   1_554     S
V22     V5    10.0   1_554     S
V22     V46    10.0   .     S
V22     V37    10.0   .     S
V23     V34    10.0   1_556     S
V23     V1    10.0   1_455     S
V23     V21    10.0   1_556     S
V23     V24    10.0   .     S
V23     V22    10.0   1_556     S
V23     V38    10.0   .     S
V24     V22    10.0   1_556     S
V24     V21    10.0   1_556     S
V24     V44    10.0   .     S
V25     V26    10.0   .     S
V25     V28    10.0   1_545     S
V25     V27    10.0   1_545     S
V25     V29    10.0   .     S
V25     V13    10.0   1_554     S
V26     V9    10.0   1_545     S
V26     V27    10.0   1_545     S
V26     V28    10.0   1_545     S
V26     V48    10.0   .     S
V27     V26    10.0   1_565     S
V27     V28    10.0   .     S
V27     V25    10.0   1_565     S
V27     V33    10.0   .     S
V27     V39    10.0   .     S
V28     V6    10.0   1_554     S
V28     V42    10.0   1_565     S
V28     V25    10.0   1_565     S
V28     V26    10.0   1_565     S
V28     V46    10.0   .     S
V29     V30    10.0   .     S
V29     V32    10.0   1_455     S
V29     V31    10.0   1_455     S
V29     V33    10.0   1_545     S
V30     V31    10.0   1_455     S
V30     V32    10.0   1_455     S
V30     V38    10.0   .     S
V30     V2    10.0   1_455     S
V31     V30    10.0   1_655     S
V31     V32    10.0   .     S
V31     V29    10.0   1_655     S
V31     V41    10.0   .     S
V31     V47    10.0   .     S
V31     V35    10.0   .     S
V32     V10    10.0   1_545     S
V32     V14    10.0   1_655     S
V32     V29    10.0   1_655     S
V32     V30    10.0   1_655     S
V33     V34    10.0   .     S
V33     V36    10.0   1_455     S
V33     V35    10.0   1_455     S
V33     V39    10.0   .     S
V33     V29    10.0   1_565     S
V34     V23    10.0   1_554     S
V34     V1    10.0   1_454     S
V34     V35    10.0   1_455     S
V34     V36    10.0   1_455     S
V34     V5    10.0   1_554     S
V35     V45    10.0   .     S
V35     V34    10.0   1_655     S
V35     V36    10.0   .     S
V35     V33    10.0   1_655     S
V36     V16    10.0   1_654     S
V36     V43    10.0   1_564     S
V36     V33    10.0   1_655     S
V36     V34    10.0   1_655     S
V36     V6    10.0   1_554     S
V37     V39    10.0   .     S
V37     V40    10.0   .     S
V37     V38    10.0   .     S
V37     V48    10.0   .     S
V38     V2    10.0   1_455     S
V38     V39    10.0   .     S
V38     V40    10.0   .     S
V39     V40    10.0   .     S
V39     V11    10.0   1_455     S
V41     V43    10.0   1_554     S
V41     V42    10.0   .     S
V41     V44    10.0   1_554     S
V41     V47    10.0   .     S
V41     V21    10.0   1_655     S
V42     V28    10.0   1_545     S
V42     V6    10.0   1_544     S
V42     V44    10.0   1_554     S
V42     V43    10.0   1_554     S
V42     V9    10.0   1_545     S
V43     V36    10.0   1_546     S
V43     V16    10.0   1_645     S
V43     V41    10.0   1_556     S
V43     V44    10.0   .     S
V43     V42    10.0   1_556     S
V43     V10    10.0   1_545     S
V44     V42    10.0   1_556     S
V44     V41    10.0   1_556     S
V45     V48    10.0   .     S
V45     V46    10.0   .     S
V45     V47    10.0   .     S
V46     V5    10.0   1_554     S
V46     V47    10.0   .     S
V46     V48    10.0   .     S
V47     V48    10.0   .     S
V47     V4    10.0   1_554     S
