data_sxn
_audit_creation_date              2020-02-04
_audit_creation_method            'Pymatgen'
_symmetry_space_group_name_H-M    'P1'
_symmetry_Int_Tables_number       1
loop_
_symmetry_equiv_pos_as_xyz
  x,y,z
_cell_length_a                    53.0162
_cell_length_b                    53.0162
_cell_length_c                    53.0162
_cell_angle_alpha                 90.0
_cell_angle_beta                 90.0
_cell_angle_gamma                 90.0
loop_
_atom_site_label
_atom_site_type_symbol
_atom_site_fract_x
_atom_site_fract_y
_atom_site_fract_z
V1     V     0.3383   0.0583   0.4669
V2     V     0.3083   0.0883   0.2831
V3     V     0.4117   0.2169   0.1917
V4     V     0.4417   0.0331   0.1617
V5     V     0.1917   0.4117   0.2169
V6     V     0.1617   0.4417   0.0331
V7     V     0.4669   0.1617   0.5583
V8     V     0.2831   0.1917   0.5883
V9     V     0.7831   0.1917   0.9117
V10     V     0.9669   0.1617   0.9417
V11     V     0.8083   0.0883   0.2169
V12     V     0.8383   0.0583   0.0331
V13     V     0.5883   0.2169   0.6917
V14     V     0.5583   0.0331   0.6617
V15     V     0.6917   0.9117   0.7169
V16     V     0.6617   0.9417   0.5331
V17     V     0.4117   0.7831   0.3083
V18     V     0.4417   0.9669   0.3383
V19     V     0.7169   0.8083   0.4117
V20     V     0.5331   0.8383   0.4417
V21     V     0.7169   0.1917   0.0883
V22     V     0.5331   0.1617   0.0583
V23     V     0.6917   0.0883   0.7831
V24     V     0.6617   0.0583   0.9669
V25     V     0.5883   0.7831   0.8083
V26     V     0.5583   0.9669   0.8383
V27     V     0.4669   0.8383   0.9417
V28     V     0.2831   0.8083   0.9117
V29     V     0.3083   0.9117   0.2169
V30     V     0.3383   0.9417   0.0331
V31     V     0.2831   0.3083   0.0883
V32     V     0.4669   0.3383   0.0583
V33     V     0.5583   0.4669   0.1617
V34     V     0.5883   0.2831   0.1917
V35     V     0.2169   0.3083   0.9117
V36     V     0.0331   0.3383   0.9417
V37     V     0.0331   0.8383   0.0583
V38     V     0.2169   0.8083   0.0883
V39     V     0.9117   0.7831   0.1917
V40     V     0.9417   0.9669   0.1617
V41     V     0.9417   0.4669   0.8383
V42     V     0.9117   0.2831   0.8083
V43     V     0.7831   0.6917   0.0883
V44     V     0.9669   0.6617   0.0583
V45     V     0.8083   0.5883   0.7831
V46     V     0.8383   0.5583   0.9669
V47     V     0.0883   0.7169   0.1917
V48     V     0.0583   0.5331   0.1617
V49     V     0.6917   0.5883   0.2169
V50     V     0.6617   0.5583   0.0331
V51     V     0.7169   0.6917   0.9117
V52     V     0.5331   0.6617   0.9417
V53     V     0.3083   0.4117   0.7831
V54     V     0.3383   0.4417   0.9669
V55     V     0.4117   0.7169   0.8083
V56     V     0.4417   0.5331   0.8383
V57     V     0.3083   0.5883   0.7169
V58     V     0.3383   0.5583   0.5331
V59     V     0.4117   0.2831   0.6917
V60     V     0.4417   0.4669   0.6617
V61     V     0.0883   0.2169   0.8083
V62     V     0.0583   0.0331   0.8383
V63     V     0.1917   0.9117   0.7831
V64     V     0.1617   0.9417   0.9669
V65     V     0.2169   0.6917   0.5883
V66     V     0.0331   0.6617   0.5583
V67     V     0.9117   0.7169   0.6917
V68     V     0.9417   0.5331   0.6617
V69     V     0.7831   0.3083   0.4117
V70     V     0.9669   0.3383   0.4417
V71     V     0.8083   0.4117   0.7169
V72     V     0.8383   0.4417   0.5331
V73     V     0.7169   0.3083   0.5883
V74     V     0.5331   0.3383   0.5583
V75     V     0.6917   0.4117   0.2831
V76     V     0.6617   0.4417   0.4669
V77     V     0.9117   0.2169   0.3083
V78     V     0.9417   0.0331   0.3383
V79     V     0.0883   0.7831   0.6917
V80     V     0.0583   0.9669   0.6617
V81     V     0.8383   0.9417   0.4669
V82     V     0.8083   0.9117   0.2831
V83     V     0.7831   0.8083   0.5883
V84     V     0.9669   0.8383   0.5583
V85     V     0.1917   0.0883   0.7169
V86     V     0.1617   0.0583   0.5331
V87     V     0.5883   0.7169   0.3083
V88     V     0.5583   0.5331   0.3383
V89     V     0.2831   0.6917   0.4117
V90     V     0.4669   0.6617   0.4417
V91     V     0.1617   0.5583   0.4669
V92     V     0.1917   0.5883   0.2831
V93     V     0.2169   0.1917   0.4117
V94     V     0.0331   0.1617   0.4417
V95     V     0.0883   0.2831   0.3083
V96     V     0.0583   0.4669   0.3383
loop_
_geom_bond_atom_site_label_1
_geom_bond_atom_site_label_2
_geom_bond_distance
_geom_bond_site_symmetry_2
_ccdc_geom_bond_type
V1     V18    10.0   1_545     S
V1     V93    10.0   .     S
V1     V7    10.0   .     S
V1     V8    10.0   .     S
V1     V2    10.0   .     S
V1     V86    10.0   .     S
V2     V18    10.0   1_545     S
V2     V93    10.0   .     S
V2     V3    10.0   .     S
V2     V4    10.0   .     S
V2     V29    10.0   1_545     S
V3     V4    10.0   .     S
V3     V22    10.0   .     S
V3     V31    10.0   .     S
V3     V32    10.0   .     S
V3     V34    10.0   .     S
V4     V22    10.0   .     S
V4     V30    10.0   1_545     S
V4     V29    10.0   1_545     S
V4     V18    10.0   1_545     S
V5     V6    10.0   .     S
V5     V31    10.0   .     S
V5     V48    10.0   .     S
V5     V95    10.0   .     S
V5     V96    10.0   .     S
V5     V92    10.0   .     S
V6     V31    10.0   .     S
V6     V36    10.0   1_554     S
V6     V35    10.0   1_554     S
V6     V48    10.0   .     S
V6     V54    10.0   1_554     S
V7     V59    10.0   .     S
V7     V8    10.0   .     S
V7     V14    10.0   .     S
V7     V13    10.0   .     S
V7     V74    10.0   .     S
V8     V59    10.0   .     S
V8     V85    10.0   .     S
V8     V86    10.0   .     S
V8     V93    10.0   .     S
V9     V23    10.0   .     S
V9     V24    10.0   .     S
V9     V10    10.0   .     S
V9     V12    10.0   1_556     S
V9     V42    10.0   .     S
V9     V21    10.0   1_556     S
V10     V62    10.0   1_655     S
V10     V61    10.0   1_655     S
V10     V12    10.0   1_556     S
V10     V42    10.0   .     S
V10     V36    10.0   1_655     S
V11     V77    10.0   .     S
V11     V78    10.0   .     S
V11     V12    10.0   .     S
V11     V21    10.0   .     S
V11     V40    10.0   1_545     S
V11     V82    10.0   1_545     S
V12     V10    10.0   1_554     S
V12     V9    10.0   1_554     S
V12     V21    10.0   .     S
V12     V40    10.0   1_545     S
V12     V24    10.0   1_554     S
V13     V73    10.0   .     S
V13     V74    10.0   .     S
V13     V23    10.0   .     S
V13     V14    10.0   .     S
V13     V59    10.0   .     S
V14     V23    10.0   .     S
V14     V16    10.0   1_545     S
V14     V15    10.0   1_545     S
V14     V26    10.0   1_545     S
V15     V83    10.0   .     S
V15     V14    10.0   1_565     S
V15     V25    10.0   .     S
V15     V26    10.0   .     S
V15     V16    10.0   .     S
V15     V23    10.0   1_565     S
V16     V83    10.0   .     S
V16     V14    10.0   1_565     S
V16     V20    10.0   .     S
V16     V19    10.0   .     S
V16     V81    10.0   .     S
V17     V18    10.0   .     S
V17     V20    10.0   .     S
V17     V29    10.0   .     S
V17     V89    10.0   .     S
V17     V90    10.0   .     S
V17     V87    10.0   .     S
V18     V1    10.0   1_565     S
V18     V2    10.0   1_565     S
V18     V20    10.0   .     S
V18     V29    10.0   .     S
V18     V4    10.0   1_565     S
V19     V87    10.0   .     S
V19     V20    10.0   .     S
V19     V82    10.0   .     S
V19     V81    10.0   .     S
V19     V83    10.0   .     S
V20     V87    10.0   .     S
V20     V90    10.0   .     S
V21     V34    10.0   .     S
V21     V22    10.0   .     S
V21     V24    10.0   1_554     S
V21     V9    10.0   1_554     S
V22     V34    10.0   .     S
V22     V24    10.0   1_554     S
V22     V32    10.0   .     S
V23     V26    10.0   1_545     S
V23     V24    10.0   .     S
V23     V15    10.0   1_545     S
V24     V22    10.0   1_556     S
V24     V21    10.0   1_556     S
V24     V26    10.0   1_545     S
V24     V12    10.0   1_556     S
V25     V26    10.0   .     S
V25     V27    10.0   .     S
V25     V51    10.0   .     S
V25     V52    10.0   .     S
V25     V55    10.0   .     S
V26     V24    10.0   1_565     S
V26     V23    10.0   1_565     S
V26     V27    10.0   .     S
V26     V14    10.0   1_565     S
V27     V55    10.0   .     S
V27     V28    10.0   .     S
V27     V30    10.0   1_556     S
V27     V52    10.0   .     S
V28     V55    10.0   .     S
V28     V63    10.0   .     S
V28     V64    10.0   .     S
V28     V30    10.0   1_556     S
V28     V38    10.0   1_556     S
V29     V4    10.0   1_565     S
V29     V30    10.0   .     S
V29     V38    10.0   .     S
V29     V2    10.0   1_565     S
V30     V27    10.0   1_554     S
V30     V28    10.0   1_554     S
V30     V4    10.0   1_565     S
V30     V38    10.0   .     S
V30     V64    10.0   1_554     S
V31     V54    10.0   1_554     S
V31     V32    10.0   .     S
V31     V35    10.0   1_554     S
V32     V54    10.0   1_554     S
V32     V33    10.0   .     S
V32     V34    10.0   .     S
V33     V75    10.0   .     S
V33     V34    10.0   .     S
V33     V50    10.0   .     S
V33     V49    10.0   .     S
V33     V88    10.0   .     S
V34     V75    10.0   .     S
V35     V53    10.0   .     S
V35     V54    10.0   .     S
V35     V36    10.0   .     S
V35     V6    10.0   1_556     S
V35     V61    10.0   .     S
V35     V31    10.0   1_556     S
V36     V41    10.0   1_455     S
V36     V42    10.0   1_455     S
V36     V6    10.0   1_556     S
V36     V61    10.0   .     S
V36     V10    10.0   1_455     S
V37     V47    10.0   .     S
V37     V40    10.0   1_455     S
V37     V39    10.0   1_455     S
V37     V38    10.0   .     S
V37     V64    10.0   1_554     S
V37     V44    10.0   1_455     S
V38     V47    10.0   .     S
V38     V64    10.0   1_554     S
V38     V28    10.0   1_554     S
V39     V37    10.0   1_655     S
V39     V43    10.0   .     S
V39     V44    10.0   .     S
V39     V40    10.0   .     S
V39     V82    10.0   .     S
V39     V47    10.0   1_655     S
V40     V12    10.0   1_565     S
V40     V11    10.0   1_565     S
V40     V37    10.0   1_655     S
V40     V82    10.0   .     S
V40     V78    10.0   1_565     S
V41     V71    10.0   .     S
V41     V36    10.0   1_655     S
V41     V46    10.0   .     S
V41     V45    10.0   .     S
V41     V42    10.0   .     S
V41     V68    10.0   .     S
V42     V71    10.0   .     S
V42     V36    10.0   1_655     S
V42     V61    10.0   1_655     S
V43     V49    10.0   .     S
V43     V50    10.0   .     S
V43     V44    10.0   .     S
V43     V46    10.0   1_554     S
V43     V51    10.0   1_554     S
V44     V46    10.0   1_554     S
V44     V48    10.0   1_655     S
V44     V47    10.0   1_655     S
V44     V37    10.0   1_655     S
V45     V46    10.0   .     S
V45     V51    10.0   .     S
V45     V67    10.0   .     S
V45     V68    10.0   .     S
V45     V71    10.0   .     S
V46     V44    10.0   1_556     S
V46     V43    10.0   1_556     S
V46     V51    10.0   .     S
V46     V50    10.0   1_556     S
V47     V92    10.0   .     S
V47     V44    10.0   1_455     S
V47     V48    10.0   .     S
V47     V39    10.0   1_455     S
V48     V92    10.0   .     S
V48     V44    10.0   1_455     S
V48     V96    10.0   .     S
V49     V87    10.0   .     S
V49     V88    10.0   .     S
V49     V50    10.0   .     S
V49     V75    10.0   .     S
V50     V52    10.0   1_554     S
V50     V51    10.0   1_554     S
V50     V46    10.0   1_554     S
V51     V50    10.0   1_556     S
V51     V52    10.0   .     S
V51     V43    10.0   1_556     S
V52     V50    10.0   1_556     S
V52     V56    10.0   .     S
V52     V55    10.0   .     S
V53     V54    10.0   .     S
V53     V56    10.0   .     S
V53     V59    10.0   .     S
V53     V60    10.0   .     S
V53     V57    10.0   .     S
V54     V32    10.0   1_556     S
V54     V31    10.0   1_556     S
V54     V56    10.0   .     S
V54     V6    10.0   1_556     S
V55     V57    10.0   .     S
V55     V56    10.0   .     S
V56     V57    10.0   .     S
V56     V60    10.0   .     S
V57     V65    10.0   .     S
V57     V58    10.0   .     S
V57     V60    10.0   .     S
V58     V65    10.0   .     S
V58     V60    10.0   .     S
V58     V90    10.0   .     S
V58     V89    10.0   .     S
V58     V91    10.0   .     S
V59     V74    10.0   .     S
V59     V60    10.0   .     S
V60     V74    10.0   .     S
V61     V10    10.0   1_455     S
V61     V85    10.0   .     S
V61     V62    10.0   .     S
V61     V42    10.0   1_455     S
V62     V10    10.0   1_455     S
V62     V85    10.0   .     S
V62     V64    10.0   1_545     S
V62     V63    10.0   1_545     S
V62     V80    10.0   1_545     S
V63     V62    10.0   1_565     S
V63     V79    10.0   .     S
V63     V80    10.0   .     S
V63     V64    10.0   .     S
V63     V85    10.0   1_565     S
V64     V37    10.0   1_556     S
V64     V38    10.0   1_556     S
V64     V62    10.0   1_565     S
V64     V30    10.0   1_556     S
V65     V79    10.0   .     S
V65     V66    10.0   .     S
V65     V91    10.0   .     S
V65     V89    10.0   .     S
V66     V79    10.0   .     S
V66     V68    10.0   1_455     S
V66     V67    10.0   1_455     S
V66     V91    10.0   .     S
V66     V84    10.0   1_455     S
V67     V83    10.0   .     S
V67     V84    10.0   .     S
V67     V66    10.0   1_655     S
V67     V68    10.0   .     S
V67     V79    10.0   1_655     S
V68     V72    10.0   .     S
V68     V71    10.0   .     S
V68     V66    10.0   1_655     S
V69     V77    10.0   .     S
V69     V70    10.0   .     S
V69     V72    10.0   .     S
V69     V75    10.0   .     S
V69     V76    10.0   .     S
V69     V73    10.0   .     S
V70     V96    10.0   1_655     S
V70     V95    10.0   1_655     S
V70     V77    10.0   .     S
V70     V72    10.0   .     S
V70     V94    10.0   1_655     S
V71     V73    10.0   .     S
V71     V72    10.0   .     S
V72     V73    10.0   .     S
V72     V76    10.0   .     S
V73     V74    10.0   .     S
V73     V76    10.0   .     S
V74     V76    10.0   .     S
V75     V88    10.0   .     S
V75     V76    10.0   .     S
V76     V88    10.0   .     S
V77     V94    10.0   1_655     S
V77     V78    10.0   .     S
V77     V95    10.0   1_655     S
V78     V81    10.0   1_545     S
V78     V82    10.0   1_545     S
V78     V94    10.0   1_655     S
V78     V40    10.0   1_545     S
V79     V80    10.0   .     S
V79     V84    10.0   1_455     S
V79     V67    10.0   1_455     S
V80     V84    10.0   1_455     S
V80     V86    10.0   1_565     S
V80     V85    10.0   1_565     S
V80     V62    10.0   1_565     S
V81     V78    10.0   1_565     S
V81     V84    10.0   .     S
V81     V83    10.0   .     S
V81     V82    10.0   .     S
V82     V78    10.0   1_565     S
V82     V11    10.0   1_565     S
V83     V84    10.0   .     S
V84     V80    10.0   1_655     S
V84     V79    10.0   1_655     S
V84     V66    10.0   1_655     S
V85     V80    10.0   1_545     S
V85     V86    10.0   .     S
V85     V63    10.0   1_545     S
V86     V80    10.0   1_545     S
V86     V94    10.0   .     S
V86     V93    10.0   .     S
V87     V88    10.0   .     S
V87     V90    10.0   .     S
V88     V90    10.0   .     S
V89     V92    10.0   .     S
V89     V91    10.0   .     S
V89     V90    10.0   .     S
V91     V92    10.0   .     S
V91     V96    10.0   .     S
V92     V96    10.0   .     S
V93     V94    10.0   .     S
V93     V95    10.0   .     S
V94     V78    10.0   1_455     S
V94     V77    10.0   1_455     S
V94     V95    10.0   .     S
V94     V70    10.0   1_455     S
V95     V70    10.0   1_455     S
V95     V96    10.0   .     S
V95     V77    10.0   1_455     S
V96     V70    10.0   1_455     S
