data_tbd
_audit_creation_date              2020-02-04
_audit_creation_method            'Pymatgen'
_symmetry_space_group_name_H-M    'P1'
_symmetry_Int_Tables_number       1
loop_
_symmetry_equiv_pos_as_xyz
  x,y,z
_cell_length_a                    68.9897
_cell_length_b                    68.9897
_cell_length_c                    68.9897
_cell_angle_alpha                 90.0
_cell_angle_beta                 90.0
_cell_angle_gamma                 90.0
loop_
_atom_site_label
_atom_site_type_symbol
_atom_site_fract_x
_atom_site_fract_y
_atom_site_fract_z
V1     V     0.4275   0.25   0.25
V2     V     0.5725   0.25   0.25
Er3     Er     0.6907   0.1907   0.3093
Er4     Er     0.6907   0.3093   0.1907
V5     V     0.25   0.4275   0.25
V6     V     0.25   0.5725   0.25
Er7     Er     0.1907   0.6907   0.3093
Er8     Er     0.3093   0.6907   0.1907
V9     V     0.25   0.25   0.4275
V10     V     0.25   0.25   0.5725
Er11     Er     0.1907   0.3093   0.6907
Er12     Er     0.3093   0.1907   0.6907
V13     V     0.25   0.25   0.0725
V14     V     0.25   0.25   0.9275
Er15     Er     0.3093   0.3093   0.8093
Er16     Er     0.1907   0.1907   0.8093
V17     V     0.25   0.4275   0.75
V18     V     0.25   0.5725   0.75
V19     V     0.25   0.75   0.0725
V20     V     0.25   0.75   0.9275
Er21     Er     0.3093   0.6907   0.8093
V22     V     0.25   0.75   0.4275
V23     V     0.25   0.75   0.5725
V24     V     0.25   0.0725   0.75
V25     V     0.25   0.9275   0.75
Er26     Er     0.3093   0.8093   0.6907
Er27     Er     0.1907   0.8093   0.8093
Er28     Er     0.1907   0.6907   0.6907
V29     V     0.4275   0.25   0.75
V30     V     0.5725   0.25   0.75
V31     V     0.75   0.25   0.0725
V32     V     0.75   0.25   0.9275
Er33     Er     0.6907   0.3093   0.8093
V34     V     0.75   0.25   0.4275
V35     V     0.75   0.25   0.5725
V36     V     0.0725   0.25   0.75
V37     V     0.9275   0.25   0.75
Er38     Er     0.8093   0.3093   0.6907
Er39     Er     0.8093   0.1907   0.8093
Er40     Er     0.6907   0.1907   0.6907
V41     V     0.4275   0.75   0.75
V42     V     0.5725   0.75   0.75
V43     V     0.75   0.75   0.0725
V44     V     0.75   0.75   0.9275
V45     V     0.75   0.0725   0.75
V46     V     0.75   0.9275   0.75
V47     V     0.0725   0.75   0.75
V48     V     0.9275   0.75   0.75
V49     V     0.75   0.4275   0.75
V50     V     0.75   0.5725   0.75
V51     V     0.75   0.75   0.4275
V52     V     0.75   0.75   0.5725
Er53     Er     0.8093   0.6907   0.6907
Er54     Er     0.6907   0.8093   0.6907
Er55     Er     0.6907   0.6907   0.8093
Er56     Er     0.8093   0.8093   0.8093
V57     V     0.25   0.0725   0.25
V58     V     0.25   0.9275   0.25
Er59     Er     0.3093   0.8093   0.3093
Er60     Er     0.1907   0.8093   0.1907
V61     V     0.4275   0.75   0.25
V62     V     0.5725   0.75   0.25
V63     V     0.75   0.0725   0.25
V64     V     0.75   0.9275   0.25
Er65     Er     0.6907   0.8093   0.3093
V66     V     0.0725   0.75   0.25
V67     V     0.9275   0.75   0.25
V68     V     0.75   0.4275   0.25
V69     V     0.75   0.5725   0.25
Er70     Er     0.8093   0.6907   0.3093
Er71     Er     0.8093   0.8093   0.1907
Er72     Er     0.6907   0.6907   0.1907
V73     V     0.0725   0.25   0.25
V74     V     0.9275   0.25   0.25
Er75     Er     0.8093   0.3093   0.3093
Er76     Er     0.8093   0.1907   0.1907
Er77     Er     0.1907   0.3093   0.3093
Er78     Er     0.3093   0.1907   0.3093
Er79     Er     0.3093   0.3093   0.1907
Er80     Er     0.1907   0.1907   0.1907
loop_
_geom_bond_atom_site_label_1
_geom_bond_atom_site_label_2
_geom_bond_distance
_geom_bond_site_symmetry_2
_ccdc_geom_bond_type
V1     V2    9.999   .     S
V1     Er78    10.0   .     S
V1     Er79    10.0   .     S
V2     Er3    10.0   .     S
V2     Er4    10.0   .     S
Er3     V34    10.0   .     S
Er3     V63    10.0   .     S
Er4     V31    10.0   .     S
Er4     V68    10.0   .     S
V5     V6    9.999   .     S
V5     Er77    10.0   .     S
V5     Er79    10.0   .     S
V6     Er7    10.0   .     S
V6     Er8    10.0   .     S
Er7     V22    10.0   .     S
Er7     V66    10.0   .     S
Er8     V19    10.0   .     S
Er8     V61    10.0   .     S
V9     V10    9.999   .     S
V9     Er77    10.0   .     S
V9     Er78    10.0   .     S
V10     Er11    10.0   .     S
V10     Er12    10.0   .     S
Er11     V17    10.0   .     S
Er11     V36    10.0   .     S
Er12     V24    10.0   .     S
Er12     V29    10.0   .     S
V13     V14    9.999   1_554     S
V13     Er80    10.0   .     S
V13     Er79    10.0   .     S
V14     V13    9.999   1_556     S
V14     Er16    10.0   .     S
V14     Er15    10.0   .     S
Er15     V17    10.0   .     S
Er15     V29    10.0   .     S
Er16     V24    10.0   .     S
Er16     V36    10.0   .     S
V17     V18    9.999   .     S
V18     Er28    10.0   .     S
V18     Er21    10.0   .     S
V19     V20    9.999   1_554     S
V19     Er60    10.0   .     S
V20     V19    9.999   1_556     S
V20     Er27    10.0   .     S
V20     Er21    10.0   .     S
Er21     V41    10.0   .     S
V22     V23    9.999   .     S
V22     Er59    10.0   .     S
V23     Er28    10.0   .     S
V23     Er26    10.0   .     S
V24     V25    9.999   1_545     S
V25     V24    9.999   1_565     S
V25     Er27    10.0   .     S
V25     Er26    10.0   .     S
Er26     V41    10.0   .     S
Er27     V47    10.0   .     S
Er28     V47    10.0   .     S
V29     V30    9.999   .     S
V30     Er40    10.0   .     S
V30     Er33    10.0   .     S
V31     V32    9.999   1_554     S
V31     Er76    10.0   .     S
V32     V31    9.999   1_556     S
V32     Er39    10.0   .     S
V32     Er33    10.0   .     S
Er33     V49    10.0   .     S
V34     V35    9.999   .     S
V34     Er75    10.0   .     S
V35     Er40    10.0   .     S
V35     Er38    10.0   .     S
V36     V37    9.999   1_455     S
V37     V36    9.999   1_655     S
V37     Er39    10.0   .     S
V37     Er38    10.0   .     S
Er38     V49    10.0   .     S
Er39     V45    10.0   .     S
Er40     V45    10.0   .     S
V41     V42    9.999   .     S
V42     Er54    10.0   .     S
V42     Er55    10.0   .     S
V43     V44    9.999   1_554     S
V43     Er71    10.0   .     S
V43     Er72    10.0   .     S
V44     V43    9.999   1_556     S
V44     Er56    10.0   .     S
V44     Er55    10.0   .     S
V45     V46    9.999   1_545     S
V46     V45    9.999   1_565     S
V46     Er56    10.0   .     S
V46     Er54    10.0   .     S
V47     V48    9.999   1_455     S
V48     V47    9.999   1_655     S
V48     Er53    10.0   .     S
V48     Er56    10.0   .     S
V49     V50    9.999   .     S
V50     Er53    10.0   .     S
V50     Er55    10.0   .     S
V51     V52    9.999   .     S
V51     Er70    10.0   .     S
V51     Er65    10.0   .     S
V52     Er53    10.0   .     S
V52     Er54    10.0   .     S
V57     V58    9.999   1_545     S
V57     Er80    10.0   .     S
V57     Er78    10.0   .     S
V58     V57    9.999   1_565     S
V58     Er60    10.0   .     S
V58     Er59    10.0   .     S
Er59     V61    10.0   .     S
Er60     V66    10.0   .     S
V61     V62    9.999   .     S
V62     Er72    10.0   .     S
V62     Er65    10.0   .     S
V63     V64    9.999   1_545     S
V63     Er76    10.0   .     S
V64     V63    9.999   1_565     S
V64     Er71    10.0   .     S
V64     Er65    10.0   .     S
V66     V67    9.999   1_455     S
V67     V66    9.999   1_655     S
V67     Er71    10.0   .     S
V67     Er70    10.0   .     S
V68     V69    9.999   .     S
V68     Er75    10.0   .     S
V69     Er72    10.0   .     S
V69     Er70    10.0   .     S
V73     V74    9.999   1_455     S
V73     Er80    10.0   .     S
V73     Er77    10.0   .     S
V74     V73    9.999   1_655     S
V74     Er76    10.0   .     S
V74     Er75    10.0   .     S
