data_tcf
_audit_creation_date              2020-02-04
_audit_creation_method            'Pymatgen'
_symmetry_space_group_name_H-M    'P1'
_symmetry_Int_Tables_number       1
loop_
_symmetry_equiv_pos_as_xyz
  x,y,z
_cell_length_a                    20.0
_cell_length_b                    17.3206
_cell_length_c                    69.2817
_cell_angle_alpha                 90.0
_cell_angle_beta                 90.0
_cell_angle_gamma                 90.0
loop_
_atom_site_label
_atom_site_type_symbol
_atom_site_fract_x
_atom_site_fract_y
_atom_site_fract_z
V1     V     0.0625   0.625   0.4375
V2     V     0.5625   0.625   0.4375
V3     V     0.3125   0.625   0.3125
V4     V     0.8125   0.625   0.3125
V5     V     0.1875   0.375   0.6875
V6     V     0.6875   0.375   0.6875
V7     V     0.4375   0.375   0.5625
V8     V     0.9375   0.375   0.5625
V9     V     0.0625   0.625   0.8125
V10     V     0.5625   0.625   0.8125
V11     V     0.3125   0.625   0.9375
V12     V     0.8125   0.625   0.9375
V13     V     0.4375   0.875   0.6875
V14     V     0.9375   0.875   0.6875
V15     V     0.1875   0.875   0.5625
V16     V     0.6875   0.875   0.5625
V17     V     0.0625   0.125   0.9375
V18     V     0.5625   0.125   0.9375
V19     V     0.3125   0.125   0.8125
V20     V     0.8125   0.125   0.8125
V21     V     0.4375   0.375   0.1875
V22     V     0.9375   0.375   0.1875
V23     V     0.1875   0.375   0.0625
V24     V     0.6875   0.375   0.0625
V25     V     0.1875   0.875   0.1875
V26     V     0.6875   0.875   0.1875
V27     V     0.4375   0.875   0.0625
V28     V     0.9375   0.875   0.0625
V29     V     0.0625   0.125   0.3125
V30     V     0.5625   0.125   0.3125
V31     V     0.3125   0.125   0.4375
V32     V     0.8125   0.125   0.4375
loop_
_geom_bond_atom_site_label_1
_geom_bond_atom_site_label_2
_geom_bond_distance
_geom_bond_site_symmetry_2
_ccdc_geom_bond_type
V1     V3    10.0   .     S
V1     V4    10.0   1_455     S
V1     V2    10.0   .     S
V1     V2    10.0   1_455     S
V1     V15    10.0   .     S
V1     V31    10.0   1_565     S
V1     V8    10.0   1_455     S
V1     V32    10.0   1_455     S
V1     V31    10.0   .     S
V1     V32    10.0   1_465     S
V2     V4    10.0   .     S
V2     V3    10.0   .     S
V2     V1    10.0   1_655     S
V2     V16    10.0   .     S
V2     V32    10.0   1_565     S
V2     V7    10.0   .     S
V2     V31    10.0   .     S
V2     V32    10.0   .     S
V2     V31    10.0   1_565     S
V3     V4    10.0   1_455     S
V3     V4    10.0   .     S
V3     V29    10.0   1_565     S
V3     V30    10.0   .     S
V3     V21    10.0   .     S
V3     V25    10.0   .     S
V3     V29    10.0   .     S
V3     V30    10.0   1_565     S
V4     V1    10.0   1_655     S
V4     V3    10.0   1_655     S
V4     V30    10.0   1_565     S
V4     V29    10.0   1_655     S
V4     V22    10.0   .     S
V4     V26    10.0   .     S
V4     V30    10.0   .     S
V4     V29    10.0   1_665     S
V5     V7    10.0   .     S
V5     V8    10.0   1_455     S
V5     V6    10.0   .     S
V5     V6    10.0   1_455     S
V5     V13    10.0   1_545     S
V5     V14    10.0   1_455     S
V5     V9    10.0   .     S
V5     V19    10.0   .     S
V5     V13    10.0   .     S
V5     V14    10.0   1_445     S
V6     V8    10.0   .     S
V6     V7    10.0   .     S
V6     V5    10.0   1_655     S
V6     V14    10.0   1_545     S
V6     V13    10.0   .     S
V6     V10    10.0   .     S
V6     V20    10.0   .     S
V6     V14    10.0   .     S
V6     V13    10.0   1_545     S
V7     V8    10.0   1_455     S
V7     V8    10.0   .     S
V7     V16    10.0   .     S
V7     V31    10.0   .     S
V7     V15    10.0   1_545     S
V7     V15    10.0   .     S
V7     V16    10.0   1_545     S
V8     V5    10.0   1_655     S
V8     V7    10.0   1_655     S
V8     V15    10.0   1_655     S
V8     V1    10.0   1_655     S
V8     V32    10.0   .     S
V8     V16    10.0   1_545     S
V8     V16    10.0   .     S
V8     V15    10.0   1_645     S
V9     V11    10.0   .     S
V9     V12    10.0   1_455     S
V9     V10    10.0   .     S
V9     V10    10.0   1_455     S
V9     V20    10.0   1_465     S
V9     V14    10.0   1_455     S
V9     V19    10.0   .     S
V9     V19    10.0   1_565     S
V9     V20    10.0   1_455     S
V10     V12    10.0   .     S
V10     V11    10.0   .     S
V10     V9    10.0   1_655     S
V10     V19    10.0   1_565     S
V10     V13    10.0   .     S
V10     V20    10.0   .     S
V10     V20    10.0   1_565     S
V10     V19    10.0   .     S
V11     V12    10.0   1_455     S
V11     V12    10.0   .     S
V11     V17    10.0   .     S
V11     V18    10.0   1_565     S
V11     V27    10.0   1_556     S
V11     V23    10.0   1_556     S
V11     V17    10.0   1_565     S
V11     V18    10.0   .     S
V12     V9    10.0   1_655     S
V12     V11    10.0   1_655     S
V12     V18    10.0   .     S
V12     V17    10.0   1_665     S
V12     V28    10.0   1_556     S
V12     V24    10.0   1_556     S
V12     V18    10.0   1_565     S
V12     V17    10.0   1_655     S
V13     V15    10.0   .     S
V13     V16    10.0   .     S
V13     V14    10.0   1_455     S
V13     V14    10.0   .     S
V13     V19    10.0   1_565     S
V13     V5    10.0   1_565     S
V13     V6    10.0   1_565     S
V14     V16    10.0   .     S
V14     V15    10.0   1_655     S
V14     V13    10.0   1_655     S
V14     V20    10.0   1_565     S
V14     V6    10.0   1_565     S
V14     V9    10.0   1_655     S
V14     V5    10.0   1_655     S
V14     V5    10.0   1_665     S
V15     V14    10.0   1_455     S
V15     V16    10.0   .     S
V15     V16    10.0   1_455     S
V15     V8    10.0   1_455     S
V15     V7    10.0   1_565     S
V15     V31    10.0   1_565     S
V15     V8    10.0   1_465     S
V16     V15    10.0   1_655     S
V16     V8    10.0   1_565     S
V16     V32    10.0   1_565     S
V16     V7    10.0   1_565     S
V17     V19    10.0   .     S
V17     V20    10.0   1_455     S
V17     V18    10.0   .     S
V17     V18    10.0   1_455     S
V17     V23    10.0   1_556     S
V17     V28    10.0   1_446     S
V17     V12    10.0   1_445     S
V17     V11    10.0   1_545     S
V17     V12    10.0   1_455     S
V18     V20    10.0   .     S
V18     V19    10.0   .     S
V18     V17    10.0   1_655     S
V18     V24    10.0   1_556     S
V18     V27    10.0   1_546     S
V18     V11    10.0   1_545     S
V18     V12    10.0   1_545     S
V19     V20    10.0   1_455     S
V19     V20    10.0   .     S
V19     V13    10.0   1_545     S
V19     V10    10.0   1_545     S
V19     V9    10.0   1_545     S
V20     V17    10.0   1_655     S
V20     V19    10.0   1_655     S
V20     V14    10.0   1_545     S
V20     V9    10.0   1_645     S
V20     V10    10.0   1_545     S
V20     V9    10.0   1_655     S
V21     V23    10.0   .     S
V21     V24    10.0   .     S
V21     V22    10.0   1_455     S
V21     V22    10.0   .     S
V21     V26    10.0   1_545     S
V21     V30    10.0   .     S
V21     V25    10.0   .     S
V21     V25    10.0   1_545     S
V21     V26    10.0   .     S
V22     V24    10.0   .     S
V22     V23    10.0   1_655     S
V22     V21    10.0   1_655     S
V22     V25    10.0   1_645     S
V22     V29    10.0   1_655     S
V22     V26    10.0   .     S
V22     V26    10.0   1_545     S
V22     V25    10.0   1_655     S
V23     V22    10.0   1_455     S
V23     V24    10.0   .     S
V23     V24    10.0   1_455     S
V23     V17    10.0   1_554     S
V23     V28    10.0   1_445     S
V23     V27    10.0   .     S
V23     V11    10.0   1_554     S
V23     V27    10.0   1_545     S
V23     V28    10.0   1_455     S
V24     V23    10.0   1_655     S
V24     V18    10.0   1_554     S
V24     V27    10.0   1_545     S
V24     V28    10.0   .     S
V24     V12    10.0   1_554     S
V24     V28    10.0   1_545     S
V24     V27    10.0   .     S
V25     V27    10.0   .     S
V25     V28    10.0   1_455     S
V25     V26    10.0   .     S
V25     V26    10.0   1_455     S
V25     V29    10.0   1_565     S
V25     V22    10.0   1_465     S
V25     V21    10.0   1_565     S
V25     V22    10.0   1_455     S
V26     V28    10.0   .     S
V26     V27    10.0   .     S
V26     V25    10.0   1_655     S
V26     V30    10.0   1_565     S
V26     V21    10.0   1_565     S
V26     V22    10.0   1_565     S
V27     V28    10.0   1_455     S
V27     V28    10.0   .     S
V27     V24    10.0   1_565     S
V27     V18    10.0   1_564     S
V27     V11    10.0   1_554     S
V27     V23    10.0   1_565     S
V28     V25    10.0   1_655     S
V28     V27    10.0   1_655     S
V28     V23    10.0   1_665     S
V28     V17    10.0   1_664     S
V28     V12    10.0   1_554     S
V28     V24    10.0   1_565     S
V28     V23    10.0   1_655     S
V29     V31    10.0   .     S
V29     V32    10.0   1_455     S
V29     V30    10.0   .     S
V29     V30    10.0   1_455     S
V29     V25    10.0   1_545     S
V29     V3    10.0   1_545     S
V29     V22    10.0   1_455     S
V29     V4    10.0   1_455     S
V29     V4    10.0   1_445     S
V30     V32    10.0   .     S
V30     V31    10.0   .     S
V30     V29    10.0   1_655     S
V30     V26    10.0   1_545     S
V30     V4    10.0   1_545     S
V30     V3    10.0   1_545     S
V31     V32    10.0   1_455     S
V31     V32    10.0   .     S
V31     V1    10.0   1_545     S
V31     V15    10.0   1_545     S
V31     V2    10.0   1_545     S
V32     V29    10.0   1_655     S
V32     V31    10.0   1_655     S
V32     V2    10.0   1_545     S
V32     V1    10.0   1_655     S
V32     V16    10.0   1_545     S
V32     V1    10.0   1_645     S
