data_tcl
_audit_creation_date              2020-02-04
_audit_creation_method            'Pymatgen'
_symmetry_space_group_name_H-M    'P1'
_symmetry_Int_Tables_number       1
loop_
_symmetry_equiv_pos_as_xyz
  x,y,z
_cell_length_a                    20.0
_cell_length_b                    20.0
_cell_length_c                    73.4844
_cell_angle_alpha                 90.0
_cell_angle_beta                 90.0
_cell_angle_gamma                 120.0
loop_
_atom_site_label
_atom_site_type_symbol
_atom_site_fract_x
_atom_site_fract_y
_atom_site_fract_z
Er1     Er     0.0   0.0   0.7778
Er2     Er     0.0   0.5   0.7778
Er3     Er     0.5   0.0   0.7778
Er4     Er     0.5   0.5   0.7778
Er5     Er     0.1667   0.3333   0.8889
Er6     Er     0.1667   0.8333   0.8889
Er7     Er     0.6667   0.3333   0.8889
Er8     Er     0.6667   0.8333   0.8889
V9     V     0.3333   0.1667   0.3333
V10     V     0.3333   0.6667   0.3333
V11     V     0.8333   0.1667   0.3333
V12     V     0.8333   0.6667   0.3333
Er13     Er     0.1667   0.3333   0.4444
Er14     Er     0.1667   0.8333   0.4444
Er15     Er     0.6667   0.3333   0.4444
Er16     Er     0.6667   0.8333   0.4444
Er17     Er     0.3333   0.1667   0.5556
Er18     Er     0.3333   0.6667   0.5556
Er19     Er     0.8333   0.1667   0.5556
Er20     Er     0.8333   0.6667   0.5556
V21     V     0.1667   0.3333   0.6667
V22     V     0.1667   0.8333   0.6667
V23     V     0.6667   0.3333   0.6667
V24     V     0.6667   0.8333   0.6667
Er25     Er     0.3333   0.1667   0.1111
Er26     Er     0.3333   0.6667   0.1111
Er27     Er     0.8333   0.1667   0.1111
Er28     Er     0.8333   0.6667   0.1111
Er29     Er     0.0   0.0   0.2222
Er30     Er     0.0   0.5   0.2222
Er31     Er     0.5   0.0   0.2222
Er32     Er     0.5   0.5   0.2222
V33     V     0.0   0.0   0.0
V34     V     0.0   0.5   0.0
V35     V     0.5   0.0   0.0
V36     V     0.5   0.5   0.0
loop_
_geom_bond_atom_site_label_1
_geom_bond_atom_site_label_2
_geom_bond_distance
_geom_bond_site_symmetry_2
_ccdc_geom_bond_type
Er1     Er8    10.0   1_445     S
Er1     Er3    10.0   .     S
Er1     Er3    10.0   1_455     S
Er1     Er6    10.0   1_545     S
Er1     Er5    10.0   .     S
Er1     Er2    10.0   .     S
Er1     Er2    10.0   1_545     S
Er1     Er4    10.0   .     S
Er1     Er4    10.0   1_445     S
Er1     V22    10.0   1_545     S
Er1     V21    10.0   .     S
Er1     V24    10.0   1_445     S
Er2     Er7    10.0   1_455     S
Er2     Er4    10.0   .     S
Er2     Er4    10.0   1_455     S
Er2     Er5    10.0   .     S
Er2     Er6    10.0   .     S
Er2     Er1    10.0   1_565     S
Er2     Er3    10.0   1_565     S
Er2     Er3    10.0   1_455     S
Er2     V21    10.0   .     S
Er2     V22    10.0   .     S
Er2     V23    10.0   1_455     S
Er3     Er6    10.0   1_545     S
Er3     Er1    10.0   1_655     S
Er3     Er8    10.0   1_545     S
Er3     Er7    10.0   .     S
Er3     Er4    10.0   .     S
Er3     Er4    10.0   1_545     S
Er3     Er2    10.0   1_545     S
Er3     Er2    10.0   1_655     S
Er3     V24    10.0   1_545     S
Er3     V23    10.0   .     S
Er3     V22    10.0   1_545     S
Er4     Er5    10.0   .     S
Er4     Er2    10.0   1_655     S
Er4     Er7    10.0   .     S
Er4     Er8    10.0   .     S
Er4     Er3    10.0   1_565     S
Er4     Er1    10.0   1_665     S
Er4     V23    10.0   .     S
Er4     V24    10.0   .     S
Er4     V21    10.0   .     S
Er5     Er6    10.0   1_545     S
Er5     Er6    10.0   .     S
Er5     Er8    10.0   .     S
Er5     Er8    10.0   1_445     S
Er5     Er7    10.0   .     S
Er5     Er7    10.0   1_455     S
Er5     V34    10.0   1_556     S
Er5     V33    10.0   1_556     S
Er5     V36    10.0   1_556     S
Er6     Er3    10.0   1_565     S
Er6     Er1    10.0   1_565     S
Er6     Er5    10.0   1_565     S
Er6     Er7    10.0   1_565     S
Er6     Er7    10.0   1_455     S
Er6     Er8    10.0   .     S
Er6     Er8    10.0   1_455     S
Er6     V33    10.0   1_566     S
Er6     V34    10.0   1_556     S
Er6     V35    10.0   1_566     S
Er7     Er2    10.0   1_655     S
Er7     Er8    10.0   1_545     S
Er7     Er8    10.0   .     S
Er7     Er6    10.0   1_545     S
Er7     Er6    10.0   1_655     S
Er7     Er5    10.0   1_655     S
Er7     V36    10.0   1_556     S
Er7     V35    10.0   1_556     S
Er7     V34    10.0   1_656     S
Er8     Er1    10.0   1_665     S
Er8     Er3    10.0   1_565     S
Er8     Er7    10.0   1_565     S
Er8     Er5    10.0   1_665     S
Er8     Er6    10.0   1_655     S
Er8     V35    10.0   1_566     S
Er8     V36    10.0   1_556     S
Er8     V33    10.0   1_666     S
V9     V11    10.0   1_455     S
V9     V11    10.0   .     S
V9     V12    10.0   1_445     S
V9     V12    10.0   .     S
V9     V10    10.0   .     S
V9     V10    10.0   1_545     S
V9     Er14    10.0   1_545     S
V9     Er15    10.0   .     S
V9     Er13    10.0   .     S
V9     Er31    10.0   .     S
V9     Er32    10.0   .     S
V9     Er29    10.0   .     S
V10     V12    10.0   1_455     S
V10     V12    10.0   .     S
V10     V11    10.0   1_455     S
V10     V11    10.0   1_565     S
V10     V9    10.0   1_565     S
V10     Er13    10.0   .     S
V10     Er16    10.0   .     S
V10     Er14    10.0   .     S
V10     Er32    10.0   .     S
V10     Er31    10.0   1_565     S
V10     Er30    10.0   .     S
V11     V9    10.0   1_655     S
V11     V10    10.0   1_655     S
V11     V10    10.0   1_545     S
V11     V12    10.0   .     S
V11     V12    10.0   1_545     S
V11     Er16    10.0   1_545     S
V11     Er13    10.0   1_655     S
V11     Er15    10.0   .     S
V11     Er29    10.0   1_655     S
V11     Er30    10.0   1_655     S
V11     Er31    10.0   .     S
V12     V10    10.0   1_655     S
V12     V9    10.0   1_665     S
V12     V11    10.0   1_565     S
V12     Er15    10.0   .     S
V12     Er14    10.0   1_655     S
V12     Er16    10.0   .     S
V12     Er30    10.0   1_655     S
V12     Er29    10.0   1_665     S
V12     Er32    10.0   .     S
Er13     Er17    10.0   .     S
Er13     Er19    10.0   1_455     S
Er13     Er18    10.0   .     S
Er13     Er15    10.0   .     S
Er13     Er15    10.0   1_455     S
Er13     Er14    10.0   1_545     S
Er13     Er14    10.0   .     S
Er13     Er16    10.0   .     S
Er13     Er16    10.0   1_445     S
Er13     V11    10.0   1_455     S
Er14     Er18    10.0   .     S
Er14     Er20    10.0   1_455     S
Er14     Er17    10.0   1_565     S
Er14     Er16    10.0   .     S
Er14     Er16    10.0   1_455     S
Er14     Er13    10.0   1_565     S
Er14     Er15    10.0   1_565     S
Er14     Er15    10.0   1_455     S
Er14     V9    10.0   1_565     S
Er14     V12    10.0   1_455     S
Er15     Er19    10.0   .     S
Er15     Er17    10.0   .     S
Er15     Er20    10.0   .     S
Er15     Er13    10.0   1_655     S
Er15     Er16    10.0   1_545     S
Er15     Er16    10.0   .     S
Er15     Er14    10.0   1_545     S
Er15     Er14    10.0   1_655     S
Er16     Er20    10.0   .     S
Er16     Er18    10.0   .     S
Er16     Er19    10.0   1_565     S
Er16     Er14    10.0   1_655     S
Er16     Er15    10.0   1_565     S
Er16     Er13    10.0   1_665     S
Er16     V11    10.0   1_565     S
Er17     Er14    10.0   1_545     S
Er17     Er18    10.0   .     S
Er17     Er18    10.0   1_545     S
Er17     Er20    10.0   1_445     S
Er17     Er20    10.0   .     S
Er17     Er19    10.0   1_455     S
Er17     Er19    10.0   .     S
Er17     V22    10.0   1_545     S
Er17     V23    10.0   .     S
Er17     V21    10.0   .     S
Er18     Er17    10.0   1_565     S
Er18     Er19    10.0   1_455     S
Er18     Er19    10.0   1_565     S
Er18     Er20    10.0   1_455     S
Er18     Er20    10.0   .     S
Er18     V21    10.0   .     S
Er18     V24    10.0   .     S
Er18     V22    10.0   .     S
Er19     Er13    10.0   1_655     S
Er19     Er16    10.0   1_545     S
Er19     Er20    10.0   .     S
Er19     Er20    10.0   1_545     S
Er19     Er18    10.0   1_655     S
Er19     Er18    10.0   1_545     S
Er19     Er17    10.0   1_655     S
Er19     V24    10.0   1_545     S
Er19     V21    10.0   1_655     S
Er19     V23    10.0   .     S
Er20     Er14    10.0   1_655     S
Er20     Er19    10.0   1_565     S
Er20     Er17    10.0   1_665     S
Er20     Er18    10.0   1_655     S
Er20     V23    10.0   .     S
Er20     V22    10.0   1_655     S
Er20     V24    10.0   .     S
V21     Er19    10.0   1_455     S
V21     V22    10.0   1_545     S
V21     V22    10.0   .     S
V21     V24    10.0   .     S
V21     V24    10.0   1_445     S
V21     V23    10.0   .     S
V21     V23    10.0   1_455     S
V22     Er1    10.0   1_565     S
V22     Er3    10.0   1_565     S
V22     Er17    10.0   1_565     S
V22     Er20    10.0   1_455     S
V22     V21    10.0   1_565     S
V22     V23    10.0   1_565     S
V22     V23    10.0   1_455     S
V22     V24    10.0   .     S
V22     V24    10.0   1_455     S
V23     Er2    10.0   1_655     S
V23     V24    10.0   1_545     S
V23     V24    10.0   .     S
V23     V22    10.0   1_545     S
V23     V22    10.0   1_655     S
V23     V21    10.0   1_655     S
V24     Er3    10.0   1_565     S
V24     Er1    10.0   1_665     S
V24     Er19    10.0   1_565     S
V24     V23    10.0   1_565     S
V24     V21    10.0   1_665     S
V24     V22    10.0   1_655     S
Er25     Er32    10.0   .     S
Er25     Er31    10.0   .     S
Er25     Er29    10.0   .     S
Er25     Er27    10.0   1_455     S
Er25     Er27    10.0   .     S
Er25     Er26    10.0   .     S
Er25     Er26    10.0   1_545     S
Er25     Er28    10.0   1_445     S
Er25     Er28    10.0   .     S
Er25     V35    10.0   .     S
Er25     V36    10.0   .     S
Er25     V33    10.0   .     S
Er26     Er31    10.0   1_565     S
Er26     Er32    10.0   .     S
Er26     Er30    10.0   .     S
Er26     Er28    10.0   1_455     S
Er26     Er28    10.0   .     S
Er26     Er25    10.0   1_565     S
Er26     Er27    10.0   1_455     S
Er26     Er27    10.0   1_565     S
Er26     V36    10.0   .     S
Er26     V35    10.0   1_565     S
Er26     V34    10.0   .     S
Er27     Er30    10.0   1_655     S
Er27     Er29    10.0   1_655     S
Er27     Er31    10.0   .     S
Er27     Er25    10.0   1_655     S
Er27     Er28    10.0   .     S
Er27     Er28    10.0   1_545     S
Er27     Er26    10.0   1_655     S
Er27     Er26    10.0   1_545     S
Er27     V33    10.0   1_655     S
Er27     V34    10.0   1_655     S
Er27     V35    10.0   .     S
Er28     Er29    10.0   1_665     S
Er28     Er30    10.0   1_655     S
Er28     Er32    10.0   .     S
Er28     Er26    10.0   1_655     S
Er28     Er27    10.0   1_565     S
Er28     Er25    10.0   1_665     S
Er28     V34    10.0   1_655     S
Er28     V33    10.0   1_665     S
Er28     V36    10.0   .     S
Er29     Er28    10.0   1_445     S
Er29     Er27    10.0   1_455     S
Er29     Er30    10.0   .     S
Er29     Er30    10.0   1_545     S
Er29     Er32    10.0   .     S
Er29     Er32    10.0   1_445     S
Er29     Er31    10.0   .     S
Er29     Er31    10.0   1_455     S
Er29     V11    10.0   1_455     S
Er29     V12    10.0   1_445     S
Er30     Er27    10.0   1_455     S
Er30     Er28    10.0   1_455     S
Er30     Er29    10.0   1_565     S
Er30     Er31    10.0   1_565     S
Er30     Er31    10.0   1_455     S
Er30     Er32    10.0   .     S
Er30     Er32    10.0   1_455     S
Er30     V12    10.0   1_455     S
Er30     V11    10.0   1_455     S
Er31     Er26    10.0   1_545     S
Er31     Er32    10.0   .     S
Er31     Er32    10.0   1_545     S
Er31     Er30    10.0   1_545     S
Er31     Er30    10.0   1_655     S
Er31     Er29    10.0   1_655     S
Er31     V10    10.0   1_545     S
Er32     Er31    10.0   1_565     S
Er32     Er29    10.0   1_665     S
Er32     Er30    10.0   1_655     S
V33     Er6    10.0   1_544     S
V33     Er5    10.0   1_554     S
V33     Er8    10.0   1_444     S
V33     Er27    10.0   1_455     S
V33     Er28    10.0   1_445     S
V33     V34    10.0   .     S
V33     V34    10.0   1_545     S
V33     V36    10.0   .     S
V33     V36    10.0   1_445     S
V33     V35    10.0   .     S
V33     V35    10.0   1_455     S
V34     Er5    10.0   1_554     S
V34     Er6    10.0   1_554     S
V34     Er7    10.0   1_454     S
V34     Er28    10.0   1_455     S
V34     Er27    10.0   1_455     S
V34     V33    10.0   1_565     S
V34     V35    10.0   1_565     S
V34     V35    10.0   1_455     S
V34     V36    10.0   .     S
V34     V36    10.0   1_455     S
V35     Er8    10.0   1_544     S
V35     Er7    10.0   1_554     S
V35     Er6    10.0   1_544     S
V35     Er26    10.0   1_545     S
V35     V36    10.0   .     S
V35     V36    10.0   1_545     S
V35     V34    10.0   1_545     S
V35     V34    10.0   1_655     S
V35     V33    10.0   1_655     S
V36     Er7    10.0   1_554     S
V36     Er8    10.0   1_554     S
V36     Er5    10.0   1_554     S
V36     V35    10.0   1_565     S
V36     V33    10.0   1_665     S
V36     V34    10.0   1_655     S
