data_teea
_audit_creation_date              2020-02-04
_audit_creation_method            'Pymatgen'
_symmetry_space_group_name_H-M    'P1'
_symmetry_Int_Tables_number       1
loop_
_symmetry_equiv_pos_as_xyz
  x,y,z
_cell_length_a                    70.0041
_cell_length_b                    70.0041
_cell_length_c                    110.944
_cell_angle_alpha                 90.0
_cell_angle_beta                 90.0
_cell_angle_gamma                 90.0
loop_
_atom_site_label
_atom_site_type_symbol
_atom_site_fract_x
_atom_site_fract_y
_atom_site_fract_z
Ce1     Ce     0.4286   0.4286   0.5451
Ce2     Ce     0.4286   0.5714   0.5451
Ce3     Ce     0.5714   0.4286   0.5451
Ce4     Ce     0.5714   0.5714   0.5451
V5     V     0.6236   0.6236   0.6223
V6     V     0.3764   0.6236   0.6223
V7     V     0.6236   0.3764   0.6223
V8     V     0.3764   0.3764   0.6223
Ce9     Ce     0.4286   0.4286   0.4549
Ce10     Ce     0.4286   0.5714   0.4549
Ce11     Ce     0.5714   0.5714   0.4549
Ce12     Ce     0.5714   0.4286   0.4549
V13     V     0.6236   0.6236   0.3777
V14     V     0.6236   0.3764   0.3777
V15     V     0.3764   0.6236   0.3777
V16     V     0.3764   0.3764   0.3777
Er17     Er     0.6208   0.7218   0.3123
Er18     Er     0.7218   0.6208   0.3123
Ti19     Ti     0.4286   0.8361   0.2681
Ti20     Ti     0.5714   0.8361   0.2681
Ti21     Ti     0.8361   0.5714   0.2681
Ti22     Ti     0.8361   0.4286   0.2681
Er23     Er     0.3792   0.7218   0.3123
Er24     Er     0.2782   0.6208   0.3123
Er25     Er     0.7218   0.3792   0.3123
Er26     Er     0.6208   0.2782   0.3123
Ti27     Ti     0.1639   0.4286   0.2681
Ti28     Ti     0.1639   0.5714   0.2681
Ti29     Ti     0.5714   0.1639   0.2681
Ti30     Ti     0.4286   0.1639   0.2681
Er31     Er     0.2782   0.3792   0.3123
Er32     Er     0.3792   0.2782   0.3123
Er33     Er     0.7782   0.8792   0.1877
Er34     Er     0.8792   0.7782   0.1877
Ti35     Ti     0.0714   0.6639   0.2319
Ti36     Ti     0.9286   0.6639   0.2319
Er37     Er     0.1208   0.7782   0.1877
Er38     Er     0.2218   0.8792   0.1877
Ti39     Ti     0.3361   0.0714   0.2319
Ti40     Ti     0.3361   0.9286   0.2319
Er41     Er     0.2218   0.1208   0.1877
Er42     Er     0.1208   0.2218   0.1877
Ti43     Ti     0.0714   0.3361   0.2319
Ti44     Ti     0.9286   0.3361   0.2319
Ti45     Ti     0.6639   0.0714   0.2319
Ti46     Ti     0.6639   0.9286   0.2319
Er47     Er     0.7782   0.1208   0.1877
Er48     Er     0.8792   0.2218   0.1877
Er49     Er     0.8792   0.7782   0.8123
Er50     Er     0.7782   0.8792   0.8123
Ti51     Ti     0.6639   0.0714   0.7681
Ti52     Ti     0.6639   0.9286   0.7681
Er53     Er     0.7782   0.1208   0.8123
Er54     Er     0.8792   0.2218   0.8123
Ti55     Ti     0.0714   0.3361   0.7681
Ti56     Ti     0.9286   0.3361   0.7681
Er57     Er     0.1208   0.2218   0.8123
Er58     Er     0.2218   0.1208   0.8123
Ti59     Ti     0.3361   0.0714   0.7681
Ti60     Ti     0.3361   0.9286   0.7681
Ti61     Ti     0.0714   0.6639   0.7681
Ti62     Ti     0.9286   0.6639   0.7681
Er63     Er     0.1208   0.7782   0.8123
Er64     Er     0.2218   0.8792   0.8123
Er65     Er     0.7218   0.6208   0.6877
Er66     Er     0.6208   0.7218   0.6877
Ti67     Ti     0.4286   0.8361   0.7319
Ti68     Ti     0.5714   0.8361   0.7319
Ti69     Ti     0.8361   0.4286   0.7319
Ti70     Ti     0.8361   0.5714   0.7319
Er71     Er     0.3792   0.7218   0.6877
Er72     Er     0.2782   0.6208   0.6877
Er73     Er     0.7218   0.3792   0.6877
Er74     Er     0.6208   0.2782   0.6877
Ti75     Ti     0.1639   0.4286   0.7319
Ti76     Ti     0.1639   0.5714   0.7319
Ti77     Ti     0.5714   0.1639   0.7319
Ti78     Ti     0.4286   0.1639   0.7319
Er79     Er     0.2782   0.3792   0.6877
Er80     Er     0.3792   0.2782   0.6877
Ce81     Ce     0.0714   0.9286   0.0451
Ce82     Ce     0.9286   0.9286   0.0451
Ce83     Ce     0.0714   0.0714   0.0451
Ce84     Ce     0.9286   0.0714   0.0451
V85     V     0.8764   0.8764   0.1223
V86     V     0.8764   0.1236   0.1223
V87     V     0.1236   0.8764   0.1223
V88     V     0.1236   0.1236   0.1223
Ce89     Ce     0.9286   0.9286   0.9549
Ce90     Ce     0.9286   0.0714   0.9549
Ce91     Ce     0.0714   0.0714   0.9549
Ce92     Ce     0.0714   0.9286   0.9549
V93     V     0.8764   0.8764   0.8777
V94     V     0.1236   0.8764   0.8777
V95     V     0.8764   0.1236   0.8777
V96     V     0.1236   0.1236   0.8777
loop_
_geom_bond_atom_site_label_1
_geom_bond_atom_site_label_2
_geom_bond_distance
_geom_bond_site_symmetry_2
_ccdc_geom_bond_type
Ce1     V8    10.0   .     S
Ce1     Ce2    9.999   .     S
Ce1     Ce3    9.999   .     S
Ce1     Ce9    10.0   .     S
Ce2     V6    10.0   .     S
Ce2     Ce4    9.999   .     S
Ce2     Ce10    10.0   .     S
Ce3     V7    10.0   .     S
Ce3     Ce4    9.999   .     S
Ce3     Ce12    10.0   .     S
Ce4     V5    10.0   .     S
Ce4     Ce11    10.0   .     S
V5     Er65    10.0   .     S
V5     Er66    10.0   .     S
V6     Er71    10.0   .     S
V6     Er72    10.0   .     S
V7     Er73    10.0   .     S
V7     Er74    10.0   .     S
V8     Er79    10.0   .     S
V8     Er80    10.0   .     S
Ce9     V16    10.0   .     S
Ce9     Ce10    9.999   .     S
Ce9     Ce12    9.999   .     S
Ce10     V15    10.0   .     S
Ce10     Ce11    9.999   .     S
Ce11     V13    10.0   .     S
Ce11     Ce12    9.999   .     S
Ce12     V14    10.0   .     S
V13     Er17    10.0   .     S
V13     Er18    10.0   .     S
V14     Er25    10.0   .     S
V14     Er26    10.0   .     S
V15     Er23    10.0   .     S
V15     Er24    10.0   .     S
V16     Er31    10.0   .     S
V16     Er32    10.0   .     S
Er17     Er18    10.0   .     S
Er17     Ti20    10.0   .     S
Er18     Ti21    10.0   .     S
Ti19     Ti20    9.999   .     S
Ti19     Er23    10.0   .     S
Ti19     Ti40    10.0   .     S
Ti20     Ti46    10.0   .     S
Ti21     Ti22    9.999   .     S
Ti21     Ti36    10.0   .     S
Ti22     Er25    10.0   .     S
Ti22     Ti44    10.0   .     S
Er23     Er24    10.0   .     S
Er24     Ti28    10.0   .     S
Er25     Er26    10.0   .     S
Er26     Ti29    10.0   .     S
Ti27     Ti28    9.999   .     S
Ti27     Er31    10.0   .     S
Ti27     Ti43    10.0   .     S
Ti28     Ti35    10.0   .     S
Ti29     Ti30    9.999   .     S
Ti29     Ti45    10.0   .     S
Ti30     Er32    10.0   .     S
Ti30     Ti39    10.0   .     S
Er31     Er32    10.0   .     S
Er33     V85    10.0   .     S
Er33     Er34    10.0   .     S
Er33     Ti46    10.0   .     S
Er34     V85    10.0   .     S
Er34     Ti36    10.0   .     S
Ti35     Ti36    9.999   1_455     S
Ti35     Er37    10.0   .     S
Ti36     Ti35    9.999   1_655     S
Er37     V87    10.0   .     S
Er37     Er38    10.0   .     S
Er38     V87    10.0   .     S
Er38     Ti40    10.0   .     S
Ti39     Ti40    9.999   1_545     S
Ti39     Er41    10.0   .     S
Ti40     Ti39    9.999   1_565     S
Er41     V88    10.0   .     S
Er41     Er42    10.0   .     S
Er42     V88    10.0   .     S
Er42     Ti43    10.0   .     S
Ti43     Ti44    9.999   1_455     S
Ti44     Ti43    9.999   1_655     S
Ti44     Er48    10.0   .     S
Ti45     Ti46    9.999   1_545     S
Ti45     Er47    10.0   .     S
Ti46     Ti45    9.999   1_565     S
Er47     V86    10.0   .     S
Er47     Er48    10.0   .     S
Er48     V86    10.0   .     S
Er49     V93    10.0   .     S
Er49     Er50    10.0   .     S
Er49     Ti62    10.0   .     S
Er50     V93    10.0   .     S
Er50     Ti52    10.0   .     S
Ti51     Ti52    9.999   1_545     S
Ti51     Er53    10.0   .     S
Ti51     Ti77    10.0   .     S
Ti52     Ti51    9.999   1_565     S
Ti52     Ti68    10.0   .     S
Er53     V95    10.0   .     S
Er53     Er54    10.0   .     S
Er54     V95    10.0   .     S
Er54     Ti56    10.0   .     S
Ti55     Ti56    9.999   1_455     S
Ti55     Er57    10.0   .     S
Ti55     Ti75    10.0   .     S
Ti56     Ti55    9.999   1_655     S
Ti56     Ti69    10.0   .     S
Er57     V96    10.0   .     S
Er57     Er58    10.0   .     S
Er58     V96    10.0   .     S
Er58     Ti59    10.0   .     S
Ti59     Ti60    9.999   1_545     S
Ti59     Ti78    10.0   .     S
Ti60     Ti59    9.999   1_565     S
Ti60     Er64    10.0   .     S
Ti60     Ti67    10.0   .     S
Ti61     Ti62    9.999   1_455     S
Ti61     Er63    10.0   .     S
Ti61     Ti76    10.0   .     S
Ti62     Ti61    9.999   1_655     S
Ti62     Ti70    10.0   .     S
Er63     V94    10.0   .     S
Er63     Er64    10.0   .     S
Er64     V94    10.0   .     S
Er65     Er66    10.0   .     S
Er65     Ti70    10.0   .     S
Er66     Ti68    10.0   .     S
Ti67     Ti68    9.999   .     S
Ti67     Er71    10.0   .     S
Ti69     Ti70    9.999   .     S
Ti69     Er73    10.0   .     S
Er71     Er72    10.0   .     S
Er72     Ti76    10.0   .     S
Er73     Er74    10.0   .     S
Er74     Ti77    10.0   .     S
Ti75     Ti76    9.999   .     S
Ti75     Er79    10.0   .     S
Ti77     Ti78    9.999   .     S
Ti78     Er80    10.0   .     S
Er79     Er80    10.0   .     S
Ce81     V87    10.0   .     S
Ce81     Ce82    9.999   1_455     S
Ce81     Ce83    9.999   1_565     S
Ce81     Ce92    10.0   1_554     S
Ce82     Ce81    9.999   1_655     S
Ce82     V85    10.0   .     S
Ce82     Ce84    9.999   1_565     S
Ce82     Ce89    10.0   1_554     S
Ce83     V88    10.0   .     S
Ce83     Ce81    9.999   1_545     S
Ce83     Ce84    9.999   1_455     S
Ce83     Ce91    10.0   1_554     S
Ce84     Ce83    9.999   1_655     S
Ce84     V86    10.0   .     S
Ce84     Ce82    9.999   1_545     S
Ce84     Ce90    10.0   1_554     S
Ce89     V93    10.0   .     S
Ce89     Ce90    9.999   1_565     S
Ce89     Ce92    9.999   1_655     S
Ce89     Ce82    10.0   1_556     S
Ce90     V95    10.0   .     S
Ce90     Ce89    9.999   1_545     S
Ce90     Ce91    9.999   1_655     S
Ce90     Ce84    10.0   1_556     S
Ce91     V96    10.0   .     S
Ce91     Ce92    9.999   1_545     S
Ce91     Ce90    9.999   1_455     S
Ce91     Ce83    10.0   1_556     S
Ce92     Ce91    9.999   1_565     S
Ce92     V94    10.0   .     S
Ce92     Ce89    9.999   1_455     S
Ce92     Ce81    10.0   1_556     S
