data_teo
_audit_creation_date              2020-02-04
_audit_creation_method            'Pymatgen'
_symmetry_space_group_name_H-M    'P1'
_symmetry_Int_Tables_number       1
loop_
_symmetry_equiv_pos_as_xyz
  x,y,z
_cell_length_a                    28.142
_cell_length_b                    28.142
_cell_length_c                    28.142
_cell_angle_alpha                 90.0
_cell_angle_beta                 90.0
_cell_angle_gamma                 90.0
loop_
_atom_site_label
_atom_site_type_symbol
_atom_site_fract_x
_atom_site_fract_y
_atom_site_fract_z
V1     V     0.75   0.5469   0.0
V2     V     0.7969   0.5   0.75
V3     V     0.7031   0.5   0.25
V4     V     0.75   0.4531   0.5
V5     V     0.25   0.0469   0.5
V6     V     0.2969   0.0   0.25
V7     V     0.2031   0.0   0.75
V8     V     0.25   0.9531   0.0
V9     V     0.5   0.75   0.4531
V10     V     0.0   0.75   0.5469
V11     V     0.75   0.7969   0.5
V12     V     0.25   0.7031   0.5
V13     V     0.4531   0.5   0.75
V14     V     0.5   0.25   0.7031
V15     V     0.5469   0.0   0.75
V16     V     0.5   0.75   0.7969
V17     V     0.5   0.25   0.0469
V18     V     0.75   0.2031   0.0
V19     V     0.0   0.25   0.9531
V20     V     0.25   0.2969   0.0
V21     V     0.0   0.75   0.2031
V22     V     0.9531   0.0   0.25
V23     V     0.0469   0.5   0.25
V24     V     0.0   0.25   0.2969
loop_
_geom_bond_atom_site_label_1
_geom_bond_atom_site_label_2
_geom_bond_distance
_geom_bond_site_symmetry_2
_ccdc_geom_bond_type
V1     V2    7.279   1_554     S
V1     V3    7.279   .     S
V1     V21    10.716   1_655     S
V1     V16    10.716   1_554     S
V1     V23    11.003   1_655     S
V1     V13    11.003   1_554     S
V1     V19    11.003   1_654     S
V1     V17    11.003   .     S
V2     V1    7.279   1_556     S
V2     V4    7.279   .     S
V2     V10    10.716   1_655     S
V2     V19    10.716   1_655     S
V2     V14    11.003   .     S
V2     V11    11.003   .     S
V2     V16    11.003   .     S
V2     V18    11.003   1_556     S
V3     V4    7.279   .     S
V3     V9    10.716   .     S
V3     V17    10.716   .     S
V3     V24    11.003   1_655     S
V3     V11    11.003   .     S
V3     V21    11.003   1_655     S
V3     V18    11.003   .     S
V4     V14    10.716   .     S
V4     V24    10.716   1_655     S
V4     V13    11.003   .     S
V4     V10    11.003   1_655     S
V4     V23    11.003   1_655     S
V4     V9    11.003   .     S
V5     V6    7.279   .     S
V5     V7    7.279   .     S
V5     V14    10.716   .     S
V5     V24    10.716   .     S
V5     V9    11.003   1_545     S
V5     V15    11.003   .     S
V5     V10    11.003   1_545     S
V5     V22    11.003   1_455     S
V6     V8    7.279   1_545     S
V6     V17    10.716   .     S
V6     V9    10.716   1_545     S
V6     V20    11.003   .     S
V6     V12    11.003   1_545     S
V6     V21    11.003   1_545     S
V6     V24    11.003   .     S
V7     V8    7.279   1_546     S
V7     V19    10.716   .     S
V7     V10    10.716   1_545     S
V7     V20    11.003   1_556     S
V7     V16    11.003   1_545     S
V7     V14    11.003   .     S
V7     V12    11.003   1_545     S
V8     V6    7.279   1_565     S
V8     V7    7.279   1_564     S
V8     V21    10.716   .     S
V8     V16    10.716   1_554     S
V8     V17    11.003   1_565     S
V8     V19    11.003   1_564     S
V8     V22    11.003   1_465     S
V8     V15    11.003   1_564     S
V9     V12    7.279   .     S
V9     V11    7.279   .     S
V9     V6    10.716   1_565     S
V9     V5    11.003   1_565     S
V9     V13    11.003   .     S
V9     V15    11.003   1_565     S
V10     V11    7.279   1_455     S
V10     V12    7.279   .     S
V10     V2    10.716   1_455     S
V10     V7    10.716   1_565     S
V10     V22    11.003   1_465     S
V10     V4    11.003   1_455     S
V10     V5    11.003   1_565     S
V10     V23    11.003   .     S
V11     V10    7.279   1_655     S
V11     V22    10.716   1_565     S
V11     V15    10.716   1_565     S
V11     V21    11.003   1_655     S
V11     V16    11.003   .     S
V12     V13    10.716   .     S
V12     V23    10.716   .     S
V12     V6    11.003   1_565     S
V12     V7    11.003   1_565     S
V12     V16    11.003   .     S
V12     V21    11.003   .     S
V13     V14    7.279   .     S
V13     V16    7.279   .     S
V13     V20    10.716   1_556     S
V13     V1    11.003   1_556     S
V13     V17    11.003   1_556     S
V14     V15    7.279   .     S
V14     V20    11.003   1_556     S
V14     V18    11.003   1_556     S
V15     V16    7.279   1_545     S
V15     V11    10.716   1_545     S
V15     V18    10.716   1_556     S
V15     V8    11.003   1_546     S
V15     V9    11.003   1_545     S
V15     V17    11.003   1_556     S
V16     V15    7.279   1_565     S
V16     V1    10.716   1_556     S
V16     V8    10.716   1_556     S
V16     V7    11.003   1_565     S
V17     V20    7.279   .     S
V17     V18    7.279   .     S
V17     V8    11.003   1_545     S
V17     V13    11.003   1_554     S
V17     V15    11.003   1_554     S
V18     V19    7.279   1_654     S
V18     V15    10.716   1_554     S
V18     V22    10.716   .     S
V18     V2    11.003   1_554     S
V18     V14    11.003   1_554     S
V18     V24    11.003   1_655     S
V19     V18    7.279   1_456     S
V19     V20    7.279   1_556     S
V19     V2    10.716   1_455     S
V19     V8    11.003   1_546     S
V19     V23    11.003   1_556     S
V19     V1    11.003   1_456     S
V19     V22    11.003   1_456     S
V20     V19    7.279   1_554     S
V20     V13    10.716   1_554     S
V20     V23    10.716   .     S
V20     V7    11.003   1_554     S
V20     V14    11.003   1_554     S
V20     V24    11.003   .     S
V21     V22    7.279   1_465     S
V21     V23    7.279   .     S
V21     V1    10.716   1_455     S
V21     V11    11.003   1_455     S
V21     V3    11.003   1_455     S
V21     V6    11.003   1_565     S
V22     V21    7.279   1_645     S
V22     V24    7.279   1_655     S
V22     V11    10.716   1_545     S
V22     V10    11.003   1_645     S
V22     V8    11.003   1_645     S
V22     V5    11.003   1_655     S
V22     V19    11.003   1_654     S
V23     V24    7.279   .     S
V23     V4    11.003   1_455     S
V23     V1    11.003   1_455     S
V23     V19    11.003   1_554     S
V24     V22    7.279   1_455     S
V24     V4    10.716   1_455     S
V24     V3    11.003   1_455     S
V24     V18    11.003   1_455     S
