data_tfb
_audit_creation_date              2020-02-04
_audit_creation_method            'Pymatgen'
_symmetry_space_group_name_H-M    'P1'
_symmetry_Int_Tables_number       1
loop_
_symmetry_equiv_pos_as_xyz
  x,y,z
_cell_length_a                    54.1419
_cell_length_b                    54.1419
_cell_length_c                    54.1419
_cell_angle_alpha                 90.0
_cell_angle_beta                 90.0
_cell_angle_gamma                 90.0
loop_
_atom_site_label
_atom_site_type_symbol
_atom_site_fract_x
_atom_site_fract_y
_atom_site_fract_z
V1     V     0.5   0.8153   0.6847
V2     V     0.5   0.6847   0.8153
V3     V     0.8153   0.6847   0.5
V4     V     0.6847   0.8153   0.5
V5     V     0.8153   0.5   0.6847
V6     V     0.6847   0.5   0.8153
V7     V     0.8153   0.8153   0.0
V8     V     0.6847   0.6847   0.0
V9     V     0.8153   0.0   0.8153
V10     V     0.6847   0.0   0.6847
V11     V     0.0   0.8153   0.8153
V12     V     0.0   0.6847   0.6847
V13     V     0.5   0.1847   0.6847
V14     V     0.5   0.3153   0.8153
Er15     Er     0.5   0.0   0.684
V16     V     0.0   0.1847   0.8153
V17     V     0.0   0.3153   0.6847
V18     V     0.1847   0.0   0.8153
V19     V     0.3153   0.0   0.6847
Er20     Er     0.0   0.0   0.816
V21     V     0.1847   0.5   0.6847
V22     V     0.3153   0.5   0.8153
Er23     Er     0.0   0.5   0.684
Er24     Er     0.5   0.5   0.816
V25     V     0.5   0.6847   0.1847
V26     V     0.5   0.8153   0.3153
Er27     Er     0.5   0.684   0.0
V28     V     0.1847   0.8153   0.0
V29     V     0.3153   0.6847   0.0
V30     V     0.0   0.8153   0.1847
V31     V     0.0   0.6847   0.3153
Er32     Er     0.0   0.816   0.0
V33     V     0.1847   0.6847   0.5
V34     V     0.3153   0.8153   0.5
Er35     Er     0.0   0.684   0.5
Er36     Er     0.5   0.816   0.5
V37     V     0.5   0.1847   0.3153
V38     V     0.5   0.3153   0.1847
Er39     Er     0.5   0.0   0.316
Er40     Er     0.5   0.316   0.0
V41     V     0.1847   0.3153   0.5
V42     V     0.3153   0.1847   0.5
Er43     Er     0.0   0.316   0.5
Er44     Er     0.316   0.0   0.5
V45     V     0.1847   0.1847   0.0
V46     V     0.3153   0.3153   0.0
V47     V     0.1847   0.0   0.1847
V48     V     0.3153   0.0   0.3153
V49     V     0.0   0.1847   0.1847
V50     V     0.0   0.3153   0.3153
Er51     Er     0.0   0.0   0.184
Er52     Er     0.184   0.0   0.0
Er53     Er     0.0   0.184   0.0
V54     V     0.1847   0.5   0.3153
V55     V     0.3153   0.5   0.1847
Er56     Er     0.0   0.5   0.316
Er57     Er     0.316   0.5   0.0
Er58     Er     0.184   0.5   0.5
Er59     Er     0.5   0.184   0.5
Er60     Er     0.5   0.5   0.184
V61     V     0.6847   0.5   0.1847
V62     V     0.8153   0.5   0.3153
Er63     Er     0.684   0.5   0.0
V64     V     0.8153   0.1847   0.0
V65     V     0.6847   0.3153   0.0
V66     V     0.8153   0.0   0.1847
V67     V     0.6847   0.0   0.3153
Er68     Er     0.816   0.0   0.0
V69     V     0.6847   0.1847   0.5
V70     V     0.8153   0.3153   0.5
Er71     Er     0.684   0.0   0.5
Er72     Er     0.816   0.5   0.5
loop_
_geom_bond_atom_site_label_1
_geom_bond_atom_site_label_2
_geom_bond_distance
_geom_bond_site_symmetry_2
_ccdc_geom_bond_type
V1     V2    10.0   .     S
V1     Er15    10.0   1_565     S
V1     Er36    10.0   .     S
V2     Er24    10.0   .     S
V2     Er27    10.0   1_556     S
V3     V4    10.0   .     S
V3     Er35    10.0   1_655     S
V3     Er72    10.0   .     S
V4     Er36    10.0   .     S
V4     Er71    10.0   1_565     S
V5     V6    10.0   .     S
V5     Er23    10.0   1_655     S
V5     Er72    10.0   .     S
V6     Er24    10.0   .     S
V6     Er63    10.0   1_556     S
V7     V8    10.0   .     S
V7     Er68    10.0   1_565     S
V7     Er32    10.0   1_655     S
V8     Er27    10.0   .     S
V8     Er63    10.0   .     S
V9     V10    10.0   .     S
V9     Er20    10.0   1_655     S
V9     Er68    10.0   1_556     S
V10     Er15    10.0   .     S
V10     Er71    10.0   .     S
V11     V12    10.0   .     S
V11     Er20    10.0   1_565     S
V11     Er32    10.0   1_556     S
V12     Er23    10.0   .     S
V12     Er35    10.0   .     S
V13     V14    10.0   .     S
V13     Er59    10.0   .     S
V13     Er15    10.0   .     S
V14     Er24    10.0   .     S
V14     Er40    10.0   1_556     S
Er15     V1    10.0   1_545     S
Er15     V19    10.0   .     S
V16     V17    10.0   .     S
V16     Er53    10.0   1_556     S
V16     Er20    10.0   .     S
V17     Er23    10.0   .     S
V17     Er43    10.0   .     S
V18     V19    10.0   .     S
V18     Er52    10.0   1_556     S
V18     Er20    10.0   .     S
V19     Er44    10.0   .     S
Er20     V9    10.0   1_455     S
Er20     V11    10.0   1_545     S
V21     V22    10.0   .     S
V21     Er58    10.0   .     S
V21     Er23    10.0   .     S
V22     Er24    10.0   .     S
V22     Er57    10.0   1_556     S
Er23     V5    10.0   1_455     S
V25     V26    10.0   .     S
V25     Er60    10.0   .     S
V25     Er27    10.0   .     S
V26     Er39    10.0   1_565     S
V26     Er36    10.0   .     S
Er27     V2    10.0   1_554     S
Er27     V29    10.0   .     S
V28     V29    10.0   .     S
V28     Er52    10.0   1_565     S
V28     Er32    10.0   .     S
V29     Er57    10.0   .     S
V30     V31    10.0   .     S
V30     Er51    10.0   1_565     S
V30     Er32    10.0   .     S
V31     Er56    10.0   .     S
V31     Er35    10.0   .     S
Er32     V7    10.0   1_455     S
Er32     V11    10.0   1_554     S
V33     V34    10.0   .     S
V33     Er58    10.0   .     S
V33     Er35    10.0   .     S
V34     Er44    10.0   1_565     S
V34     Er36    10.0   .     S
Er35     V3    10.0   1_455     S
V37     V38    10.0   .     S
V37     Er59    10.0   .     S
V37     Er39    10.0   .     S
V38     Er60    10.0   .     S
V38     Er40    10.0   .     S
Er39     V26    10.0   1_545     S
Er39     V48    10.0   .     S
Er39     V67    10.0   .     S
Er40     V14    10.0   1_554     S
Er40     V46    10.0   .     S
Er40     V65    10.0   .     S
V41     V42    10.0   .     S
V41     Er58    10.0   .     S
V41     Er43    10.0   .     S
V42     Er59    10.0   .     S
V42     Er44    10.0   .     S
Er43     V50    10.0   .     S
Er43     V70    10.0   1_455     S
Er44     V34    10.0   1_545     S
Er44     V48    10.0   .     S
V45     V46    10.0   .     S
V45     Er53    10.0   .     S
V45     Er52    10.0   .     S
V46     Er57    10.0   .     S
V47     V48    10.0   .     S
V47     Er51    10.0   .     S
V47     Er52    10.0   .     S
V49     V50    10.0   .     S
V49     Er51    10.0   .     S
V49     Er53    10.0   .     S
V50     Er56    10.0   .     S
Er51     V30    10.0   1_545     S
Er51     V66    10.0   1_455     S
Er52     V18    10.0   1_554     S
Er52     V28    10.0   1_545     S
Er53     V16    10.0   1_554     S
Er53     V64    10.0   1_455     S
V54     V55    10.0   .     S
V54     Er58    10.0   .     S
V54     Er56    10.0   .     S
V55     Er60    10.0   .     S
V55     Er57    10.0   .     S
Er56     V62    10.0   1_455     S
Er57     V22    10.0   1_554     S
Er59     V69    10.0   .     S
Er60     V61    10.0   .     S
V61     V62    10.0   .     S
V61     Er63    10.0   .     S
V62     Er56    10.0   1_655     S
V62     Er72    10.0   .     S
Er63     V6    10.0   1_554     S
Er63     V65    10.0   .     S
V64     V65    10.0   .     S
V64     Er53    10.0   1_655     S
V64     Er68    10.0   .     S
V66     V67    10.0   .     S
V66     Er51    10.0   1_655     S
V66     Er68    10.0   .     S
V67     Er71    10.0   .     S
Er68     V7    10.0   1_545     S
Er68     V9    10.0   1_554     S
V69     V70    10.0   .     S
V69     Er71    10.0   .     S
V70     Er72    10.0   .     S
V70     Er43    10.0   1_655     S
Er71     V4    10.0   1_545     S
