data_tfba
_audit_creation_date              2020-02-04
_audit_creation_method            'Pymatgen'
_symmetry_space_group_name_H-M    'P1'
_symmetry_Int_Tables_number       1
loop_
_symmetry_equiv_pos_as_xyz
  x,y,z
_cell_length_a                    121.0633
_cell_length_b                    121.0633
_cell_length_c                    121.0633
_cell_angle_alpha                 90.0
_cell_angle_beta                 90.0
_cell_angle_gamma                 90.0
loop_
_atom_site_label
_atom_site_type_symbol
_atom_site_fract_x
_atom_site_fract_y
_atom_site_fract_z
V1     V     0.7208   0.7208   0.0
V2     V     0.7792   0.7792   0.0
V3     V     0.7208   0.0   0.7208
V4     V     0.7792   0.0   0.7792
V5     V     0.0   0.7208   0.7208
V6     V     0.0   0.7792   0.7792
V7     V     0.7208   0.2792   0.0
V8     V     0.7792   0.2208   0.0
V9     V     0.2792   0.7208   0.0
V10     V     0.2208   0.7792   0.0
V11     V     0.2792   0.2792   0.0
V12     V     0.2208   0.2208   0.0
V13     V     0.0   0.2792   0.7208
V14     V     0.0   0.2208   0.7792
V15     V     0.2792   0.0   0.7208
V16     V     0.2208   0.0   0.7792
V17     V     0.2792   0.0   0.2792
V18     V     0.2208   0.0   0.2208
V19     V     0.0   0.7208   0.2792
V20     V     0.0   0.7792   0.2208
V21     V     0.7208   0.0   0.2792
V22     V     0.7792   0.0   0.2208
V23     V     0.0   0.2792   0.2792
V24     V     0.0   0.2208   0.2208
Ti25     Ti     0.0   0.8006   0.141
Er26     Er     0.0   0.8003   0.0584
Ti27     Ti     0.141   0.8006   0.0
Er28     Er     0.0584   0.8003   0.0
Ti29     Ti     0.0   0.141   0.8006
Er30     Er     0.0   0.0584   0.8003
Ti31     Ti     0.141   0.0   0.8006
Er32     Er     0.0584   0.0   0.8003
Ti33     Ti     0.859   0.8006   0.0
Er34     Er     0.9416   0.8003   0.0
Ti35     Ti     0.0   0.8006   0.859
Er36     Er     0.0   0.8003   0.9416
Ti37     Ti     0.0   0.859   0.8006
Er38     Er     0.0   0.9416   0.8003
Ti39     Ti     0.859   0.0   0.8006
Er40     Er     0.9416   0.0   0.8003
Ti41     Ti     0.8006   0.859   0.0
Er42     Er     0.8003   0.9416   0.0
Ti43     Ti     0.8006   0.0   0.859
Er44     Er     0.8003   0.0   0.9416
Ti45     Ti     0.8006   0.141   0.0
Er46     Er     0.8003   0.0584   0.0
Ti47     Ti     0.8006   0.0   0.141
Er48     Er     0.8003   0.0   0.0584
Ti49     Ti     0.0   0.1994   0.859
Er50     Er     0.0   0.1997   0.9416
Ti51     Ti     0.859   0.1994   0.0
Er52     Er     0.9416   0.1997   0.0
Ti53     Ti     0.1994   0.859   0.0
Er54     Er     0.1997   0.9416   0.0
Ti55     Ti     0.1994   0.0   0.859
Er56     Er     0.1997   0.0   0.9416
Ti57     Ti     0.859   0.0   0.1994
Er58     Er     0.9416   0.0   0.1997
Ti59     Ti     0.0   0.859   0.1994
Er60     Er     0.0   0.9416   0.1997
Ti61     Ti     0.1994   0.141   0.0
Er62     Er     0.1997   0.0584   0.0
Ti63     Ti     0.141   0.1994   0.0
Er64     Er     0.0584   0.1997   0.0
Ti65     Ti     0.1994   0.0   0.141
Er66     Er     0.1997   0.0   0.0584
Ti67     Ti     0.141   0.0   0.1994
Er68     Er     0.0584   0.0   0.1997
Ti69     Ti     0.0   0.1994   0.141
Er70     Er     0.0   0.1997   0.0584
Ti71     Ti     0.0   0.141   0.1994
Er72     Er     0.0   0.0584   0.1997
V73     V     0.5   0.7792   0.7208
V74     V     0.5   0.7208   0.7792
V75     V     0.7792   0.7208   0.5
V76     V     0.7208   0.7792   0.5
V77     V     0.7792   0.5   0.7208
V78     V     0.7208   0.5   0.7792
V79     V     0.2208   0.5   0.7208
V80     V     0.2792   0.5   0.7792
V81     V     0.5   0.2208   0.7208
V82     V     0.5   0.2792   0.7792
Ti83     Ti     0.641   0.5   0.8006
Er84     Er     0.5584   0.5   0.8003
Ti85     Ti     0.5   0.641   0.8006
Er86     Er     0.5   0.5584   0.8003
Ti87     Ti     0.6994   0.5   0.859
Er88     Er     0.6997   0.5   0.9416
Ti89     Ti     0.6994   0.641   0.0
Er90     Er     0.6997   0.5584   0.0
Ti91     Ti     0.5   0.6994   0.859
Er92     Er     0.5   0.6997   0.9416
Ti93     Ti     0.641   0.6994   0.0
Er94     Er     0.5584   0.6997   0.0
Ti95     Ti     0.641   0.5   0.1994
Er96     Er     0.5584   0.5   0.1997
Ti97     Ti     0.5   0.641   0.1994
Er98     Er     0.5   0.5584   0.1997
Ti99     Ti     0.359   0.3006   0.0
Er100     Er     0.4416   0.3003   0.0
Ti101     Ti     0.3006   0.359   0.0
Er102     Er     0.3003   0.4416   0.0
Ti103     Ti     0.5   0.359   0.1994
Er104     Er     0.5   0.4416   0.1997
Ti105     Ti     0.5   0.3006   0.141
Er106     Er     0.5   0.3003   0.0584
Ti107     Ti     0.359   0.5   0.1994
Er108     Er     0.4416   0.5   0.1997
Ti109     Ti     0.3006   0.5   0.141
Er110     Er     0.3003   0.5   0.0584
Ti111     Ti     0.5   0.6994   0.141
Er112     Er     0.5   0.6997   0.0584
Ti113     Ti     0.359   0.6994   0.0
Er114     Er     0.4416   0.6997   0.0
Ti115     Ti     0.6994   0.359   0.0
Er116     Er     0.6997   0.4416   0.0
Ti117     Ti     0.641   0.3006   0.0
Er118     Er     0.5584   0.3003   0.0
Ti119     Ti     0.5   0.3006   0.859
Er120     Er     0.5   0.3003   0.9416
Ti121     Ti     0.5   0.359   0.8006
Er122     Er     0.5   0.4416   0.8003
Ti123     Ti     0.359   0.5   0.8006
Er124     Er     0.4416   0.5   0.8003
Ti125     Ti     0.3006   0.5   0.859
Er126     Er     0.3003   0.5   0.9416
Ti127     Ti     0.3006   0.641   0.0
Er128     Er     0.3003   0.5584   0.0
Ti129     Ti     0.6994   0.5   0.141
Er130     Er     0.6997   0.5   0.0584
V131     V     0.2208   0.7208   0.5
V132     V     0.2792   0.7792   0.5
V133     V     0.5   0.2208   0.2792
V134     V     0.5   0.2792   0.2208
V135     V     0.5   0.7208   0.2208
V136     V     0.5   0.7792   0.2792
Ti137     Ti     0.5   0.8006   0.641
Er138     Er     0.5   0.8003   0.5584
Ti139     Ti     0.641   0.8006   0.5
Er140     Er     0.5584   0.8003   0.5
Ti141     Ti     0.6994   0.859   0.5
Er142     Er     0.6997   0.9416   0.5
Ti143     Ti     0.6994   0.0   0.641
Er144     Er     0.6997   0.0   0.5584
Ti145     Ti     0.5   0.859   0.6994
Er146     Er     0.5   0.9416   0.6997
Ti147     Ti     0.641   0.0   0.6994
Er148     Er     0.5584   0.0   0.6997
Ti149     Ti     0.641   0.1994   0.5
Er150     Er     0.5584   0.1997   0.5
Ti151     Ti     0.5   0.1994   0.641
Er152     Er     0.5   0.1997   0.5584
Ti153     Ti     0.3006   0.0   0.359
Er154     Er     0.3003   0.0   0.4416
Ti155     Ti     0.359   0.0   0.3006
Er156     Er     0.4416   0.0   0.3003
Ti157     Ti     0.5   0.1994   0.359
Er158     Er     0.5   0.1997   0.4416
Ti159     Ti     0.5   0.141   0.3006
Er160     Er     0.5   0.0584   0.3003
Ti161     Ti     0.359   0.1994   0.5
Er162     Er     0.4416   0.1997   0.5
Ti163     Ti     0.3006   0.141   0.5
Er164     Er     0.3003   0.0584   0.5
Ti165     Ti     0.6994   0.141   0.5
Er166     Er     0.6997   0.0584   0.5
Ti167     Ti     0.6994   0.0   0.359
Er168     Er     0.6997   0.0   0.4416
Ti169     Ti     0.359   0.0   0.6994
Er170     Er     0.4416   0.0   0.6997
Ti171     Ti     0.3006   0.0   0.641
Er172     Er     0.3003   0.0   0.5584
Ti173     Ti     0.3006   0.859   0.5
Er174     Er     0.3003   0.9416   0.5
Ti175     Ti     0.359   0.8006   0.5
Er176     Er     0.4416   0.8003   0.5
Ti177     Ti     0.5   0.8006   0.359
Er178     Er     0.5   0.8003   0.4416
Ti179     Ti     0.5   0.859   0.3006
Er180     Er     0.5   0.9416   0.3003
Ti181     Ti     0.641   0.0   0.3006
Er182     Er     0.5584   0.0   0.3003
Ti183     Ti     0.5   0.141   0.6994
Er184     Er     0.5   0.0584   0.6997
V185     V     0.7208   0.2208   0.5
V186     V     0.7792   0.2792   0.5
V187     V     0.2208   0.2792   0.5
V188     V     0.2792   0.2208   0.5
V189     V     0.7208   0.5   0.2208
V190     V     0.7792   0.5   0.2792
V191     V     0.2208   0.5   0.2792
V192     V     0.2792   0.5   0.2208
Ti193     Ti     0.8006   0.5   0.641
Er194     Er     0.8003   0.5   0.5584
Ti195     Ti     0.8006   0.641   0.5
Er196     Er     0.8003   0.5584   0.5
Ti197     Ti     0.859   0.6994   0.5
Er198     Er     0.9416   0.6997   0.5
Ti199     Ti     0.0   0.6994   0.641
Er200     Er     0.0   0.6997   0.5584
Ti201     Ti     0.859   0.5   0.6994
Er202     Er     0.9416   0.5   0.6997
Ti203     Ti     0.0   0.641   0.6994
Er204     Er     0.0   0.5584   0.6997
Ti205     Ti     0.1994   0.641   0.5
Er206     Er     0.1997   0.5584   0.5
Ti207     Ti     0.1994   0.5   0.641
Er208     Er     0.1997   0.5   0.5584
Ti209     Ti     0.0   0.3006   0.359
Er210     Er     0.0   0.3003   0.4416
Ti211     Ti     0.0   0.359   0.3006
Er212     Er     0.0   0.4416   0.3003
Ti213     Ti     0.1994   0.359   0.5
Er214     Er     0.1997   0.4416   0.5
Ti215     Ti     0.141   0.3006   0.5
Er216     Er     0.0584   0.3003   0.5
Ti217     Ti     0.1994   0.5   0.359
Er218     Er     0.1997   0.5   0.4416
Ti219     Ti     0.141   0.5   0.3006
Er220     Er     0.0584   0.5   0.3003
Ti221     Ti     0.141   0.6994   0.5
Er222     Er     0.0584   0.6997   0.5
Ti223     Ti     0.0   0.359   0.6994
Er224     Er     0.0   0.4416   0.6997
Ti225     Ti     0.0   0.3006   0.641
Er226     Er     0.0   0.3003   0.5584
Ti227     Ti     0.859   0.3006   0.5
Er228     Er     0.9416   0.3003   0.5
Ti229     Ti     0.8006   0.359   0.5
Er230     Er     0.8003   0.4416   0.5
Ti231     Ti     0.8006   0.5   0.359
Er232     Er     0.8003   0.5   0.4416
Ti233     Ti     0.0   0.6994   0.359
Er234     Er     0.0   0.6997   0.4416
Ti235     Ti     0.859   0.5   0.3006
Er236     Er     0.9416   0.5   0.3003
Ti237     Ti     0.0   0.641   0.3006
Er238     Er     0.0   0.5584   0.3003
Ti239     Ti     0.141   0.5   0.6994
Er240     Er     0.0584   0.5   0.6997
loop_
_geom_bond_atom_site_label_1
_geom_bond_atom_site_label_2
_geom_bond_distance
_geom_bond_site_symmetry_2
_ccdc_geom_bond_type
V1     V2    9.999   .     S
V1     Ti89    10.0   .     S
V1     Ti93    10.0   .     S
V2     Ti33    10.0   .     S
V2     Ti41    10.0   .     S
V3     V4    9.999   .     S
V3     Ti143    10.0   .     S
V3     Ti147    10.0   .     S
V4     Ti39    10.0   .     S
V4     Ti43    10.0   .     S
V5     V6    9.999   .     S
V5     Ti199    10.0   .     S
V5     Ti203    10.0   .     S
V6     Ti35    10.0   .     S
V6     Ti37    10.0   .     S
V7     V8    9.999   .     S
V7     Ti115    10.0   .     S
V7     Ti117    10.0   .     S
V8     Ti45    10.0   .     S
V8     Ti51    10.0   .     S
V9     V10    9.999   .     S
V9     Ti113    10.0   .     S
V9     Ti127    10.0   .     S
V10     Ti27    10.0   .     S
V10     Ti53    10.0   .     S
V11     V12    9.999   .     S
V11     Ti99    10.0   .     S
V11     Ti101    10.0   .     S
V12     Ti61    10.0   .     S
V12     Ti63    10.0   .     S
V13     V14    9.999   .     S
V13     Ti223    10.0   .     S
V13     Ti225    10.0   .     S
V14     Ti29    10.0   .     S
V14     Ti49    10.0   .     S
V15     V16    9.999   .     S
V15     Ti169    10.0   .     S
V15     Ti171    10.0   .     S
V16     Ti31    10.0   .     S
V16     Ti55    10.0   .     S
V17     V18    9.999   .     S
V17     Ti153    10.0   .     S
V17     Ti155    10.0   .     S
V18     Ti65    10.0   .     S
V18     Ti67    10.0   .     S
V19     V20    9.999   .     S
V19     Ti233    10.0   .     S
V19     Ti237    10.0   .     S
V20     Ti25    10.0   .     S
V20     Ti59    10.0   .     S
V21     V22    9.999   .     S
V21     Ti167    10.0   .     S
V21     Ti181    10.0   .     S
V22     Ti47    10.0   .     S
V22     Ti57    10.0   .     S
V23     V24    9.999   .     S
V23     Ti209    10.0   .     S
V23     Ti211    10.0   .     S
V24     Ti69    10.0   .     S
V24     Ti71    10.0   .     S
Ti25     Er26    10.0   .     S
Ti25     Ti59    10.0   .     S
Er26     Er28    10.0   .     S
Er26     Er34    10.0   1_455     S
Ti27     Er28    10.0   .     S
Ti27     Ti53    10.0   .     S
Er28     Er36    10.0   1_554     S
Ti29     Er30    10.0   .     S
Ti29     Ti49    10.0   .     S
Er30     Er32    10.0   .     S
Er30     Er40    10.0   1_455     S
Ti31     Er32    10.0   .     S
Ti31     Ti55    10.0   .     S
Er32     Er38    10.0   1_545     S
Ti33     Er34    10.0   .     S
Ti33     Ti41    10.0   .     S
Er34     Er26    10.0   1_655     S
Er34     Er36    10.0   1_654     S
Ti35     Er36    10.0   .     S
Ti35     Ti37    10.0   .     S
Er36     Er28    10.0   1_556     S
Er36     Er34    10.0   1_456     S
Ti37     Er38    10.0   .     S
Er38     Er32    10.0   1_565     S
Er38     Er40    10.0   1_465     S
Ti39     Er40    10.0   .     S
Ti39     Ti43    10.0   .     S
Er40     Er30    10.0   1_655     S
Er40     Er38    10.0   1_645     S
Ti41     Er42    10.0   .     S
Er42     Er48    10.0   1_565     S
Er42     Er44    10.0   1_564     S
Ti43     Er44    10.0   .     S
Er44     Er46    10.0   1_556     S
Er44     Er42    10.0   1_546     S
Ti45     Er46    10.0   .     S
Ti45     Ti51    10.0   .     S
Er46     Er44    10.0   1_554     S
Er46     Er48    10.0   .     S
Ti47     Er48    10.0   .     S
Ti47     Ti57    10.0   .     S
Er48     Er42    10.0   1_545     S
Ti49     Er50    10.0   .     S
Er50     Er64    10.0   1_556     S
Er50     Er52    10.0   1_456     S
Ti51     Er52    10.0   .     S
Er52     Er70    10.0   1_655     S
Er52     Er50    10.0   1_654     S
Ti53     Er54    10.0   .     S
Er54     Er66    10.0   1_565     S
Er54     Er56    10.0   1_564     S
Ti55     Er56    10.0   .     S
Er56     Er62    10.0   1_556     S
Er56     Er54    10.0   1_546     S
Ti57     Er58    10.0   .     S
Er58     Er72    10.0   1_655     S
Er58     Er60    10.0   1_645     S
Ti59     Er60    10.0   .     S
Er60     Er68    10.0   1_565     S
Er60     Er58    10.0   1_465     S
Ti61     Er62    10.0   .     S
Ti61     Ti63    10.0   .     S
Er62     Er56    10.0   1_554     S
Er62     Er66    10.0   .     S
Ti63     Er64    10.0   .     S
Er64     Er50    10.0   1_554     S
Er64     Er70    10.0   .     S
Ti65     Er66    10.0   .     S
Ti65     Ti67    10.0   .     S
Er66     Er54    10.0   1_545     S
Ti67     Er68    10.0   .     S
Er68     Er60    10.0   1_545     S
Er68     Er72    10.0   .     S
Ti69     Er70    10.0   .     S
Ti69     Ti71    10.0   .     S
Er70     Er52    10.0   1_455     S
Ti71     Er72    10.0   .     S
Er72     Er58    10.0   1_455     S
V73     V74    9.999   .     S
V73     Ti137    10.0   .     S
V73     Ti145    10.0   .     S
V74     Ti85    10.0   .     S
V74     Ti91    10.0   .     S
V75     V76    9.999   .     S
V75     Ti195    10.0   .     S
V75     Ti197    10.0   .     S
V76     Ti139    10.0   .     S
V76     Ti141    10.0   .     S
V77     V78    9.999   .     S
V77     Ti193    10.0   .     S
V77     Ti201    10.0   .     S
V78     Ti83    10.0   .     S
V78     Ti87    10.0   .     S
V79     V80    9.999   .     S
V79     Ti207    10.0   .     S
V79     Ti239    10.0   .     S
V80     Ti123    10.0   .     S
V80     Ti125    10.0   .     S
V81     V82    9.999   .     S
V81     Ti151    10.0   .     S
V81     Ti183    10.0   .     S
V82     Ti119    10.0   .     S
V82     Ti121    10.0   .     S
Ti83     Er84    10.0   .     S
Ti83     Ti87    10.0   .     S
Er84     Er122    10.0   .     S
Er84     Er86    10.0   .     S
Ti85     Er86    10.0   .     S
Ti85     Ti91    10.0   .     S
Er86     Er124    10.0   .     S
Ti87     Er88    10.0   .     S
Er88     Er116    10.0   1_556     S
Er88     Er90    10.0   1_556     S
Ti89     Er90    10.0   .     S
Ti89     Ti93    10.0   .     S
Er90     Er130    10.0   .     S
Er90     Er88    10.0   1_554     S
Ti91     Er92    10.0   .     S
Er92     Er114    10.0   1_556     S
Er92     Er94    10.0   1_556     S
Ti93     Er94    10.0   .     S
Er94     Er112    10.0   .     S
Er94     Er92    10.0   1_554     S
Ti95     V189    10.0   .     S
Ti95     Er96    10.0   .     S
Ti95     Ti129    10.0   .     S
Er96     Er104    10.0   .     S
Er96     Er98    10.0   .     S
Ti97     V135    10.0   .     S
Ti97     Er98    10.0   .     S
Ti97     Ti111    10.0   .     S
Er98     Er108    10.0   .     S
Ti99     Er100    10.0   .     S
Ti99     Ti101    10.0   .     S
Er100     Er106    10.0   .     S
Er100     Er120    10.0   1_554     S
Ti101     Er102    10.0   .     S
Er102     Er110    10.0   .     S
Er102     Er126    10.0   1_554     S
Ti103     V134    10.0   .     S
Ti103     Er104    10.0   .     S
Ti103     Ti105    10.0   .     S
Er104     Er108    10.0   .     S
Ti105     V134    10.0   .     S
Ti105     Er106    10.0   .     S
Er106     Er118    10.0   .     S
Ti107     V192    10.0   .     S
Ti107     Er108    10.0   .     S
Ti107     Ti109    10.0   .     S
Ti109     V192    10.0   .     S
Ti109     Er110    10.0   .     S
Er110     Er128    10.0   .     S
Ti111     V135    10.0   .     S
Ti111     Er112    10.0   .     S
Er112     Er114    10.0   .     S
Ti113     Er114    10.0   .     S
Ti113     Ti127    10.0   .     S
Er114     Er92    10.0   1_554     S
Ti115     Er116    10.0   .     S
Ti115     Ti117    10.0   .     S
Er116     Er88    10.0   1_554     S
Er116     Er130    10.0   .     S
Ti117     Er118    10.0   .     S
Er118     Er120    10.0   1_554     S
Ti119     Er120    10.0   .     S
Ti119     Ti121    10.0   .     S
Er120     Er100    10.0   1_556     S
Er120     Er118    10.0   1_556     S
Ti121     Er122    10.0   .     S
Er122     Er124    10.0   .     S
Ti123     Er124    10.0   .     S
Ti123     Ti125    10.0   .     S
Ti125     Er126    10.0   .     S
Er126     Er102    10.0   1_556     S
Er126     Er128    10.0   1_556     S
Ti127     Er128    10.0   .     S
Er128     Er126    10.0   1_554     S
Ti129     V189    10.0   .     S
Ti129     Er130    10.0   .     S
V131     V132    9.999   .     S
V131     Ti205    10.0   .     S
V131     Ti221    10.0   .     S
V132     Ti173    10.0   .     S
V132     Ti175    10.0   .     S
V133     V134    9.999   .     S
V133     Ti157    10.0   .     S
V133     Ti159    10.0   .     S
V135     V136    9.999   .     S
V136     Ti177    10.0   .     S
V136     Ti179    10.0   .     S
Ti137     Er138    10.0   .     S
Ti137     Ti145    10.0   .     S
Er138     Er176    10.0   .     S
Er138     Er140    10.0   .     S
Ti139     Er140    10.0   .     S
Ti139     Ti141    10.0   .     S
Er140     Er178    10.0   .     S
Ti141     Er142    10.0   .     S
Er142     Er168    10.0   1_565     S
Er142     Er144    10.0   1_565     S
Ti143     Er144    10.0   .     S
Ti143     Ti147    10.0   .     S
Er144     Er166    10.0   .     S
Er144     Er142    10.0   1_545     S
Ti145     Er146    10.0   .     S
Er146     Er170    10.0   1_565     S
Er146     Er148    10.0   1_565     S
Ti147     Er148    10.0   .     S
Er148     Er184    10.0   .     S
Er148     Er146    10.0   1_545     S
Ti149     V185    10.0   .     S
Ti149     Er150    10.0   .     S
Ti149     Ti165    10.0   .     S
Er150     Er158    10.0   .     S
Er150     Er152    10.0   .     S
Ti151     Er152    10.0   .     S
Ti151     Ti183    10.0   .     S
Er152     Er162    10.0   .     S
Ti153     Er154    10.0   .     S
Ti153     Ti155    10.0   .     S
Er154     Er164    10.0   .     S
Er154     Er174    10.0   1_545     S
Ti155     Er156    10.0   .     S
Er156     Er160    10.0   .     S
Er156     Er180    10.0   1_545     S
Ti157     Er158    10.0   .     S
Ti157     Ti159    10.0   .     S
Er158     Er162    10.0   .     S
Ti159     Er160    10.0   .     S
Er160     Er182    10.0   .     S
Ti161     V188    10.0   .     S
Ti161     Er162    10.0   .     S
Ti161     Ti163    10.0   .     S
Ti163     V188    10.0   .     S
Ti163     Er164    10.0   .     S
Er164     Er172    10.0   .     S
Ti165     V185    10.0   .     S
Ti165     Er166    10.0   .     S
Er166     Er168    10.0   .     S
Ti167     Er168    10.0   .     S
Ti167     Ti181    10.0   .     S
Er168     Er142    10.0   1_545     S
Ti169     Er170    10.0   .     S
Ti169     Ti171    10.0   .     S
Er170     Er146    10.0   1_545     S
Er170     Er184    10.0   .     S
Ti171     Er172    10.0   .     S
Er172     Er174    10.0   1_545     S
Ti173     Er174    10.0   .     S
Ti173     Ti175    10.0   .     S
Er174     Er154    10.0   1_565     S
Er174     Er172    10.0   1_565     S
Ti175     Er176    10.0   .     S
Er176     Er178    10.0   .     S
Ti177     Er178    10.0   .     S
Ti177     Ti179    10.0   .     S
Ti179     Er180    10.0   .     S
Er180     Er156    10.0   1_565     S
Er180     Er182    10.0   1_565     S
Ti181     Er182    10.0   .     S
Er182     Er180    10.0   1_545     S
Ti183     Er184    10.0   .     S
V185     V186    9.999   .     S
V186     Ti227    10.0   .     S
V186     Ti229    10.0   .     S
V187     V188    9.999   .     S
V187     Ti213    10.0   .     S
V187     Ti215    10.0   .     S
V189     V190    9.999   .     S
V190     Ti231    10.0   .     S
V190     Ti235    10.0   .     S
V191     V192    9.999   .     S
V191     Ti217    10.0   .     S
V191     Ti219    10.0   .     S
Ti193     Er194    10.0   .     S
Ti193     Ti201    10.0   .     S
Er194     Er230    10.0   .     S
Er194     Er196    10.0   .     S
Ti195     Er196    10.0   .     S
Ti195     Ti197    10.0   .     S
Er196     Er232    10.0   .     S
Ti197     Er198    10.0   .     S
Er198     Er234    10.0   1_655     S
Er198     Er200    10.0   1_655     S
Ti199     Er200    10.0   .     S
Ti199     Ti203    10.0   .     S
Er200     Er222    10.0   .     S
Er200     Er198    10.0   1_455     S
Ti201     Er202    10.0   .     S
Er202     Er224    10.0   1_655     S
Er202     Er204    10.0   1_655     S
Ti203     Er204    10.0   .     S
Er204     Er240    10.0   .     S
Er204     Er202    10.0   1_455     S
Ti205     Er206    10.0   .     S
Ti205     Ti221    10.0   .     S
Er206     Er218    10.0   .     S
Er206     Er208    10.0   .     S
Ti207     Er208    10.0   .     S
Ti207     Ti239    10.0   .     S
Er208     Er214    10.0   .     S
Ti209     Er210    10.0   .     S
Ti209     Ti211    10.0   .     S
Er210     Er216    10.0   .     S
Er210     Er228    10.0   1_455     S
Ti211     Er212    10.0   .     S
Er212     Er220    10.0   .     S
Er212     Er236    10.0   1_455     S
Ti213     Er214    10.0   .     S
Ti213     Ti215    10.0   .     S
Er214     Er218    10.0   .     S
Ti215     Er216    10.0   .     S
Er216     Er226    10.0   .     S
Ti217     Er218    10.0   .     S
Ti217     Ti219    10.0   .     S
Ti219     Er220    10.0   .     S
Er220     Er238    10.0   .     S
Ti221     Er222    10.0   .     S
Er222     Er234    10.0   .     S
Ti223     Er224    10.0   .     S
Ti223     Ti225    10.0   .     S
Er224     Er202    10.0   1_455     S
Er224     Er240    10.0   .     S
Ti225     Er226    10.0   .     S
Er226     Er228    10.0   1_455     S
Ti227     Er228    10.0   .     S
Ti227     Ti229    10.0   .     S
Er228     Er210    10.0   1_655     S
Er228     Er226    10.0   1_655     S
Ti229     Er230    10.0   .     S
Er230     Er232    10.0   .     S
Ti231     Er232    10.0   .     S
Ti231     Ti235    10.0   .     S
Ti233     Er234    10.0   .     S
Ti233     Ti237    10.0   .     S
Er234     Er198    10.0   1_455     S
Ti235     Er236    10.0   .     S
Er236     Er212    10.0   1_655     S
Er236     Er238    10.0   1_655     S
Ti237     Er238    10.0   .     S
Er238     Er236    10.0   1_455     S
Ti239     Er240    10.0   .     S
