data_tfea
_audit_creation_date              2020-02-04
_audit_creation_method            'Pymatgen'
_symmetry_space_group_name_H-M    'P1'
_symmetry_Int_Tables_number       1
loop_
_symmetry_equiv_pos_as_xyz
  x,y,z
_cell_length_a                    85.0267
_cell_length_b                    85.0267
_cell_length_c                    85.0267
_cell_angle_alpha                 90.0
_cell_angle_beta                 90.0
_cell_angle_gamma                 90.0
loop_
_atom_site_label
_atom_site_type_symbol
_atom_site_fract_x
_atom_site_fract_y
_atom_site_fract_z
V1     V     0.7619   0.8451   0.7619
V2     V     0.8451   0.7619   0.7619
V3     V     0.7619   0.7619   0.8451
V4     V     0.7619   0.2381   0.8451
V5     V     0.8451   0.2381   0.7619
V6     V     0.7619   0.1549   0.7619
Er7     Er     0.358   0.0   0.642
Ti8     Ti     0.4412   0.0   0.5588
Ce9     Ce     0.286   0.0588   0.714
Ce10     Ce     0.286   0.9412   0.714
Ti11     Ti     0.4412   0.0   0.4412
Er12     Er     0.358   0.0   0.358
Ce13     Ce     0.286   0.0588   0.286
Ce14     Ce     0.286   0.9412   0.286
Er15     Er     0.642   0.0   0.642
Ti16     Ti     0.5588   0.0   0.5588
Ce17     Ce     0.714   0.0588   0.714
Ce18     Ce     0.714   0.9412   0.714
Er19     Er     0.642   0.0   0.358
Ti20     Ti     0.5588   0.0   0.4412
Ce21     Ce     0.714   0.0588   0.286
Ce22     Ce     0.714   0.9412   0.286
V23     V     0.2381   0.2381   0.8451
V24     V     0.1549   0.2381   0.7619
V25     V     0.2381   0.1549   0.7619
V26     V     0.2381   0.7619   0.8451
V27     V     0.2381   0.8451   0.7619
V28     V     0.1549   0.7619   0.7619
Er29     Er     0.0   0.642   0.642
Ti30     Ti     0.0   0.5588   0.5588
Ce31     Ce     0.0588   0.714   0.714
Ce32     Ce     0.9412   0.714   0.714
Er33     Er     0.0   0.642   0.358
Ti34     Ti     0.0   0.5588   0.4412
Ce35     Ce     0.0588   0.714   0.286
Ce36     Ce     0.9412   0.714   0.286
Er37     Er     0.0   0.358   0.642
Ti38     Ti     0.0   0.4412   0.5588
Ce39     Ce     0.0588   0.286   0.714
Ce40     Ce     0.9412   0.286   0.714
Er41     Er     0.0   0.358   0.358
Ti42     Ti     0.0   0.4412   0.4412
Ce43     Ce     0.0588   0.286   0.286
Ce44     Ce     0.9412   0.286   0.286
V45     V     0.8451   0.2381   0.2381
V46     V     0.7619   0.2381   0.1549
V47     V     0.7619   0.1549   0.2381
V48     V     0.2381   0.8451   0.2381
V49     V     0.2381   0.7619   0.1549
V50     V     0.1549   0.7619   0.2381
V51     V     0.8451   0.7619   0.2381
V52     V     0.7619   0.8451   0.2381
V53     V     0.7619   0.7619   0.1549
V54     V     0.1549   0.2381   0.2381
V55     V     0.2381   0.1549   0.2381
V56     V     0.2381   0.2381   0.1549
Er57     Er     0.642   0.642   0.0
Ti58     Ti     0.5588   0.5588   0.0
Ce59     Ce     0.714   0.714   0.0588
Ce60     Ce     0.714   0.714   0.9412
Er61     Er     0.642   0.358   0.0
Ti62     Ti     0.5588   0.4412   0.0
Ce63     Ce     0.714   0.286   0.0588
Ce64     Ce     0.714   0.286   0.9412
Er65     Er     0.358   0.642   0.0
Ti66     Ti     0.4412   0.5588   0.0
Ce67     Ce     0.286   0.714   0.0588
Ce68     Ce     0.286   0.714   0.9412
Er69     Er     0.358   0.358   0.0
Ti70     Ti     0.4412   0.4412   0.0
Ce71     Ce     0.286   0.286   0.0588
Ce72     Ce     0.286   0.286   0.9412
loop_
_geom_bond_atom_site_label_1
_geom_bond_atom_site_label_2
_geom_bond_distance
_geom_bond_site_symmetry_2
_ccdc_geom_bond_type
V1     V2    10.0   .     S
V1     V3    10.0   .     S
V1     Ce18    10.001   .     S
V2     V3    10.0   .     S
V2     Ce32    10.001   .     S
V3     Ce60    10.001   .     S
V4     V6    10.0   .     S
V4     V5    10.0   .     S
V4     Ce64    10.001   .     S
V5     V6    10.0   .     S
V5     Ce40    10.001   .     S
V6     Ce17    10.001   .     S
Er7     Ti8    10.0   .     S
Er7     Ce9    10.0   .     S
Er7     Ce10    10.0   1_545     S
Ti8     Ti11    10.001   .     S
Ti8     Ti16    10.001   .     S
Ce9     Ce10    9.999   1_545     S
Ce9     V25    10.001   .     S
Ce10     Er7    10.0   1_565     S
Ce10     Ce9    9.999   1_565     S
Ce10     V27    10.001   .     S
Ti11     Er12    10.0   .     S
Ti11     Ti20    10.001   .     S
Er12     Ce14    10.0   1_545     S
Er12     Ce13    10.0   .     S
Ce13     Ce14    9.999   1_545     S
Ce13     V55    10.001   .     S
Ce14     Er12    10.0   1_565     S
Ce14     Ce13    9.999   1_565     S
Ce14     V48    10.001   .     S
Er15     Ti16    10.0   .     S
Er15     Ce18    10.0   1_545     S
Er15     Ce17    10.0   .     S
Ti16     Ti20    10.001   .     S
Ce17     Ce18    9.999   1_545     S
Ce18     Er15    10.0   1_565     S
Ce18     Ce17    9.999   1_565     S
Er19     Ti20    10.0   .     S
Er19     Ce21    10.0   .     S
Er19     Ce22    10.0   1_545     S
Ce21     Ce22    9.999   1_545     S
Ce21     V47    10.001   .     S
Ce22     Ce21    9.999   1_565     S
Ce22     Er19    10.0   1_565     S
Ce22     V52    10.001   .     S
V23     V24    10.0   .     S
V23     V25    10.0   .     S
V23     Ce72    10.001   .     S
V24     V25    10.0   .     S
V24     Ce39    10.001   .     S
V26     V28    10.0   .     S
V26     V27    10.0   .     S
V26     Ce68    10.001   .     S
V27     V28    10.0   .     S
V28     Ce31    10.001   .     S
Er29     Ti30    10.0   .     S
Er29     Ce31    10.0   .     S
Er29     Ce32    10.0   1_455     S
Ti30     Ti34    10.001   .     S
Ti30     Ti38    10.001   .     S
Ce31     Ce32    9.999   1_455     S
Ce32     Er29    10.0   1_655     S
Ce32     Ce31    9.999   1_655     S
Er33     Ti34    10.0   .     S
Er33     Ce36    10.0   1_455     S
Er33     Ce35    10.0   .     S
Ti34     Ti42    10.001   .     S
Ce35     Ce36    9.999   1_455     S
Ce35     V50    10.001   .     S
Ce36     Er33    10.0   1_655     S
Ce36     Ce35    9.999   1_655     S
Ce36     V51    10.001   .     S
Er37     Ti38    10.0   .     S
Er37     Ce40    10.0   1_455     S
Er37     Ce39    10.0   .     S
Ti38     Ti42    10.001   .     S
Ce39     Ce40    9.999   1_455     S
Ce40     Er37    10.0   1_655     S
Ce40     Ce39    9.999   1_655     S
Er41     Ti42    10.0   .     S
Er41     Ce43    10.0   .     S
Er41     Ce44    10.0   1_455     S
Ce43     Ce44    9.999   1_455     S
Ce43     V54    10.001   .     S
Ce44     Ce43    9.999   1_655     S
Ce44     Er41    10.0   1_655     S
Ce44     V45    10.001   .     S
V45     V47    10.0   .     S
V45     V46    10.0   .     S
V46     V47    10.0   .     S
V46     Ce63    10.001   .     S
V48     V50    10.0   .     S
V48     V49    10.0   .     S
V49     V50    10.0   .     S
V49     Ce67    10.001   .     S
V51     V53    10.0   .     S
V51     V52    10.0   .     S
V52     V53    10.0   .     S
V53     Ce59    10.001   .     S
V54     V55    10.0   .     S
V54     V56    10.0   .     S
V55     V56    10.0   .     S
V56     Ce71    10.001   .     S
Er57     Ti58    10.0   .     S
Er57     Ce60    10.0   1_554     S
Er57     Ce59    10.0   .     S
Ti58     Ti62    10.001   .     S
Ti58     Ti66    10.001   .     S
Ce59     Ce60    9.999   1_554     S
Ce60     Er57    10.0   1_556     S
Ce60     Ce59    9.999   1_556     S
Er61     Ti62    10.0   .     S
Er61     Ce64    10.0   1_554     S
Er61     Ce63    10.0   .     S
Ti62     Ti70    10.001   .     S
Ce63     Ce64    9.999   1_554     S
Ce64     Er61    10.0   1_556     S
Ce64     Ce63    9.999   1_556     S
Er65     Ti66    10.0   .     S
Er65     Ce68    10.0   1_554     S
Er65     Ce67    10.0   .     S
Ti66     Ti70    10.001   .     S
Ce67     Ce68    9.999   1_554     S
Ce68     Er65    10.0   1_556     S
Ce68     Ce67    9.999   1_556     S
Er69     Ti70    10.0   .     S
Er69     Ce71    10.0   .     S
Er69     Ce72    10.0   1_554     S
Ce71     Ce72    9.999   1_554     S
Ce72     Ce71    9.999   1_556     S
Ce72     Er69    10.0   1_556     S
