data_tff
_audit_creation_date              2020-02-04
_audit_creation_method            'Pymatgen'
_symmetry_space_group_name_H-M    'P1'
_symmetry_Int_Tables_number       1
loop_
_symmetry_equiv_pos_as_xyz
  x,y,z
_cell_length_a                    29.8146
_cell_length_b                    17.243
_cell_length_c                    19.5628
_cell_angle_alpha                 90.0
_cell_angle_beta                 102.0826
_cell_angle_gamma                 90.0
loop_
_atom_site_label
_atom_site_type_symbol
_atom_site_fract_x
_atom_site_fract_y
_atom_site_fract_z
V1     V     0.7451   0.5   0.5766
Ti2     Ti     0.6738   0.5   0.0539
Er3     Er     0.5   0.0   0.0
V4     V     0.2451   0.0   0.5766
Ti5     Ti     0.1738   0.0   0.0539
Er6     Er     0.0   0.5   0.0
loop_
_geom_bond_atom_site_label_1
_geom_bond_atom_site_label_2
_geom_bond_distance
_geom_bond_site_symmetry_2
_ccdc_geom_bond_type
V1     Er6    10.0   1_656     S
V1     Ti2    10.0   1_556     S
V1     Ti2    10.0   .     S
Ti2     V1    10.0   1_554     S
Ti2     Er6    10.0   1_655     S
Ti2     Er3    10.0   1_565     S
Ti2     Er3    10.0   .     S
Er3     Ti2    10.0   1_545     S
Er3     V4    10.0   1_554     S
Er3     Ti5    10.0   .     S
V4     Er3    10.0   1_556     S
V4     Ti5    10.0   1_556     S
V4     Ti5    10.0   .     S
Ti5     V4    10.0   1_554     S
Ti5     Er6    10.0   .     S
Ti5     Er6    10.0   1_545     S
Er6     V1    10.0   1_454     S
Er6     Ti2    10.0   1_455     S
Er6     Ti5    10.0   1_565     S
