data_tfga
_audit_creation_date              2020-02-04
_audit_creation_method            'Pymatgen'
_symmetry_space_group_name_H-M    'P1'
_symmetry_Int_Tables_number       1
loop_
_symmetry_equiv_pos_as_xyz
  x,y,z
_cell_length_a                    75.7081
_cell_length_b                    75.7081
_cell_length_c                    75.7081
_cell_angle_alpha                 90.0
_cell_angle_beta                 90.0
_cell_angle_gamma                 90.0
loop_
_atom_site_label
_atom_site_type_symbol
_atom_site_fract_x
_atom_site_fract_y
_atom_site_fract_z
Er1     Er     0.934   0.5   0.8406
Er2     Er     0.066   0.5   0.8406
Er3     Er     0.8406   0.5   0.934
Er4     Er     0.8406   0.5   0.066
Er5     Er     0.1594   0.5   0.934
Er6     Er     0.1594   0.5   0.066
Er7     Er     0.934   0.5   0.1594
Er8     Er     0.066   0.5   0.1594
Er9     Er     0.5   0.8406   0.934
Er10     Er     0.5   0.8406   0.066
Er11     Er     0.5   0.934   0.8406
Er12     Er     0.5   0.066   0.8406
Er13     Er     0.5   0.1594   0.934
Er14     Er     0.5   0.1594   0.066
Er15     Er     0.5   0.934   0.1594
Er16     Er     0.5   0.066   0.1594
Er17     Er     0.8406   0.934   0.5
Er18     Er     0.8406   0.066   0.5
Er19     Er     0.934   0.8406   0.5
Er20     Er     0.066   0.8406   0.5
Er21     Er     0.1594   0.934   0.5
Er22     Er     0.1594   0.066   0.5
Er23     Er     0.934   0.1594   0.5
Er24     Er     0.066   0.1594   0.5
V25     V     0.7675   0.6741   0.7675
V26     V     0.6741   0.7675   0.7675
V27     V     0.7675   0.7675   0.6741
Ti28     Ti     0.8212   0.434   0.8212
Ti29     Ti     0.8212   0.566   0.8212
Ti30     Ti     0.434   0.8212   0.8212
Ti31     Ti     0.566   0.8212   0.8212
Ti32     Ti     0.8212   0.8212   0.434
Ti33     Ti     0.8212   0.8212   0.566
V34     V     0.7675   0.6741   0.2325
V35     V     0.7675   0.7675   0.3259
V36     V     0.6741   0.7675   0.2325
V37     V     0.6741   0.2325   0.7675
V38     V     0.7675   0.3259   0.7675
V39     V     0.7675   0.2325   0.6741
V40     V     0.3259   0.7675   0.7675
V41     V     0.2325   0.6741   0.7675
V42     V     0.2325   0.7675   0.6741
Ti43     Ti     0.434   0.8212   0.1788
Ti44     Ti     0.566   0.8212   0.1788
Ti45     Ti     0.434   0.1788   0.8212
Ti46     Ti     0.566   0.1788   0.8212
Ti47     Ti     0.1788   0.434   0.8212
Ti48     Ti     0.1788   0.566   0.8212
Ti49     Ti     0.8212   0.434   0.1788
Ti50     Ti     0.8212   0.566   0.1788
Ti51     Ti     0.1788   0.8212   0.434
Ti52     Ti     0.1788   0.8212   0.566
Ti53     Ti     0.8212   0.1788   0.434
Ti54     Ti     0.8212   0.1788   0.566
V55     V     0.7675   0.3259   0.2325
V56     V     0.7675   0.2325   0.3259
V57     V     0.6741   0.2325   0.2325
V58     V     0.3259   0.7675   0.2325
V59     V     0.2325   0.7675   0.3259
V60     V     0.2325   0.6741   0.2325
Ti61     Ti     0.1788   0.434   0.1788
Ti62     Ti     0.1788   0.566   0.1788
Ti63     Ti     0.434   0.1788   0.1788
Ti64     Ti     0.566   0.1788   0.1788
V65     V     0.2325   0.3259   0.7675
V66     V     0.3259   0.2325   0.7675
V67     V     0.2325   0.2325   0.6741
Ti68     Ti     0.1788   0.1788   0.434
Ti69     Ti     0.1788   0.1788   0.566
V70     V     0.3259   0.2325   0.2325
V71     V     0.2325   0.3259   0.2325
V72     V     0.2325   0.2325   0.3259
loop_
_geom_bond_atom_site_label_1
_geom_bond_atom_site_label_2
_geom_bond_distance
_geom_bond_site_symmetry_2
_ccdc_geom_bond_type
Er1     Er2    10.0   1_655     S
Er1     Ti29    10.0   .     S
Er1     Ti28    10.0   .     S
Er1     Er3    10.0   .     S
Er2     Er1    10.0   1_455     S
Er2     Ti47    10.0   .     S
Er2     Ti48    10.0   .     S
Er2     Er5    10.0   .     S
Er3     Ti28    10.0   .     S
Er3     Ti29    10.0   .     S
Er3     Er4    10.0   1_556     S
Er4     Er3    10.0   1_554     S
Er4     Ti50    10.0   .     S
Er4     Ti49    10.0   .     S
Er4     Er7    10.0   .     S
Er5     Ti48    10.0   .     S
Er5     Ti47    10.0   .     S
Er5     Er6    10.0   1_556     S
Er6     Er5    10.0   1_554     S
Er6     Ti61    10.0   .     S
Er6     Ti62    10.0   .     S
Er6     Er8    10.0   .     S
Er7     Ti49    10.0   .     S
Er7     Ti50    10.0   .     S
Er7     Er8    10.0   1_655     S
Er8     Er7    10.0   1_455     S
Er8     Ti62    10.0   .     S
Er8     Ti61    10.0   .     S
Er9     Er10    10.0   1_556     S
Er9     Ti31    10.0   .     S
Er9     Ti30    10.0   .     S
Er9     Er11    10.0   .     S
Er10     Er9    10.0   1_554     S
Er10     Ti43    10.0   .     S
Er10     Ti44    10.0   .     S
Er10     Er15    10.0   .     S
Er11     Ti30    10.0   .     S
Er11     Ti31    10.0   .     S
Er11     Er12    10.0   1_565     S
Er12     Er11    10.0   1_545     S
Er12     Ti46    10.0   .     S
Er12     Ti45    10.0   .     S
Er12     Er13    10.0   .     S
Er13     Ti45    10.0   .     S
Er13     Ti46    10.0   .     S
Er13     Er14    10.0   1_556     S
Er14     Er13    10.0   1_554     S
Er14     Ti64    10.0   .     S
Er14     Ti63    10.0   .     S
Er14     Er16    10.0   .     S
Er15     Ti44    10.0   .     S
Er15     Ti43    10.0   .     S
Er15     Er16    10.0   1_565     S
Er16     Er15    10.0   1_545     S
Er16     Ti63    10.0   .     S
Er16     Ti64    10.0   .     S
Er17     Er18    10.0   1_565     S
Er17     Ti33    10.0   .     S
Er17     Ti32    10.0   .     S
Er17     Er19    10.0   .     S
Er18     Er17    10.0   1_545     S
Er18     Ti53    10.0   .     S
Er18     Ti54    10.0   .     S
Er18     Er23    10.0   .     S
Er19     Ti32    10.0   .     S
Er19     Ti33    10.0   .     S
Er19     Er20    10.0   1_655     S
Er20     Er19    10.0   1_455     S
Er20     Ti52    10.0   .     S
Er20     Ti51    10.0   .     S
Er20     Er21    10.0   .     S
Er21     Ti51    10.0   .     S
Er21     Ti52    10.0   .     S
Er21     Er22    10.0   1_565     S
Er22     Er21    10.0   1_545     S
Er22     Ti69    10.0   .     S
Er22     Ti68    10.0   .     S
Er22     Er24    10.0   .     S
Er23     Ti54    10.0   .     S
Er23     Ti53    10.0   .     S
Er23     Er24    10.0   1_655     S
Er24     Er23    10.0   1_455     S
Er24     Ti68    10.0   .     S
Er24     Ti69    10.0   .     S
V25     Ti29    10.0   .     S
V25     V27    10.0   .     S
V25     V26    10.0   .     S
V26     Ti31    10.0   .     S
V26     V27    10.0   .     S
V27     Ti33    10.0   .     S
Ti28     Ti29    10.0   .     S
Ti28     V38    10.0   .     S
Ti30     Ti31    10.0   .     S
Ti30     V40    10.0   .     S
Ti32     Ti33    10.0   .     S
Ti32     V35    10.0   .     S
V34     Ti50    10.0   .     S
V34     V35    10.0   .     S
V34     V36    10.0   .     S
V35     V36    10.0   .     S
V36     Ti44    10.0   .     S
V37     Ti46    10.0   .     S
V37     V39    10.0   .     S
V37     V38    10.0   .     S
V38     V39    10.0   .     S
V39     Ti54    10.0   .     S
V40     V42    10.0   .     S
V40     V41    10.0   .     S
V41     Ti48    10.0   .     S
V41     V42    10.0   .     S
V42     Ti52    10.0   .     S
Ti43     Ti44    10.0   .     S
Ti43     V58    10.0   .     S
Ti45     Ti46    10.0   .     S
Ti45     V66    10.0   .     S
Ti47     Ti48    10.0   .     S
Ti47     V65    10.0   .     S
Ti49     Ti50    10.0   .     S
Ti49     V55    10.0   .     S
Ti51     Ti52    10.0   .     S
Ti51     V59    10.0   .     S
Ti53     Ti54    10.0   .     S
Ti53     V56    10.0   .     S
V55     V56    10.0   .     S
V55     V57    10.0   .     S
V56     V57    10.0   .     S
V57     Ti64    10.0   .     S
V58     V59    10.0   .     S
V58     V60    10.0   .     S
V59     V60    10.0   .     S
V60     Ti62    10.0   .     S
Ti61     Ti62    10.0   .     S
Ti61     V71    10.0   .     S
Ti63     Ti64    10.0   .     S
Ti63     V70    10.0   .     S
V65     V67    10.0   .     S
V65     V66    10.0   .     S
V66     V67    10.0   .     S
V67     Ti69    10.0   .     S
Ti68     Ti69    10.0   .     S
Ti68     V72    10.0   .     S
V70     V72    10.0   .     S
V70     V71    10.0   .     S
V71     V72    10.0   .     S
