data_tfh
_audit_creation_date              2020-02-04
_audit_creation_method            'Pymatgen'
_symmetry_space_group_name_H-M    'P1'
_symmetry_Int_Tables_number       1
loop_
_symmetry_equiv_pos_as_xyz
  x,y,z
_cell_length_a                    48.0037
_cell_length_b                    48.0037
_cell_length_c                    48.0037
_cell_angle_alpha                 90.0
_cell_angle_beta                 90.0
_cell_angle_gamma                 90.0
loop_
_atom_site_label
_atom_site_type_symbol
_atom_site_fract_x
_atom_site_fract_y
_atom_site_fract_z
V1     V     0.3101   0.3101   0.3101
V2     V     0.3101   0.6899   0.3101
Er3     Er     0.3118   0.5   0.3958
V4     V     0.6899   0.6899   0.3101
Er5     Er     0.5   0.6042   0.3118
Er6     Er     0.6882   0.5   0.3958
V7     V     0.6899   0.3101   0.3101
Er8     Er     0.5   0.3958   0.3118
V9     V     0.6899   0.3101   0.6899
Er10     Er     0.6042   0.3118   0.5
Er11     Er     0.5   0.3958   0.6882
V12     V     0.3101   0.3101   0.6899
Er13     Er     0.3958   0.3118   0.5
V14     V     0.6899   0.6899   0.6899
Er15     Er     0.5   0.6042   0.6882
Er16     Er     0.6882   0.5   0.6042
Er17     Er     0.6042   0.6882   0.5
V18     V     0.3101   0.6899   0.6899
Er19     Er     0.3118   0.5   0.6042
Er20     Er     0.3958   0.6882   0.5
V21     V     0.1899   0.1899   0.1899
V22     V     0.1899   0.1899   0.8101
V23     V     0.1899   0.8101   0.1899
V24     V     0.8101   0.8101   0.1899
Er25     Er     0.0   0.8958   0.1882
V26     V     0.1899   0.8101   0.8101
Er27     Er     0.1882   0.0   0.8958
V28     V     0.8101   0.8101   0.8101
Er29     Er     0.8118   0.0   0.8958
Er30     Er     0.0   0.8958   0.8118
Er31     Er     0.8958   0.8118   0.0
V32     V     0.8101   0.1899   0.1899
V33     V     0.8101   0.1899   0.8101
Er34     Er     0.8958   0.1882   0.0
Er35     Er     0.0   0.1042   0.1882
Er36     Er     0.0   0.1042   0.8118
Er37     Er     0.1882   0.0   0.1042
Er38     Er     0.8118   0.0   0.1042
Er39     Er     0.1042   0.1882   0.0
Er40     Er     0.1042   0.8118   0.0
loop_
_geom_bond_atom_site_label_1
_geom_bond_atom_site_label_2
_geom_bond_distance
_geom_bond_site_symmetry_2
_ccdc_geom_bond_type
V1     Er8    10.0   .     S
V1     Er3    10.0   .     S
V1     Er13    10.0   .     S
V1     V21    10.001   .     S
V2     Er20    10.0   .     S
V2     Er5    10.0   .     S
V2     Er3    10.0   .     S
V2     V23    10.001   .     S
Er3     Er19    10.0   .     S
V4     Er17    10.0   .     S
V4     Er6    10.0   .     S
V4     Er5    10.0   .     S
V4     V24    10.001   .     S
Er5     Er8    10.0   .     S
Er6     V7    10.0   .     S
Er6     Er16    10.0   .     S
V7     Er10    10.0   .     S
V7     Er8    10.0   .     S
V7     V32    10.001   .     S
V9     Er16    10.0   .     S
V9     Er11    10.0   .     S
V9     Er10    10.0   .     S
V9     V33    10.001   .     S
Er10     Er13    10.0   .     S
Er11     V12    10.0   .     S
Er11     Er15    10.0   .     S
V12     Er19    10.0   .     S
V12     Er13    10.0   .     S
V12     V22    10.001   .     S
V14     Er15    10.0   .     S
V14     Er16    10.0   .     S
V14     Er17    10.0   .     S
V14     V28    10.001   .     S
Er15     V18    10.0   .     S
Er17     Er20    10.0   .     S
V18     Er20    10.0   .     S
V18     Er19    10.0   .     S
V18     V26    10.001   .     S
V21     Er35    10.0   .     S
V21     Er37    10.0   .     S
V21     Er39    10.0   .     S
V22     Er36    10.0   .     S
V22     Er27    10.0   .     S
V22     Er39    10.0   1_556     S
V23     Er40    10.0   .     S
V23     Er25    10.0   .     S
V23     Er37    10.0   1_565     S
V24     Er31    10.0   .     S
V24     Er38    10.0   1_565     S
V24     Er25    10.0   1_655     S
Er25     V24    10.0   1_455     S
Er25     Er35    10.0   1_565     S
V26     Er30    10.0   .     S
V26     Er40    10.0   1_556     S
V26     Er27    10.0   1_565     S
Er27     V26    10.0   1_545     S
Er27     Er37    10.0   1_556     S
V28     Er29    10.0   1_565     S
V28     Er30    10.0   1_655     S
V28     Er31    10.0   1_556     S
Er29     V28    10.0   1_545     S
Er29     V33    10.0   .     S
Er29     Er38    10.0   1_556     S
Er30     V28    10.0   1_455     S
Er30     Er36    10.0   1_565     S
Er31     V28    10.0   1_554     S
Er31     Er40    10.0   1_655     S
V32     Er38    10.0   .     S
V32     Er34    10.0   .     S
V32     Er35    10.0   1_655     S
V33     Er36    10.0   1_655     S
V33     Er34    10.0   1_556     S
Er34     V33    10.0   1_554     S
Er34     Er39    10.0   1_655     S
Er35     V32    10.0   1_455     S
Er35     Er25    10.0   1_545     S
Er36     V33    10.0   1_455     S
Er36     Er30    10.0   1_545     S
Er37     V23    10.0   1_545     S
Er37     Er27    10.0   1_554     S
Er38     V24    10.0   1_545     S
Er38     Er29    10.0   1_554     S
Er39     V22    10.0   1_554     S
Er39     Er34    10.0   1_455     S
Er40     V26    10.0   1_554     S
Er40     Er31    10.0   1_455     S
