data_tfja
_audit_creation_date              2020-02-04
_audit_creation_method            'Pymatgen'
_symmetry_space_group_name_H-M    'P1'
_symmetry_Int_Tables_number       1
loop_
_symmetry_equiv_pos_as_xyz
  x,y,z
_cell_length_a                    74.3334
_cell_length_b                    74.3334
_cell_length_c                    64.7589
_cell_angle_alpha                 90.0
_cell_angle_beta                 90.0
_cell_angle_gamma                 90.0
loop_
_atom_site_label
_atom_site_type_symbol
_atom_site_fract_x
_atom_site_fract_y
_atom_site_fract_z
V1     V     0.5   0.4049   0.0
V2     V     0.4049   0.5   0.0
V3     V     0.5951   0.5   0.0
V4     V     0.5   0.5951   0.0
Er5     Er     0.2703   0.5   0.0
Ti6     Ti     0.1538   0.5   0.0772
Ti7     Ti     0.1538   0.5   0.9228
Er8     Er     0.0   0.2297   0.5
Ti9     Ti     0.0   0.3462   0.4228
Ti10     Ti     0.0   0.3462   0.5772
Er11     Er     0.0   0.7703   0.5
Ti12     Ti     0.0   0.6538   0.4228
Ti13     Ti     0.0   0.6538   0.5772
Ce14     Ce     0.0   0.5673   0.6954
Ce15     Ce     0.0   0.4327   0.6954
Ce16     Ce     0.9327   0.5   0.8046
Ce17     Ce     0.0673   0.5   0.8046
Er18     Er     0.7297   0.5   0.0
Ti19     Ti     0.8462   0.5   0.0772
Ti20     Ti     0.8462   0.5   0.9228
Ce21     Ce     0.9327   0.5   0.1954
Ce22     Ce     0.0673   0.5   0.1954
Ce23     Ce     0.0   0.5673   0.3046
Ce24     Ce     0.0   0.4327   0.3046
V25     V     0.0   0.9049   0.5
V26     V     0.9049   0.0   0.5
V27     V     0.0951   0.0   0.5
V28     V     0.0   0.0951   0.5
Er29     Er     0.5   0.2703   0.0
Ti30     Ti     0.5   0.1538   0.0772
Ti31     Ti     0.5   0.1538   0.9228
Er32     Er     0.2297   0.0   0.5
Ti33     Ti     0.3462   0.0   0.4228
Ti34     Ti     0.3462   0.0   0.5772
Er35     Er     0.7703   0.0   0.5
Ti36     Ti     0.6538   0.0   0.4228
Ti37     Ti     0.6538   0.0   0.5772
Ce38     Ce     0.5673   0.0   0.6954
Ce39     Ce     0.4327   0.0   0.6954
Ce40     Ce     0.5   0.9327   0.8046
Ce41     Ce     0.5   0.0673   0.8046
Er42     Er     0.5   0.7297   0.0
Ti43     Ti     0.5   0.8462   0.0772
Ti44     Ti     0.5   0.8462   0.9228
Ce45     Ce     0.5   0.9327   0.1954
Ce46     Ce     0.5   0.0673   0.1954
Ce47     Ce     0.5673   0.0   0.3046
Ce48     Ce     0.4327   0.0   0.3046
loop_
_geom_bond_atom_site_label_1
_geom_bond_atom_site_label_2
_geom_bond_distance
_geom_bond_site_symmetry_2
_ccdc_geom_bond_type
V1     Er29    10.0   .     S
V1     V2    10.0   .     S
V1     V3    10.0   .     S
V2     Er5    10.0   .     S
V2     V4    10.0   .     S
V3     Er18    10.0   .     S
V3     V4    10.0   .     S
V4     Er42    10.0   .     S
Er5     Ti7    10.0   1_554     S
Er5     Ti6    10.0   .     S
Ti6     Ti7    10.0   1_554     S
Ti6     Ce22    10.0   .     S
Ti7     Er5    10.0   1_556     S
Ti7     Ti6    10.0   1_556     S
Ti7     Ce17    10.0   .     S
Er8     Ti9    10.0   .     S
Er8     Ti10    10.0   .     S
Er8     V28    10.0   .     S
Ti9     Ti10    10.0   .     S
Ti9     Ce24    10.0   .     S
Ti10     Ce15    10.0   .     S
Er11     Ti12    10.0   .     S
Er11     Ti13    10.0   .     S
Er11     V25    10.0   .     S
Ti12     Ti13    10.0   .     S
Ti12     Ce23    10.0   .     S
Ti13     Ce14    10.0   .     S
Ce14     Ce15    9.999   .     S
Ce14     Ce17    10.0   .     S
Ce14     Ce16    10.0   1_455     S
Ce15     Ce16    10.0   1_455     S
Ce15     Ce17    10.0   .     S
Ce16     Ce15    10.0   1_655     S
Ce16     Ce14    10.0   1_655     S
Ce16     Ce17    9.999   1_655     S
Ce16     Ti20    10.0   .     S
Ce17     Ce16    9.999   1_455     S
Er18     Ti20    10.0   1_554     S
Er18     Ti19    10.0   .     S
Ti19     Ti20    10.0   1_554     S
Ti19     Ce21    10.0   .     S
Ti20     Er18    10.0   1_556     S
Ti20     Ti19    10.0   1_556     S
Ce21     Ce22    9.999   1_655     S
Ce21     Ce23    10.0   1_655     S
Ce21     Ce24    10.0   1_655     S
Ce22     Ce21    9.999   1_455     S
Ce22     Ce23    10.0   .     S
Ce22     Ce24    10.0   .     S
Ce23     Ce21    10.0   1_455     S
Ce23     Ce24    9.999   .     S
Ce24     Ce21    10.0   1_455     S
V25     V27    10.0   1_565     S
V25     V26    10.0   1_465     S
V26     Er35    10.0   .     S
V26     V28    10.0   1_655     S
V26     V25    10.0   1_645     S
V27     Er32    10.0   .     S
V27     V28    10.0   .     S
V27     V25    10.0   1_545     S
V28     V26    10.0   1_455     S
Er29     Ti31    10.0   1_554     S
Er29     Ti30    10.0   .     S
Ti30     Ti31    10.0   1_554     S
Ti30     Ce46    10.0   .     S
Ti31     Er29    10.0   1_556     S
Ti31     Ti30    10.0   1_556     S
Ti31     Ce41    10.0   .     S
Er32     Ti33    10.0   .     S
Er32     Ti34    10.0   .     S
Ti33     Ti34    10.0   .     S
Ti33     Ce48    10.0   .     S
Ti34     Ce39    10.0   .     S
Er35     Ti36    10.0   .     S
Er35     Ti37    10.0   .     S
Ti36     Ti37    10.0   .     S
Ti36     Ce47    10.0   .     S
Ti37     Ce38    10.0   .     S
Ce38     Ce39    9.999   .     S
Ce38     Ce40    10.0   1_545     S
Ce38     Ce41    10.0   .     S
Ce39     Ce41    10.0   .     S
Ce39     Ce40    10.0   1_545     S
Ce40     Ce39    10.0   1_565     S
Ce40     Ce38    10.0   1_565     S
Ce40     Ce41    9.999   1_565     S
Ce40     Ti44    10.0   .     S
Ce41     Ce40    9.999   1_545     S
Er42     Ti44    10.0   1_554     S
Er42     Ti43    10.0   .     S
Ti43     Ti44    10.0   1_554     S
Ti43     Ce45    10.0   .     S
Ti44     Er42    10.0   1_556     S
Ti44     Ti43    10.0   1_556     S
Ce45     Ce46    9.999   1_565     S
Ce45     Ce48    10.0   1_565     S
Ce45     Ce47    10.0   1_565     S
Ce46     Ce45    9.999   1_545     S
Ce46     Ce48    10.0   .     S
Ce46     Ce47    10.0   .     S
Ce47     Ce45    10.0   1_545     S
Ce47     Ce48    9.999   .     S
Ce48     Ce45    10.0   1_545     S
