data_tfpa
_audit_creation_date              2020-02-04
_audit_creation_method            'Pymatgen'
_symmetry_space_group_name_H-M    'P1'
_symmetry_Int_Tables_number       1
loop_
_symmetry_equiv_pos_as_xyz
  x,y,z
_cell_length_a                    125.9224
_cell_length_b                    125.9224
_cell_length_c                    34.4438
_cell_angle_alpha                 90.0
_cell_angle_beta                 90.0
_cell_angle_gamma                 120.0
loop_
_atom_site_label
_atom_site_type_symbol
_atom_site_fract_x
_atom_site_fract_y
_atom_site_fract_z
V1     V     0.4771   0.5229   0.3548
V2     V     0.5229   0.4771   0.3548
V3     V     0.4771   0.5229   0.6452
V4     V     0.5229   0.4771   0.6452
V5     V     0.9542   0.4771   0.6452
V6     V     0.0458   0.5229   0.6452
V7     V     0.0458   0.5229   0.3548
V8     V     0.9542   0.4771   0.3548
Ce9     Ce     0.4454   0.5546   0.8548
Ce10     Ce     0.4454   0.5546   0.1452
Ce11     Ce     0.1093   0.5546   0.8548
Ce12     Ce     0.1093   0.5546   0.1452
Ce13     Ce     0.4454   0.8907   0.8548
Ce14     Ce     0.4454   0.8907   0.1452
Er15     Er     0.4057   0.5943   0.0
Er16     Er     0.1887   0.5943   0.0
Er17     Er     0.4057   0.8113   0.0
Ti18     Ti     0.3598   0.7196   0.0
Ti19     Ti     0.3598   0.6402   0.0
Ti20     Ti     0.2804   0.6402   0.0
V21     V     0.5229   0.0458   0.6452
V22     V     0.4771   0.9542   0.6452
V23     V     0.5229   0.0458   0.3548
V24     V     0.4771   0.9542   0.3548
Ce25     Ce     0.8907   0.4454   0.1452
Ce26     Ce     0.8907   0.4454   0.8548
Ce27     Ce     0.5546   0.4454   0.8548
Ce28     Ce     0.5546   0.4454   0.1452
Ce29     Ce     0.5546   0.1093   0.8548
Ce30     Ce     0.5546   0.1093   0.1452
Er31     Er     0.5943   0.4057   0.0
Er32     Er     0.8113   0.4057   0.0
Er33     Er     0.5943   0.1887   0.0
Ti34     Ti     0.7196   0.3598   0.0
Ti35     Ti     0.6402   0.3598   0.0
Ti36     Ti     0.6402   0.2804   0.0
loop_
_geom_bond_atom_site_label_1
_geom_bond_atom_site_label_2
_geom_bond_distance
_geom_bond_site_symmetry_2
_ccdc_geom_bond_type
V1     Ce10    10.0   .     S
V1     V2    10.0   .     S
V1     V3    10.0   .     S
V2     Ce28    10.0   .     S
V2     V4    10.0   .     S
V3     Ce9    10.0   .     S
V3     V4    10.0   .     S
V4     Ce27    10.0   .     S
V5     Ce26    10.0   .     S
V5     V6    10.0   1_655     S
V5     V8    10.0   .     S
V6     Ce11    10.0   .     S
V6     V5    10.0   1_455     S
V6     V7    10.0   .     S
V7     Ce12    10.0   .     S
V7     V8    10.0   1_455     S
V8     Ce25    10.0   .     S
V8     V7    10.0   1_655     S
Ce9     Er15    10.0   1_556     S
Ce9     Ce10    10.0   1_556     S
Ce10     Er15    10.0   .     S
Ce10     Ce9    10.0   1_554     S
Ce11     Er16    10.0   1_556     S
Ce11     Ce12    10.0   1_556     S
Ce12     Er16    10.0   .     S
Ce12     Ce11    10.0   1_554     S
Ce13     Er17    10.0   1_556     S
Ce13     Ce14    10.0   1_556     S
Ce13     V22    10.0   .     S
Ce14     Er17    10.0   .     S
Ce14     Ce13    10.0   1_554     S
Ce14     V24    10.0   .     S
Er15     Ce9    10.0   1_554     S
Er15     Ti19    10.0   .     S
Er16     Ce11    10.0   1_554     S
Er16     Ti20    10.0   .     S
Er17     Ce13    10.0   1_554     S
Er17     Ti18    10.0   .     S
Ti18     Ti20    10.0   .     S
Ti18     Ti19    10.0   .     S
Ti19     Ti20    10.0   .     S
V21     Ce29    10.0   .     S
V21     V22    10.0   1_545     S
V21     V23    10.0   .     S
V22     V21    10.0   1_565     S
V22     V24    10.0   .     S
V23     Ce30    10.0   .     S
V23     V24    10.0   1_545     S
V24     V23    10.0   1_565     S
Ce25     Ce26    10.0   1_554     S
Ce25     Er32    10.0   .     S
Ce26     Ce25    10.0   1_556     S
Ce26     Er32    10.0   1_556     S
Ce27     Er31    10.0   1_556     S
Ce27     Ce28    10.0   1_556     S
Ce28     Ce27    10.0   1_554     S
Ce28     Er31    10.0   .     S
Ce29     Er33    10.0   1_556     S
Ce29     Ce30    10.0   1_556     S
Ce30     Er33    10.0   .     S
Ce30     Ce29    10.0   1_554     S
Er31     Ce27    10.0   1_554     S
Er31     Ti35    10.0   .     S
Er32     Ce26    10.0   1_554     S
Er32     Ti34    10.0   .     S
Er33     Ce29    10.0   1_554     S
Er33     Ti36    10.0   .     S
Ti34     Ti36    10.0   .     S
Ti34     Ti35    10.0   .     S
Ti35     Ti36    10.0   .     S
