data_tfy
_audit_creation_date              2020-02-04
_audit_creation_method            'Pymatgen'
_symmetry_space_group_name_H-M    'P1'
_symmetry_Int_Tables_number       1
loop_
_symmetry_equiv_pos_as_xyz
  x,y,z
_cell_length_a                    92.0325
_cell_length_b                    92.0325
_cell_length_c                    92.0325
_cell_angle_alpha                 90.0
_cell_angle_beta                 90.0
_cell_angle_gamma                 90.0
loop_
_atom_site_label
_atom_site_type_symbol
_atom_site_fract_x
_atom_site_fract_y
_atom_site_fract_z
Er1     Er     0.9676   0.8537   0.0
Er2     Er     0.0   0.9676   0.8537
Er3     Er     0.8537   0.0   0.9676
Ti4     Ti     0.9404   0.9404   0.9404
Er5     Er     0.0   0.0324   0.8537
Er6     Er     0.0324   0.1463   0.0
Ti7     Ti     0.0596   0.0596   0.9404
Er8     Er     0.0324   0.8537   0.0
Er9     Er     0.1463   0.0   0.9676
Ti10     Ti     0.0596   0.9404   0.9404
Er11     Er     0.8537   0.0   0.0324
Er12     Er     0.0   0.9676   0.1463
Ti13     Ti     0.9404   0.9404   0.0596
Er14     Er     0.1463   0.0   0.0324
Ti15     Ti     0.0596   0.9404   0.0596
Er16     Er     0.9676   0.1463   0.0
Ti17     Ti     0.9404   0.0596   0.9404
Er18     Er     0.0   0.0324   0.1463
Ti19     Ti     0.9404   0.0596   0.0596
Ti20     Ti     0.0596   0.0596   0.0596
V21     V     0.0   0.75   0.0
V22     V     0.0   0.25   0.0
Er23     Er     0.0324   0.5   0.8537
Er24     Er     0.9676   0.5   0.8537
Er25     Er     0.8537   0.4676   0.0
Er26     Er     0.0   0.3537   0.0324
Ti27     Ti     0.9404   0.4404   0.0596
Er28     Er     0.0   0.3537   0.9676
Ti29     Ti     0.9404   0.4404   0.9404
Er30     Er     0.1463   0.4676   0.0
Ti31     Ti     0.0596   0.4404   0.9404
Ti32     Ti     0.0596   0.4404   0.0596
Er33     Er     0.0   0.6463   0.0324
Er34     Er     0.9676   0.5   0.1463
Ti35     Ti     0.9404   0.5596   0.0596
Er36     Er     0.0324   0.5   0.1463
Ti37     Ti     0.0596   0.5596   0.0596
Er38     Er     0.8537   0.5324   0.0
Er39     Er     0.0   0.6463   0.9676
Ti40     Ti     0.9404   0.5596   0.9404
Er41     Er     0.1463   0.5324   0.0
Ti42     Ti     0.0596   0.5596   0.9404
V43     V     0.75   0.0   0.0
V44     V     0.25   0.0   0.0
Er45     Er     0.5   0.8537   0.0324
Er46     Er     0.5   0.8537   0.9676
Er47     Er     0.5324   0.0   0.1463
Ti48     Ti     0.5596   0.9404   0.0596
Er49     Er     0.5324   0.0   0.8537
Er50     Er     0.6463   0.9676   0.0
Ti51     Ti     0.5596   0.9404   0.9404
Er52     Er     0.5   0.1463   0.0324
Er53     Er     0.5   0.1463   0.9676
Er54     Er     0.6463   0.0324   0.0
Ti55     Ti     0.5596   0.0596   0.9404
Ti56     Ti     0.5596   0.0596   0.0596
Er57     Er     0.3537   0.0324   0.0
Ti58     Ti     0.4404   0.0596   0.9404
Ti59     Ti     0.4404   0.0596   0.0596
Er60     Er     0.4676   0.0   0.8537
Er61     Er     0.3537   0.9676   0.0
Ti62     Ti     0.4404   0.9404   0.9404
Er63     Er     0.4676   0.0   0.1463
Ti64     Ti     0.4404   0.9404   0.0596
V65     V     0.5   0.0   0.75
V66     V     0.75   0.0   0.5
V67     V     0.25   0.0   0.5
V68     V     0.5   0.0   0.25
Er69     Er     0.4676   0.8537   0.5
Er70     Er     0.5324   0.8537   0.5
Er71     Er     0.3537   0.0   0.5324
Ti72     Ti     0.4404   0.9404   0.5596
Er73     Er     0.4676   0.1463   0.5
Ti74     Ti     0.4404   0.0596   0.5596
Er75     Er     0.5324   0.1463   0.5
Er76     Er     0.5   0.9676   0.6463
Er77     Er     0.6463   0.0   0.5324
Ti78     Ti     0.5596   0.9404   0.5596
Er79     Er     0.5   0.0324   0.6463
Ti80     Ti     0.5596   0.0596   0.5596
Er81     Er     0.3537   0.0   0.4676
Ti82     Ti     0.4404   0.9404   0.4404
Ti83     Ti     0.4404   0.0596   0.4404
Er84     Er     0.5   0.9676   0.3537
Er85     Er     0.6463   0.0   0.4676
Ti86     Ti     0.5596   0.9404   0.4404
Er87     Er     0.5   0.0324   0.3537
Ti88     Ti     0.5596   0.0596   0.4404
V89     V     0.75   0.5   0.0
V90     V     0.25   0.5   0.0
V91     V     0.5   0.75   0.0
V92     V     0.5   0.25   0.0
Er93     Er     0.5   0.4676   0.8537
Er94     Er     0.5   0.5324   0.8537
Er95     Er     0.6463   0.5   0.9676
Er96     Er     0.5324   0.6463   0.0
Ti97     Ti     0.5596   0.5596   0.9404
Er98     Er     0.5   0.5324   0.1463
Er99     Er     0.5324   0.3537   0.0
Ti100     Ti     0.5596   0.4404   0.9404
Er101     Er     0.5   0.4676   0.1463
Er102     Er     0.6463   0.5   0.0324
Ti103     Ti     0.5596   0.4404   0.0596
Ti104     Ti     0.5596   0.5596   0.0596
Er105     Er     0.4676   0.3537   0.0
Ti106     Ti     0.4404   0.4404   0.9404
Ti107     Ti     0.4404   0.4404   0.0596
Er108     Er     0.3537   0.5   0.9676
Er109     Er     0.4676   0.6463   0.0
Ti110     Ti     0.4404   0.5596   0.9404
Er111     Er     0.3537   0.5   0.0324
Ti112     Ti     0.4404   0.5596   0.0596
V113     V     0.75   0.5   0.5
V114     V     0.5   0.5   0.25
V115     V     0.5   0.25   0.5
V116     V     0.5   0.75   0.5
V117     V     0.5   0.5   0.75
V118     V     0.25   0.5   0.5
Er119     Er     0.5324   0.5   0.6463
Er120     Er     0.6463   0.5324   0.5
Er121     Er     0.5   0.6463   0.5324
Ti122     Ti     0.5596   0.5596   0.5596
Er123     Er     0.4676   0.5   0.3537
Er124     Er     0.4676   0.5   0.6463
Er125     Er     0.3537   0.5324   0.5
Ti126     Ti     0.4404   0.5596   0.4404
Ti127     Ti     0.4404   0.5596   0.5596
Er128     Er     0.5324   0.5   0.3537
Er129     Er     0.5   0.6463   0.4676
Ti130     Ti     0.5596   0.5596   0.4404
Er131     Er     0.5   0.3537   0.4676
Er132     Er     0.6463   0.4676   0.5
Er133     Er     0.5   0.3537   0.5324
Er134     Er     0.3537   0.4676   0.5
Ti135     Ti     0.4404   0.4404   0.5596
Ti136     Ti     0.5596   0.4404   0.5596
Ti137     Ti     0.5596   0.4404   0.4404
Ti138     Ti     0.4404   0.4404   0.4404
V139     V     0.0   0.0   0.75
V140     V     0.0   0.0   0.25
Er141     Er     0.8537   0.0324   0.5
Er142     Er     0.8537   0.9676   0.5
Er143     Er     0.0   0.8537   0.5324
Er144     Er     0.9676   0.0   0.6463
Ti145     Ti     0.9404   0.9404   0.5596
Er146     Er     0.0   0.1463   0.5324
Ti147     Ti     0.9404   0.0596   0.5596
Er148     Er     0.1463   0.0324   0.5
Er149     Er     0.0324   0.0   0.6463
Ti150     Ti     0.0596   0.9404   0.5596
Er151     Er     0.1463   0.9676   0.5
Er152     Er     0.0324   0.0   0.3537
Ti153     Ti     0.0596   0.9404   0.4404
Ti154     Ti     0.0596   0.0596   0.5596
Er155     Er     0.0   0.8537   0.4676
Er156     Er     0.9676   0.0   0.3537
Ti157     Ti     0.9404   0.9404   0.4404
Er158     Er     0.0   0.1463   0.4676
Ti159     Ti     0.9404   0.0596   0.4404
Ti160     Ti     0.0596   0.0596   0.4404
V161     V     0.0   0.75   0.5
V162     V     0.0   0.25   0.5
V163     V     0.0   0.5   0.75
V164     V     0.0   0.5   0.25
Er165     Er     0.8537   0.5   0.4676
Er166     Er     0.8537   0.5   0.5324
Er167     Er     0.1463   0.5   0.4676
Er168     Er     0.0   0.5324   0.3537
Ti169     Ti     0.9404   0.5596   0.4404
Ti170     Ti     0.0596   0.5596   0.4404
Er171     Er     0.9676   0.6463   0.5
Er172     Er     0.0   0.5324   0.6463
Ti173     Ti     0.9404   0.5596   0.5596
Er174     Er     0.0324   0.6463   0.5
Ti175     Ti     0.0596   0.5596   0.5596
Er176     Er     0.1463   0.5   0.5324
Er177     Er     0.9676   0.3537   0.5
Er178     Er     0.0   0.4676   0.6463
Ti179     Ti     0.9404   0.4404   0.5596
Er180     Er     0.0324   0.3537   0.5
Ti181     Ti     0.0596   0.4404   0.5596
Er182     Er     0.0   0.4676   0.3537
Ti183     Ti     0.9404   0.4404   0.4404
Ti184     Ti     0.0596   0.4404   0.4404
loop_
_geom_bond_atom_site_label_1
_geom_bond_atom_site_label_2
_geom_bond_distance
_geom_bond_site_symmetry_2
_ccdc_geom_bond_type
Er1     Ti13    10.0   .     S
Er1     Ti4    10.0   1_554     S
Er1     V21    10.001   1_655     S
Er2     Ti10    10.0   .     S
Er2     Ti4    10.0   1_455     S
Er2     V139    10.001   1_565     S
Er3     Ti17    10.0   .     S
Er3     Ti4    10.0   1_545     S
Er3     V43    10.001   1_556     S
Ti4     Er1    10.0   1_556     S
Ti4     Er2    10.0   1_655     S
Ti4     Er3    10.0   1_565     S
Er5     Ti17    10.0   1_455     S
Er5     Ti7    10.0   .     S
Er5     V139    10.001   .     S
Er6     Ti20    10.0   .     S
Er6     Ti7    10.0   1_554     S
Er6     V22    10.001   .     S
Ti7     Er6    10.0   1_556     S
Ti7     Er9    10.0   .     S
Er8     Ti15    10.0   .     S
Er8     Ti10    10.0   1_554     S
Er8     V21    10.001   .     S
Er9     Ti10    10.0   1_545     S
Er9     V44    10.001   1_556     S
Ti10     Er8    10.0   1_556     S
Ti10     Er9    10.0   1_565     S
Er11     Ti19    10.0   .     S
Er11     Ti13    10.0   1_545     S
Er11     V43    10.001   .     S
Er12     Ti15    10.0   .     S
Er12     Ti13    10.0   1_455     S
Er12     V140    10.001   1_565     S
Ti13     Er11    10.0   1_565     S
Ti13     Er12    10.0   1_655     S
Er14     Ti20    10.0   .     S
Er14     Ti15    10.0   1_545     S
Er14     V44    10.001   .     S
Ti15     Er14    10.0   1_565     S
Er16     Ti19    10.0   .     S
Er16     Ti17    10.0   1_554     S
Er16     V22    10.001   1_655     S
Ti17     Er5    10.0   1_655     S
Ti17     Er16    10.0   1_556     S
Er18     Ti20    10.0   .     S
Er18     Ti19    10.0   1_455     S
Er18     V140    10.001   .     S
Ti19     Er18    10.0   1_655     S
V21     Er1    10.001   1_455     S
V21     Er39    10.001   1_554     S
V21     Er33    10.001   .     S
V22     Er16    10.001   1_455     S
V22     Er26    10.001   .     S
V22     Er28    10.001   1_554     S
Er23     Ti31    10.0   .     S
Er23     Ti42    10.0   .     S
Er23     V163    10.001   .     S
Er24     Ti29    10.0   .     S
Er24     Ti40    10.0   .     S
Er24     V163    10.001   1_655     S
Er25     Ti27    10.0   .     S
Er25     Ti29    10.0   1_554     S
Er25     V89    10.001   .     S
Er26     Ti32    10.0   .     S
Er26     Ti27    10.0   1_455     S
Ti27     Er26    10.0   1_655     S
Ti27     Er34    10.0   .     S
Er28     V22    10.001   1_556     S
Er28     Ti31    10.0   .     S
Er28     Ti29    10.0   1_455     S
Ti29     Er25    10.0   1_556     S
Ti29     Er28    10.0   1_655     S
Er30     Ti32    10.0   .     S
Er30     Ti31    10.0   1_554     S
Er30     V90    10.001   .     S
Ti31     Er30    10.0   1_556     S
Ti32     Er36    10.0   .     S
Er33     Ti37    10.0   .     S
Er33     Ti35    10.0   1_455     S
Er34     Ti35    10.0   .     S
Er34     V164    10.001   1_655     S
Ti35     Er33    10.0   1_655     S
Ti35     Er38    10.0   .     S
Er36     Ti37    10.0   .     S
Er36     V164    10.001   .     S
Ti37     Er41    10.0   .     S
Er38     Ti40    10.0   1_554     S
Er38     V89    10.001   .     S
Er39     V21    10.001   1_556     S
Er39     Ti42    10.0   .     S
Er39     Ti40    10.0   1_455     S
Ti40     Er38    10.0   1_556     S
Ti40     Er39    10.0   1_655     S
Er41     Ti42    10.0   1_554     S
Er41     V90    10.001   .     S
Ti42     Er41    10.0   1_556     S
V43     Er3    10.001   1_554     S
V43     Er54    10.001   .     S
V43     Er50    10.001   1_545     S
V44     Er9    10.001   1_554     S
V44     Er61    10.001   1_545     S
V44     Er57    10.001   .     S
Er45     Ti64    10.0   .     S
Er45     Ti48    10.0   .     S
Er45     V91    10.001   .     S
Er46     Ti62    10.0   .     S
Er46     Ti51    10.0   .     S
Er46     V91    10.001   1_556     S
Er47     Ti56    10.0   .     S
Er47     Ti48    10.0   1_545     S
Er47     V68    10.001   .     S
Ti48     Er47    10.0   1_565     S
Ti48     Er50    10.0   .     S
Er49     Ti55    10.0   .     S
Er49     Ti51    10.0   1_545     S
Er49     V65    10.001   .     S
Er50     V43    10.001   1_565     S
Er50     Ti51    10.0   1_554     S
Ti51     Er49    10.0   1_565     S
Ti51     Er50    10.0   1_556     S
Er52     Ti59    10.0   .     S
Er52     Ti56    10.0   .     S
Er52     V92    10.001   .     S
Er53     Ti58    10.0   .     S
Er53     Ti55    10.0   .     S
Er53     V92    10.001   1_556     S
Er54     Ti56    10.0   .     S
Er54     Ti55    10.0   1_554     S
Ti55     Er54    10.0   1_556     S
Er57     Ti59    10.0   .     S
Er57     Ti58    10.0   1_554     S
Ti58     Er57    10.0   1_556     S
Ti58     Er60    10.0   .     S
Ti59     Er63    10.0   .     S
Er60     Ti62    10.0   1_545     S
Er60     V65    10.001   .     S
Er61     V44    10.001   1_565     S
Er61     Ti64    10.0   .     S
Er61     Ti62    10.0   1_554     S
Ti62     Er60    10.0   1_565     S
Ti62     Er61    10.0   1_556     S
Er63     Ti64    10.0   1_545     S
Er63     V68    10.001   .     S
Ti64     Er63    10.0   1_565     S
V65     Er76    10.001   1_545     S
V65     Er79    10.001   .     S
V66     Er142    10.001   1_545     S
V66     Er141    10.001   .     S
V66     Er85    10.001   .     S
V66     Er77    10.001   .     S
V67     Er148    10.001   .     S
V67     Er151    10.001   1_545     S
V67     Er71    10.001   .     S
V67     Er81    10.001   .     S
V68     Er87    10.001   .     S
V68     Er84    10.001   1_545     S
Er69     Ti82    10.0   .     S
Er69     Ti72    10.0   .     S
Er69     V116    10.001   .     S
Er70     Ti86    10.0   .     S
Er70     Ti78    10.0   .     S
Er70     V116    10.001   .     S
Er71     Ti74    10.0   .     S
Er71     Ti72    10.0   1_545     S
Ti72     Er71    10.0   1_565     S
Ti72     Er76    10.0   .     S
Er73     Ti83    10.0   .     S
Er73     Ti74    10.0   .     S
Er73     V115    10.001   .     S
Ti74     Er79    10.0   .     S
Er75     Ti88    10.0   .     S
Er75     Ti80    10.0   .     S
Er75     V115    10.001   .     S
Er76     V65    10.001   1_565     S
Er76     Ti78    10.0   .     S
Er77     Ti80    10.0   .     S
Er77     Ti78    10.0   1_545     S
Ti78     Er77    10.0   1_565     S
Er79     Ti80    10.0   .     S
Er81     Ti83    10.0   .     S
Er81     Ti82    10.0   1_545     S
Ti82     Er81    10.0   1_565     S
Ti82     Er84    10.0   .     S
Ti83     Er87    10.0   .     S
Er84     V68    10.001   1_565     S
Er84     Ti86    10.0   .     S
Er85     Ti88    10.0   .     S
Er85     Ti86    10.0   1_545     S
Ti86     Er85    10.0   1_565     S
Er87     Ti88    10.0   .     S
V89     Er95    10.001   1_554     S
V89     Er102    10.001   .     S
V90     Er111    10.001   .     S
V90     Er108    10.001   1_554     S
V91     Er46    10.001   1_554     S
V91     Er109    10.001   .     S
V91     Er96    10.001   .     S
V92     Er99    10.001   .     S
V92     Er105    10.001   .     S
V92     Er53    10.001   1_554     S
Er93     Ti106    10.0   .     S
Er93     Ti100    10.0   .     S
Er93     V117    10.001   .     S
Er94     Ti110    10.0   .     S
Er94     Ti97    10.0   .     S
Er94     V117    10.001   .     S
Er95     V89    10.001   1_556     S
Er95     Ti100    10.0   .     S
Er95     Ti97    10.0   .     S
Er96     Ti104    10.0   .     S
Er96     Ti97    10.0   1_554     S
Ti97     Er96    10.0   1_556     S
Er98     Ti112    10.0   .     S
Er98     Ti104    10.0   .     S
Er98     V114    10.001   .     S
Er99     Ti103    10.0   .     S
Er99     Ti100    10.0   1_554     S
Ti100     Er99    10.0   1_556     S
Er101     Ti107    10.0   .     S
Er101     Ti103    10.0   .     S
Er101     V114    10.001   .     S
Er102     Ti103    10.0   .     S
Er102     Ti104    10.0   .     S
Er105     Ti107    10.0   .     S
Er105     Ti106    10.0   1_554     S
Ti106     Er105    10.0   1_556     S
Ti106     Er108    10.0   .     S
Ti107     Er111    10.0   .     S
Er108     V90    10.001   1_556     S
Er108     Ti110    10.0   .     S
Er109     Ti112    10.0   .     S
Er109     Ti110    10.0   1_554     S
Ti110     Er109    10.0   1_556     S
Er111     Ti112    10.0   .     S
V113     Er165    10.001   .     S
V113     Er166    10.001   .     S
V113     Er132    10.001   .     S
V113     Er120    10.001   .     S
V114     Er128    10.001   .     S
V114     Er123    10.001   .     S
V115     Er131    10.001   .     S
V115     Er133    10.001   .     S
V116     Er121    10.001   .     S
V116     Er129    10.001   .     S
V117     Er124    10.001   .     S
V117     Er119    10.001   .     S
V118     Er125    10.001   .     S
V118     Er134    10.001   .     S
V118     Er176    10.001   .     S
V118     Er167    10.001   .     S
Er119     Ti136    10.0   .     S
Er119     Ti122    10.0   .     S
Er120     Ti130    10.0   .     S
Er120     Ti122    10.0   .     S
Er121     Ti127    10.0   .     S
Er121     Ti122    10.0   .     S
Er123     Ti138    10.0   .     S
Er123     Ti126    10.0   .     S
Er124     Ti135    10.0   .     S
Er124     Ti127    10.0   .     S
Er125     Ti126    10.0   .     S
Er125     Ti127    10.0   .     S
Ti126     Er129    10.0   .     S
Er128     Ti137    10.0   .     S
Er128     Ti130    10.0   .     S
Er129     Ti130    10.0   .     S
Er131     Ti138    10.0   .     S
Er131     Ti137    10.0   .     S
Er132     Ti136    10.0   .     S
Er132     Ti137    10.0   .     S
Er133     Ti135    10.0   .     S
Er133     Ti136    10.0   .     S
Er134     Ti138    10.0   .     S
Er134     Ti135    10.0   .     S
V139     Er2    10.001   1_545     S
V139     Er149    10.001   .     S
V139     Er144    10.001   1_455     S
V140     Er12    10.001   1_545     S
V140     Er156    10.001   1_455     S
V140     Er152    10.001   .     S
Er141     Ti147    10.0   .     S
Er141     Ti159    10.0   .     S
Er142     V66    10.001   1_565     S
Er142     Ti157    10.0   .     S
Er142     Ti145    10.0   .     S
Er143     Ti150    10.0   .     S
Er143     Ti145    10.0   1_455     S
Er143     V161    10.001   .     S
Er144     V139    10.001   1_655     S
Er144     Ti147    10.0   .     S
Er144     Ti145    10.0   1_545     S
Ti145     Er143    10.0   1_655     S
Ti145     Er144    10.0   1_565     S
Er146     Ti154    10.0   .     S
Er146     Ti147    10.0   1_455     S
Er146     V162    10.001   .     S
Ti147     Er146    10.0   1_655     S
Er148     Ti160    10.0   .     S
Er148     Ti154    10.0   .     S
Er149     Ti154    10.0   .     S
Er149     Ti150    10.0   1_545     S
Ti150     Er149    10.0   1_565     S
Ti150     Er151    10.0   .     S
Er151     V67    10.001   1_565     S
Er151     Ti153    10.0   .     S
Er152     Ti160    10.0   .     S
Er152     Ti153    10.0   1_545     S
Ti153     Er152    10.0   1_565     S
Ti153     Er155    10.0   .     S
Er155     Ti157    10.0   1_455     S
Er155     V161    10.001   .     S
Er156     V140    10.001   1_655     S
Er156     Ti159    10.0   .     S
Er156     Ti157    10.0   1_545     S
Ti157     Er155    10.0   1_655     S
Ti157     Er156    10.0   1_565     S
Er158     Ti160    10.0   .     S
Er158     Ti159    10.0   1_455     S
Er158     V162    10.001   .     S
Ti159     Er158    10.0   1_655     S
V161     Er171    10.001   1_455     S
V161     Er174    10.001   .     S
V162     Er180    10.001   .     S
V162     Er177    10.001   1_455     S
V163     Er24    10.001   1_455     S
V163     Er172    10.001   .     S
V163     Er178    10.001   .     S
V164     Er34    10.001   1_455     S
V164     Er182    10.001   .     S
V164     Er168    10.001   .     S
Er165     Ti183    10.0   .     S
Er165     Ti169    10.0   .     S
Er166     Ti179    10.0   .     S
Er166     Ti173    10.0   .     S
Er167     Ti184    10.0   .     S
Er167     Ti170    10.0   .     S
Er168     Ti170    10.0   .     S
Er168     Ti169    10.0   1_455     S
Ti169     Er168    10.0   1_655     S
Ti169     Er171    10.0   .     S
Ti170     Er174    10.0   .     S
Er171     V161    10.001   1_655     S
Er171     Ti173    10.0   .     S
Er172     Ti175    10.0   .     S
Er172     Ti173    10.0   1_455     S
Ti173     Er172    10.0   1_655     S
Er174     Ti175    10.0   .     S
Ti175     Er176    10.0   .     S
Er176     Ti181    10.0   .     S
Er177     V162    10.001   1_655     S
Er177     Ti183    10.0   .     S
Er177     Ti179    10.0   .     S
Er178     Ti181    10.0   .     S
Er178     Ti179    10.0   1_455     S
Ti179     Er178    10.0   1_655     S
Er180     Ti184    10.0   .     S
Er180     Ti181    10.0   .     S
Er182     Ti184    10.0   .     S
Er182     Ti183    10.0   1_455     S
Ti183     Er182    10.0   1_655     S
