data_thea
_audit_creation_date              2020-02-04
_audit_creation_method            'Pymatgen'
_symmetry_space_group_name_H-M    'P1'
_symmetry_Int_Tables_number       1
loop_
_symmetry_equiv_pos_as_xyz
  x,y,z
_cell_length_a                    58.637
_cell_length_b                    58.637
_cell_length_c                    58.637
_cell_angle_alpha                 90.0
_cell_angle_beta                 90.0
_cell_angle_gamma                 90.0
loop_
_atom_site_label
_atom_site_type_symbol
_atom_site_fract_x
_atom_site_fract_y
_atom_site_fract_z
V1     V     0.3454   0.3454   0.2248
V2     V     0.3454   0.2248   0.3454
V3     V     0.2248   0.3454   0.3454
V4     V     0.2248   0.3454   0.6546
V5     V     0.3454   0.2248   0.6546
V6     V     0.3454   0.3454   0.7752
V7     V     0.2248   0.6546   0.6546
V8     V     0.3454   0.6546   0.7752
V9     V     0.3454   0.7752   0.6546
V10     V     0.6546   0.3454   0.2248
V11     V     0.6546   0.2248   0.3454
V12     V     0.7752   0.3454   0.3454
V13     V     0.6546   0.6546   0.7752
V14     V     0.7752   0.6546   0.6546
V15     V     0.6546   0.7752   0.6546
Er16     Er     0.5853   0.4147   0.9147
Er17     Er     0.4147   0.4147   0.9147
Er18     Er     0.4147   0.5853   0.9147
Er19     Er     0.5853   0.5853   0.9147
Er20     Er     0.4147   0.4147   0.0853
Er21     Er     0.4147   0.5853   0.0853
Er22     Er     0.5853   0.5853   0.0853
Er23     Er     0.5853   0.4147   0.0853
V24     V     0.6546   0.2248   0.6546
V25     V     0.6546   0.3454   0.7752
V26     V     0.7752   0.3454   0.6546
V27     V     0.3454   0.6546   0.2248
V28     V     0.2248   0.6546   0.3454
V29     V     0.3454   0.7752   0.3454
Er30     Er     0.5853   0.9147   0.4147
Er31     Er     0.5853   0.9147   0.5853
Er32     Er     0.4147   0.9147   0.4147
Er33     Er     0.4147   0.9147   0.5853
Er34     Er     0.5853   0.0853   0.4147
Er35     Er     0.5853   0.0853   0.5853
Er36     Er     0.4147   0.0853   0.4147
Er37     Er     0.4147   0.0853   0.5853
Er38     Er     0.0853   0.4147   0.4147
Er39     Er     0.0853   0.4147   0.5853
Er40     Er     0.0853   0.5853   0.4147
Er41     Er     0.0853   0.5853   0.5853
Er42     Er     0.9147   0.4147   0.4147
Er43     Er     0.9147   0.4147   0.5853
Er44     Er     0.9147   0.5853   0.4147
Er45     Er     0.9147   0.5853   0.5853
V46     V     0.6546   0.6546   0.2248
V47     V     0.6546   0.7752   0.3454
V48     V     0.7752   0.6546   0.3454
loop_
_geom_bond_atom_site_label_1
_geom_bond_atom_site_label_2
_geom_bond_distance
_geom_bond_site_symmetry_2
_ccdc_geom_bond_type
V1     Er20    10.0   .     S
V1     V2    10.0   .     S
V1     V3    10.0   .     S
V2     Er36    10.0   .     S
V2     V3    10.0   .     S
V3     Er38    10.0   .     S
V4     Er39    10.0   .     S
V4     V5    10.0   .     S
V4     V6    10.0   .     S
V5     Er37    10.0   .     S
V5     V6    10.0   .     S
V6     Er17    10.0   .     S
V7     Er41    10.0   .     S
V7     V9    10.0   .     S
V7     V8    10.0   .     S
V8     Er18    10.0   .     S
V8     V9    10.0   .     S
V9     Er33    10.0   .     S
V10     Er23    10.0   .     S
V10     V12    10.0   .     S
V10     V11    10.0   .     S
V11     Er34    10.0   .     S
V11     V12    10.0   .     S
V12     Er42    10.0   .     S
V13     Er19    10.0   .     S
V13     V14    10.0   .     S
V13     V15    10.0   .     S
V14     Er45    10.0   .     S
V14     V15    10.0   .     S
V15     Er31    10.0   .     S
Er16     Er17    10.0   .     S
Er16     Er19    10.0   .     S
Er16     Er23    10.0   1_556     S
Er16     V25    10.0   .     S
Er17     Er18    10.0   .     S
Er17     Er20    10.0   1_556     S
Er18     Er19    10.0   .     S
Er18     Er21    10.0   1_556     S
Er19     Er22    10.0   1_556     S
Er20     Er17    10.0   1_554     S
Er20     Er21    10.0   .     S
Er20     Er23    10.0   .     S
Er21     Er22    10.0   .     S
Er21     Er18    10.0   1_554     S
Er21     V27    10.0   .     S
Er22     Er23    10.0   .     S
Er22     Er19    10.0   1_554     S
Er22     V46    10.0   .     S
Er23     Er16    10.0   1_554     S
V24     Er35    10.0   .     S
V24     V26    10.0   .     S
V24     V25    10.0   .     S
V25     V26    10.0   .     S
V26     Er43    10.0   .     S
V27     V28    10.0   .     S
V27     V29    10.0   .     S
V28     Er40    10.0   .     S
V28     V29    10.0   .     S
V29     Er32    10.0   .     S
Er30     Er31    10.0   .     S
Er30     Er32    10.0   .     S
Er30     Er34    10.0   1_565     S
Er30     V47    10.0   .     S
Er31     Er33    10.0   .     S
Er31     Er35    10.0   1_565     S
Er32     Er33    10.0   .     S
Er32     Er36    10.0   1_565     S
Er33     Er37    10.0   1_565     S
Er34     Er30    10.0   1_545     S
Er34     Er35    10.0   .     S
Er34     Er36    10.0   .     S
Er35     Er37    10.0   .     S
Er35     Er31    10.0   1_545     S
Er36     Er37    10.0   .     S
Er36     Er32    10.0   1_545     S
Er37     Er33    10.0   1_545     S
Er38     Er39    10.0   .     S
Er38     Er40    10.0   .     S
Er38     Er42    10.0   1_455     S
Er39     Er41    10.0   .     S
Er39     Er43    10.0   1_455     S
Er40     Er41    10.0   .     S
Er40     Er44    10.0   1_455     S
Er41     Er45    10.0   1_455     S
Er42     Er38    10.0   1_655     S
Er42     Er43    10.0   .     S
Er42     Er44    10.0   .     S
Er43     Er45    10.0   .     S
Er43     Er39    10.0   1_655     S
Er44     Er45    10.0   .     S
Er44     Er40    10.0   1_655     S
Er44     V48    10.0   .     S
Er45     Er41    10.0   1_655     S
V46     V47    10.0   .     S
V46     V48    10.0   .     S
V47     V48    10.0   .     S
