data_thpa
_audit_creation_date              2020-02-04
_audit_creation_method            'Pymatgen'
_symmetry_space_group_name_H-M    'P1'
_symmetry_Int_Tables_number       1
loop_
_symmetry_equiv_pos_as_xyz
  x,y,z
_cell_length_a                    54.8637
_cell_length_b                    54.8637
_cell_length_c                    54.8637
_cell_angle_alpha                 90.0
_cell_angle_beta                 90.0
_cell_angle_gamma                 90.0
loop_
_atom_site_label
_atom_site_type_symbol
_atom_site_fract_x
_atom_site_fract_y
_atom_site_fract_z
Er1     Er     0.4186   0.3347   0.1625
V2     V     0.2679   0.4343   0.1869
Er3     Er     0.1625   0.4186   0.3347
V4     V     0.1869   0.2679   0.4343
Er5     Er     0.3347   0.1625   0.4186
V6     V     0.4343   0.1869   0.2679
Er7     Er     0.3347   0.8375   0.0814
V8     V     0.4343   0.8131   0.2321
V9     V     0.1869   0.7321   0.0657
Er10     Er     0.1625   0.5814   0.1653
V11     V     0.2679   0.5657   0.3131
Er12     Er     0.4186   0.6653   0.3375
V13     V     0.0179   0.9369   0.1843
Er14     Er     0.1686   0.9125   0.0847
Er15     Er     0.9125   0.0847   0.1686
V16     V     0.9369   0.1843   0.0179
Er17     Er     0.0847   0.1686   0.9125
V18     V     0.1843   0.0179   0.9369
V19     V     0.8157   0.4821   0.9369
Er20     Er     0.9153   0.3314   0.9125
Er21     Er     0.0875   0.4153   0.1686
V22     V     0.0631   0.3157   0.0179
Er23     Er     0.8314   0.5875   0.0847
V24     V     0.9821   0.5631   0.1843
V25     V     0.0657   0.1869   0.7321
Er26     Er     0.1653   0.1625   0.5814
Er27     Er     0.0814   0.3347   0.8375
V28     V     0.2321   0.4343   0.8131
V29     V     0.3131   0.2679   0.5657
Er30     Er     0.3375   0.4186   0.6653
Er31     Er     0.1686   0.0875   0.4153
V32     V     0.0179   0.0631   0.3157
Er33     Er     0.0847   0.8314   0.5875
V34     V     0.1843   0.9821   0.5631
V35     V     0.9369   0.8157   0.4821
Er36     Er     0.9125   0.9153   0.3314
Er37     Er     0.9153   0.6686   0.5875
V38     V     0.8157   0.5179   0.5631
Er39     Er     0.8314   0.4125   0.4153
V40     V     0.9821   0.4369   0.3157
V41     V     0.0631   0.6843   0.4821
Er42     Er     0.0875   0.5847   0.3314
V43     V     0.4821   0.9369   0.8157
Er44     Er     0.3314   0.9125   0.9153
Er45     Er     0.4153   0.1686   0.0875
V46     V     0.3157   0.0179   0.0631
Er47     Er     0.5875   0.0847   0.8314
V48     V     0.5631   0.1843   0.9821
Er49     Er     0.6653   0.3375   0.4186
V50     V     0.5657   0.3131   0.2679
Er51     Er     0.8375   0.0814   0.3347
V52     V     0.8131   0.2321   0.4343
V53     V     0.7321   0.0657   0.1869
Er54     Er     0.5814   0.1653   0.1625
V55     V     0.6843   0.4821   0.0631
Er56     Er     0.5847   0.3314   0.0875
Er57     Er     0.4125   0.4153   0.8314
V58     V     0.4369   0.3157   0.9821
Er59     Er     0.6686   0.5875   0.9153
V60     V     0.5179   0.5631   0.8157
Er61     Er     0.5814   0.8347   0.3375
V62     V     0.7321   0.9343   0.3131
Er63     Er     0.8375   0.9186   0.1653
V64     V     0.8131   0.7679   0.0657
V65     V     0.5657   0.6869   0.2321
Er66     Er     0.6653   0.6625   0.0814
Er67     Er     0.1653   0.8375   0.9186
V68     V     0.0657   0.8131   0.7679
V69     V     0.2321   0.5657   0.6869
Er70     Er     0.0814   0.6653   0.6625
Er71     Er     0.3375   0.5814   0.8347
V72     V     0.3131   0.7321   0.9343
Er73     Er     0.8347   0.3375   0.5814
V74     V     0.9343   0.3131   0.7321
Er75     Er     0.9186   0.1653   0.8375
V76     V     0.7679   0.0657   0.8131
Er77     Er     0.6625   0.0814   0.6653
V78     V     0.6869   0.2321   0.5657
V79     V     0.4369   0.6843   0.5179
Er80     Er     0.4125   0.5847   0.6686
V81     V     0.6843   0.5179   0.4369
Er82     Er     0.5847   0.6686   0.4125
Er83     Er     0.6686   0.4125   0.5847
V84     V     0.5179   0.4369   0.6843
Er85     Er     0.8347   0.6625   0.9186
V86     V     0.9343   0.6869   0.7679
Er87     Er     0.9186   0.8347   0.6625
V88     V     0.7679   0.9343   0.6869
Er89     Er     0.6625   0.9186   0.8347
V90     V     0.6869   0.7679   0.9343
Er91     Er     0.4153   0.8314   0.4125
V92     V     0.3157   0.9821   0.4369
Er93     Er     0.5875   0.9153   0.6686
V94     V     0.5631   0.8157   0.5179
Er95     Er     0.3314   0.0875   0.5847
V96     V     0.4821   0.0631   0.6843
loop_
_geom_bond_atom_site_label_1
_geom_bond_atom_site_label_2
_geom_bond_distance
_geom_bond_site_symmetry_2
_ccdc_geom_bond_type
Er1     V50    10.0   .     S
Er1     Er45    10.0   .     S
Er1     V2    10.0   .     S
Er1     V6    10.0   .     S
Er1     V58    10.0   1_554     S
Er1     Er56    10.0   .     S
V2     Er21    10.0   .     S
V2     Er3    10.0   .     S
V2     V11    10.0   .     S
V2     Er10    10.0   .     S
Er3     Er21    10.0   .     S
Er3     V4    10.0   .     S
Er3     V11    10.0   .     S
Er3     V40    10.0   1_455     S
Er3     Er42    10.0   .     S
V4     Er31    10.0   .     S
V4     Er5    10.0   .     S
V4     V29    10.0   .     S
V4     Er26    10.0   .     S
Er5     Er31    10.0   .     S
Er5     V6    10.0   .     S
Er5     V29    10.0   .     S
Er5     V92    10.0   1_545     S
Er5     Er95    10.0   .     S
V6     V50    10.0   .     S
V6     Er54    10.0   .     S
V6     Er45    10.0   .     S
Er7     V72    10.0   1_554     S
Er7     Er14    10.0   .     S
Er7     V8    10.0   .     S
Er7     V9    10.0   .     S
Er7     V46    10.0   1_565     S
Er7     Er44    10.0   1_554     S
V8     Er91    10.0   .     S
V8     Er12    10.0   .     S
V8     V65    10.0   .     S
V8     Er61    10.0   .     S
V9     V72    10.0   1_554     S
V9     Er67    10.0   1_554     S
V9     Er14    10.0   .     S
V9     Er10    10.0   .     S
Er10     Er42    10.0   .     S
Er10     V11    10.0   .     S
Er10     V24    10.0   1_455     S
Er10     Er21    10.0   .     S
V11     Er42    10.0   .     S
V11     Er12    10.0   .     S
Er12     V79    10.0   .     S
Er12     Er82    10.0   .     S
Er12     Er91    10.0   .     S
Er12     V65    10.0   .     S
V13     V32    10.0   1_565     S
V13     Er36    10.0   1_455     S
V13     Er63    10.0   1_455     S
V13     Er14    10.0   .     S
V13     Er15    10.0   1_465     S
Er14     V46    10.0   1_565     S
Er14     Er67    10.0   1_554     S
Er14     V18    10.0   1_564     S
Er15     V53    10.0   .     S
Er15     Er51    10.0   .     S
Er15     V32    10.0   1_655     S
Er15     Er63    10.0   1_545     S
Er15     V16    10.0   .     S
Er15     V13    10.0   1_645     S
V16     V22    10.0   1_655     S
V16     Er20    10.0   1_554     S
V16     Er75    10.0   1_554     S
V16     Er17    10.0   1_654     S
Er17     V25    10.0   .     S
Er17     Er27    10.0   .     S
Er17     V22    10.0   1_556     S
Er17     Er75    10.0   1_455     S
Er17     V16    10.0   1_456     S
Er17     V18    10.0   .     S
V18     V46    10.0   1_556     S
V18     Er44    10.0   1_545     S
V18     Er67    10.0   1_545     S
V18     Er14    10.0   1_546     S
V19     V55    10.0   1_556     S
V19     Er59    10.0   .     S
V19     Er20    10.0   .     S
V19     Er23    10.0   1_556     S
V19     Er85    10.0   .     S
Er20     V74    10.0   .     S
Er20     Er75    10.0   .     S
Er20     V16    10.0   1_556     S
Er20     Er27    10.0   1_655     S
Er20     V22    10.0   1_656     S
Er21     V40    10.0   1_455     S
Er21     V22    10.0   .     S
Er21     V24    10.0   1_455     S
V22     V16    10.0   1_455     S
V22     Er17    10.0   1_554     S
V22     Er27    10.0   1_554     S
V22     Er20    10.0   1_454     S
Er23     V55    10.0   .     S
Er23     V19    10.0   1_554     S
Er23     V24    10.0   .     S
Er23     Er85    10.0   1_554     S
Er23     V64    10.0   .     S
Er23     Er66    10.0   .     S
V24     V40    10.0   .     S
V24     Er42    10.0   1_655     S
V24     Er10    10.0   1_655     S
V24     Er21    10.0   1_655     S
V25     V74    10.0   1_455     S
V25     Er75    10.0   1_455     S
V25     Er26    10.0   .     S
V25     Er27    10.0   .     S
Er26     Er95    10.0   .     S
Er26     V29    10.0   .     S
Er26     V34    10.0   1_545     S
Er26     Er31    10.0   .     S
Er27     V74    10.0   1_455     S
Er27     V22    10.0   1_556     S
Er27     Er20    10.0   1_455     S
Er27     V28    10.0   .     S
V28     Er57    10.0   .     S
V28     Er30    10.0   .     S
V28     V69    10.0   .     S
V28     Er71    10.0   .     S
V29     Er95    10.0   .     S
V29     Er30    10.0   .     S
Er30     Er57    10.0   .     S
Er30     V69    10.0   .     S
Er30     V84    10.0   .     S
Er30     Er80    10.0   .     S
Er31     V92    10.0   1_545     S
Er31     V32    10.0   .     S
Er31     V34    10.0   1_545     S
V32     V13    10.0   1_545     S
V32     Er15    10.0   1_455     S
V32     Er51    10.0   1_455     S
V32     Er36    10.0   1_445     S
Er33     V41    10.0   .     S
Er33     V34    10.0   .     S
Er33     V35    10.0   1_455     S
Er33     Er87    10.0   1_455     S
Er33     V68    10.0   .     S
Er33     Er70    10.0   .     S
V34     V92    10.0   .     S
V34     Er95    10.0   1_565     S
V34     Er31    10.0   1_565     S
V34     Er26    10.0   1_565     S
V35     V41    10.0   1_655     S
V35     Er37    10.0   .     S
V35     Er36    10.0   .     S
V35     Er33    10.0   1_655     S
V35     Er87    10.0   .     S
Er36     V13    10.0   1_655     S
Er36     Er51    10.0   1_565     S
Er36     V32    10.0   1_665     S
Er36     V62    10.0   .     S
Er36     Er63    10.0   .     S
Er37     Er70    10.0   1_655     S
Er37     V86    10.0   .     S
Er37     Er87    10.0   .     S
Er37     V38    10.0   .     S
Er37     V41    10.0   1_655     S
V38     V81    10.0   .     S
V38     Er83    10.0   .     S
V38     Er39    10.0   .     S
V38     Er73    10.0   .     S
Er39     V81    10.0   .     S
Er39     V40    10.0   .     S
Er39     V52    10.0   .     S
Er39     Er49    10.0   .     S
Er39     Er73    10.0   .     S
V40     Er21    10.0   1_655     S
V40     Er42    10.0   1_655     S
V40     Er3    10.0   1_655     S
V41     V35    10.0   1_455     S
V41     Er70    10.0   .     S
V41     Er37    10.0   1_455     S
V41     Er42    10.0   .     S
Er42     V24    10.0   1_455     S
Er42     V40    10.0   1_455     S
V43     V96    10.0   1_565     S
V43     Er93    10.0   .     S
V43     Er89    10.0   .     S
V43     Er44    10.0   .     S
V43     Er47    10.0   1_565     S
Er44     V72    10.0   .     S
Er44     Er67    10.0   .     S
Er44     V18    10.0   1_565     S
Er44     Er7    10.0   1_556     S
Er44     V46    10.0   1_566     S
Er45     V46    10.0   .     S
Er45     V48    10.0   1_554     S
Er45     Er54    10.0   .     S
Er45     V58    10.0   1_554     S
V46     V18    10.0   1_554     S
V46     Er14    10.0   1_545     S
V46     Er7    10.0   1_545     S
V46     Er44    10.0   1_544     S
Er47     V96    10.0   .     S
Er47     Er89    10.0   1_545     S
Er47     V43    10.0   1_545     S
Er47     V48    10.0   .     S
Er47     V76    10.0   .     S
Er47     Er77    10.0   .     S
V48     Er45    10.0   1_556     S
V48     Er54    10.0   1_556     S
V48     V58    10.0   .     S
V48     Er56    10.0   1_556     S
Er49     V50    10.0   .     S
Er49     V52    10.0   .     S
Er49     V78    10.0   .     S
Er49     V81    10.0   .     S
Er49     Er83    10.0   .     S
V50     Er56    10.0   .     S
V50     Er54    10.0   .     S
Er51     V62    10.0   1_545     S
Er51     V32    10.0   1_655     S
Er51     Er36    10.0   1_545     S
Er51     V52    10.0   .     S
Er51     V53    10.0   .     S
V52     V78    10.0   .     S
V52     Er73    10.0   .     S
V53     V62    10.0   1_545     S
V53     Er63    10.0   1_545     S
V53     Er54    10.0   .     S
Er54     Er56    10.0   .     S
Er54     V48    10.0   1_554     S
V55     V19    10.0   1_554     S
V55     Er66    10.0   .     S
V55     Er56    10.0   .     S
V55     Er59    10.0   1_554     S
Er56     V48    10.0   1_554     S
Er56     V58    10.0   1_554     S
Er57     V84    10.0   .     S
Er57     Er71    10.0   .     S
Er57     V58    10.0   .     S
Er57     V60    10.0   .     S
V58     Er45    10.0   1_556     S
V58     Er56    10.0   1_556     S
V58     Er1    10.0   1_556     S
Er59     Er66    10.0   1_556     S
Er59     V90    10.0   .     S
Er59     Er85    10.0   .     S
Er59     V60    10.0   .     S
Er59     V55    10.0   1_556     S
V60     V84    10.0   .     S
V60     Er80    10.0   .     S
V60     Er71    10.0   .     S
Er61     V94    10.0   .     S
Er61     Er91    10.0   .     S
Er61     V62    10.0   .     S
Er61     V65    10.0   .     S
Er61     Er82    10.0   .     S
V62     V53    10.0   1_565     S
V62     Er51    10.0   1_565     S
V62     Er63    10.0   .     S
Er63     V53    10.0   1_565     S
Er63     V13    10.0   1_655     S
Er63     Er15    10.0   1_565     S
Er63     V64    10.0   .     S
V64     V90    10.0   1_554     S
V64     Er85    10.0   1_554     S
V64     Er66    10.0   .     S
V65     Er66    10.0   .     S
V65     Er82    10.0   .     S
Er66     Er59    10.0   1_554     S
Er66     V90    10.0   1_554     S
Er67     V9    10.0   1_556     S
Er67     V18    10.0   1_565     S
Er67     Er14    10.0   1_556     S
Er67     V68    10.0   .     S
Er67     V72    10.0   .     S
V68     V86    10.0   1_455     S
V68     Er87    10.0   1_455     S
V68     Er70    10.0   .     S
V69     Er70    10.0   .     S
V69     Er71    10.0   .     S
V69     Er80    10.0   .     S
Er70     Er37    10.0   1_455     S
Er70     V86    10.0   1_455     S
Er71     V72    10.0   .     S
Er71     Er80    10.0   .     S
V72     V9    10.0   1_556     S
V72     Er7    10.0   1_556     S
Er73     V74    10.0   .     S
Er73     V78    10.0   .     S
Er73     Er83    10.0   .     S
V74     V25    10.0   1_655     S
V74     Er27    10.0   1_655     S
V74     Er75    10.0   .     S
Er75     V25    10.0   1_655     S
Er75     V16    10.0   1_556     S
Er75     Er17    10.0   1_655     S
Er75     V76    10.0   .     S
V76     Er77    10.0   .     S
V76     V88    10.0   1_545     S
V76     Er89    10.0   1_545     S
Er77     V96    10.0   .     S
Er77     Er93    10.0   1_545     S
Er77     V78    10.0   .     S
Er77     V88    10.0   1_545     S
V78     Er83    10.0   .     S
V79     V94    10.0   .     S
V79     Er91    10.0   .     S
V79     Er80    10.0   .     S
V79     Er82    10.0   .     S
Er80     V84    10.0   .     S
V81     Er82    10.0   .     S
V81     Er83    10.0   .     S
Er82     V94    10.0   .     S
Er83     V84    10.0   .     S
Er85     Er23    10.0   1_556     S
Er85     V64    10.0   1_556     S
Er85     V86    10.0   .     S
Er85     V90    10.0   .     S
V86     V68    10.0   1_655     S
V86     Er70    10.0   1_655     S
V86     Er87    10.0   .     S
Er87     Er33    10.0   1_655     S
Er87     V68    10.0   1_655     S
Er87     V88    10.0   .     S
V88     V76    10.0   1_565     S
V88     Er77    10.0   1_565     S
V88     Er89    10.0   .     S
V88     Er93    10.0   .     S
Er89     Er47    10.0   1_565     S
Er89     V76    10.0   1_565     S
Er89     V90    10.0   .     S
Er89     Er93    10.0   .     S
V90     V64    10.0   1_556     S
V90     Er66    10.0   1_556     S
Er91     V92    10.0   .     S
Er91     V94    10.0   .     S
V92     Er31    10.0   1_565     S
V92     Er95    10.0   1_565     S
V92     Er5    10.0   1_565     S
Er93     Er77    10.0   1_565     S
Er93     V94    10.0   .     S
Er93     V96    10.0   1_565     S
Er95     V34    10.0   1_545     S
Er95     V96    10.0   .     S
Er95     V92    10.0   1_545     S
V96     V43    10.0   1_545     S
V96     Er93    10.0   1_545     S
