data_tima
_audit_creation_date              2020-02-04
_audit_creation_method            'Pymatgen'
_symmetry_space_group_name_H-M    'P1'
_symmetry_Int_Tables_number       1
loop_
_symmetry_equiv_pos_as_xyz
  x,y,z
_cell_length_a                    118.5926
_cell_length_b                    97.0381
_cell_length_c                    79.6029
_cell_angle_alpha                 90.0
_cell_angle_beta                 90.0
_cell_angle_gamma                 90.0
loop_
_atom_site_label
_atom_site_type_symbol
_atom_site_fract_x
_atom_site_fract_y
_atom_site_fract_z
Ce1     Ce     0.2514   0.8592   0.4372
Ce2     Ce     0.2514   0.8592   0.5628
Be3     Be     0.2492   0.9484   0.5
Ce4     Ce     0.7486   0.8592   0.4372
Ce5     Ce     0.7486   0.8592   0.5628
Be6     Be     0.7508   0.9484   0.5
Ce7     Ce     0.7514   0.6408   0.0628
Ce8     Ce     0.7514   0.6408   0.9372
Be9     Be     0.7492   0.5516   0.0
Ce10     Ce     0.2486   0.6408   0.0628
Ce11     Ce     0.2486   0.6408   0.9372
Be12     Be     0.2508   0.5516   0.0
Ce13     Ce     0.7486   0.1408   0.4372
Ce14     Ce     0.7486   0.1408   0.5628
Be15     Be     0.7508   0.0516   0.5
Ce16     Ce     0.2514   0.1408   0.4372
Ce17     Ce     0.2514   0.1408   0.5628
Be18     Be     0.2492   0.0516   0.5
Ce19     Ce     0.2486   0.3592   0.0628
Ce20     Ce     0.2486   0.3592   0.9372
Be21     Be     0.2508   0.4484   0.0
Ce22     Ce     0.7514   0.3592   0.0628
Ce23     Ce     0.7514   0.3592   0.9372
Be24     Be     0.7492   0.4484   0.0
Er25     Er     0.2507   0.2009   0.335
Er26     Er     0.2507   0.2009   0.665
Er27     Er     0.7493   0.2009   0.665
Er28     Er     0.7493   0.2009   0.335
Er29     Er     0.2507   0.7991   0.665
Er30     Er     0.2507   0.7991   0.335
Er31     Er     0.7493   0.7991   0.335
Er32     Er     0.7493   0.7991   0.665
V33     V     0.2947   0.2346   0.236
V34     V     0.2947   0.7654   0.236
V35     V     0.2947   0.2346   0.764
V36     V     0.2947   0.7654   0.764
V37     V     0.7054   0.2346   0.236
V38     V     0.7054   0.7654   0.236
V39     V     0.7054   0.7654   0.764
V40     V     0.7054   0.2346   0.764
He41     He     0.5935   0.1347   0.1358
Li42     Li     0.5422   0.1973   0.1999
Ti43     Ti     0.6258   0.2081   0.2096
He44     He     0.4065   0.1347   0.1358
Li45     Li     0.4578   0.1973   0.1999
Ti46     Ti     0.3742   0.2081   0.2096
He47     He     0.5935   0.1347   0.8642
Li48     Li     0.5422   0.1973   0.8001
Ti49     Ti     0.6258   0.2081   0.7904
He50     He     0.4065   0.1347   0.8642
Li51     Li     0.4578   0.1973   0.8001
Ti52     Ti     0.3742   0.2081   0.7904
He53     He     0.5935   0.8653   0.1358
Li54     Li     0.5422   0.8027   0.1999
Ti55     Ti     0.6258   0.7919   0.2096
He56     He     0.4065   0.8653   0.1358
Li57     Li     0.4578   0.8027   0.1999
Ti58     Ti     0.3742   0.7919   0.2096
He59     He     0.5935   0.8653   0.8642
Li60     Li     0.5422   0.8027   0.8001
Ti61     Ti     0.6258   0.7919   0.7904
He62     He     0.4065   0.8653   0.8642
Li63     Li     0.4578   0.8027   0.8001
Ti64     Ti     0.3742   0.7919   0.7904
H65     H     0.3983   0.0515   0.0628
H66     H     0.3983   0.0515   0.9372
H67     H     0.3983   0.9485   0.0628
H68     H     0.3983   0.9485   0.9372
S69     S     0.5421   0.0   0.0
S70     S     0.4579   0.0   0.0
H71     H     0.6017   0.0515   0.0628
H72     H     0.6017   0.0515   0.9372
H73     H     0.6017   0.9485   0.0628
H74     H     0.6017   0.9485   0.9372
Er75     Er     0.7507   0.2991   0.165
Er76     Er     0.7507   0.7009   0.165
Er77     Er     0.7507   0.7009   0.835
Er78     Er     0.7507   0.2991   0.835
Er79     Er     0.2493   0.7009   0.165
Er80     Er     0.2493   0.2991   0.165
Er81     Er     0.2493   0.2991   0.835
Er82     Er     0.2493   0.7009   0.835
V83     V     0.2054   0.2654   0.264
V84     V     0.2054   0.7346   0.264
V85     V     0.2054   0.2654   0.736
V86     V     0.2054   0.7346   0.736
V87     V     0.7946   0.2654   0.264
V88     V     0.7946   0.2654   0.736
V89     V     0.7946   0.7346   0.264
V90     V     0.7946   0.7346   0.736
He91     He     0.0935   0.3653   0.3642
Li92     Li     0.0422   0.3027   0.3001
Ti93     Ti     0.1258   0.2919   0.2904
He94     He     0.9065   0.3653   0.3642
Li95     Li     0.9578   0.3027   0.3001
Ti96     Ti     0.8742   0.2919   0.2904
He97     He     0.0935   0.3653   0.6358
Li98     Li     0.0422   0.3027   0.6999
Ti99     Ti     0.1258   0.2919   0.7096
He100     He     0.9065   0.3653   0.6358
Li101     Li     0.9578   0.3027   0.6999
Ti102     Ti     0.8742   0.2919   0.7096
He103     He     0.0935   0.6347   0.3642
Li104     Li     0.0422   0.6973   0.3001
Ti105     Ti     0.1258   0.7081   0.2904
He106     He     0.0935   0.6347   0.6358
Li107     Li     0.0422   0.6973   0.6999
Ti108     Ti     0.1258   0.7081   0.7096
He109     He     0.9065   0.6347   0.3642
Li110     Li     0.9578   0.6973   0.3001
Ti111     Ti     0.8742   0.7081   0.2904
He112     He     0.9065   0.6347   0.6358
Li113     Li     0.9578   0.6973   0.6999
Ti114     Ti     0.8742   0.7081   0.7096
H115     H     0.1017   0.5515   0.4372
H116     H     0.1017   0.5515   0.5628
H117     H     0.1017   0.4485   0.5628
H118     H     0.1017   0.4485   0.4372
S119     S     0.0421   0.5   0.5
S120     S     0.9579   0.5   0.5
H121     H     0.8983   0.4485   0.4372
H122     H     0.8983   0.4485   0.5628
H123     H     0.8983   0.5515   0.4372
H124     H     0.8983   0.5515   0.5628
loop_
_geom_bond_atom_site_label_1
_geom_bond_atom_site_label_2
_geom_bond_distance
_geom_bond_site_symmetry_2
_ccdc_geom_bond_type
Ce1     Ce2    10.0   .     S
Ce1     Be3    10.003   .     S
Ce1     Er30    10.006   .     S
Ce2     Be3    10.003   .     S
Ce2     Er29    10.006   .     S
Be3     Be18    10.009   1_565     S
Ce4     Ce5    10.0   .     S
Ce4     Be6    10.003   .     S
Ce4     Er31    10.006   .     S
Ce5     Be6    10.003   .     S
Ce5     Er32    10.006   .     S
Be6     Be15    10.009   1_565     S
Ce7     Ce8    10.0   1_554     S
Ce7     Be9    10.003   .     S
Ce7     Er76    10.006   .     S
Ce8     Ce7    10.0   1_556     S
Ce8     Be9    10.003   1_556     S
Ce8     Er77    10.006   .     S
Be9     Ce8    10.003   1_554     S
Be9     Be24    10.009   .     S
Ce10     Ce11    10.0   1_554     S
Ce10     Be12    10.003   .     S
Ce10     Er79    10.006   .     S
Ce11     Ce10    10.0   1_556     S
Ce11     Be12    10.003   1_556     S
Ce11     Er82    10.006   .     S
Be12     Ce11    10.003   1_554     S
Be12     Be21    10.009   .     S
Ce13     Ce14    10.0   .     S
Ce13     Be15    10.003   .     S
Ce13     Er28    10.006   .     S
Ce14     Be15    10.003   .     S
Ce14     Er27    10.006   .     S
Be15     Be6    10.009   1_545     S
Ce16     Ce17    10.0   .     S
Ce16     Be18    10.003   .     S
Ce16     Er25    10.006   .     S
Ce17     Be18    10.003   .     S
Ce17     Er26    10.006   .     S
Be18     Be3    10.009   1_545     S
Ce19     Ce20    10.0   1_554     S
Ce19     Be21    10.003   .     S
Ce19     Er80    10.006   .     S
Ce20     Ce19    10.0   1_556     S
Ce20     Be21    10.003   1_556     S
Ce20     Er81    10.006   .     S
Be21     Ce20    10.003   1_554     S
Ce22     Ce23    10.0   1_554     S
Ce22     Be24    10.003   .     S
Ce22     Er75    10.006   .     S
Ce23     Ce22    10.0   1_556     S
Ce23     Be24    10.003   1_556     S
Ce23     Er78    10.006   .     S
Be24     Ce23    10.003   1_554     S
Er25     V83    10.002   .     S
Er25     V33    10.002   .     S
Er26     V85    10.002   .     S
Er26     V35    10.002   .     S
Er27     V88    10.002   .     S
Er27     V40    10.002   .     S
Er28     V87    10.002   .     S
Er28     V37    10.002   .     S
Er29     V86    10.002   .     S
Er29     V36    10.002   .     S
Er30     V84    10.002   .     S
Er30     V34    10.002   .     S
Er31     V89    10.002   .     S
Er31     V38    10.002   .     S
Er32     V90    10.002   .     S
Er32     V39    10.002   .     S
V33     Ti46    10.002   .     S
V33     Er80    10.002   .     S
V34     Ti58    10.002   .     S
V34     Er79    10.002   .     S
V35     Ti52    10.002   .     S
V35     Er81    10.002   .     S
V36     Ti64    10.002   .     S
V36     Er82    10.002   .     S
V37     Ti43    10.002   .     S
V37     Er75    10.002   .     S
V38     Ti55    10.002   .     S
V38     Er76    10.002   .     S
V39     Ti61    10.002   .     S
V39     Er77    10.002   .     S
V40     Ti49    10.002   .     S
V40     Er78    10.002   .     S
He41     Ti43    9.996   .     S
He41     Li42    9.995   .     S
He41     H71    9.998   .     S
Li42     Ti43    10.002   .     S
Li42     Li45    10.002   .     S
He44     Ti46    9.996   .     S
He44     Li45    9.995   .     S
He44     H65    9.998   .     S
Li45     Ti46    10.002   .     S
He47     Ti49    9.996   .     S
He47     Li48    9.995   .     S
He47     H72    9.998   .     S
Li48     Ti49    10.002   .     S
Li48     Li51    10.002   .     S
He50     Ti52    9.996   .     S
He50     Li51    9.995   .     S
He50     H66    9.998   .     S
Li51     Ti52    10.002   .     S
He53     Ti55    9.996   .     S
He53     Li54    9.995   .     S
He53     H73    9.998   .     S
Li54     Ti55    10.002   .     S
Li54     Li57    10.002   .     S
He56     Ti58    9.996   .     S
He56     Li57    9.995   .     S
He56     H67    9.998   .     S
Li57     Ti58    10.002   .     S
He59     Ti61    9.996   .     S
He59     Li60    9.995   .     S
He59     H74    9.998   .     S
Li60     Ti61    10.002   .     S
Li60     Li63    10.002   .     S
He62     Ti64    9.996   .     S
He62     Li63    9.995   .     S
He62     H68    9.998   .     S
Li63     Ti64    10.002   .     S
H65     S70    9.994   .     S
H65     H66    9.997   1_554     S
H65     H67    9.997   1_545     S
H66     S70    9.994   1_556     S
H66     H65    9.997   1_556     S
H66     H68    9.997   1_545     S
H67     S70    9.994   1_565     S
H67     H68    9.997   1_554     S
H67     H65    9.997   1_565     S
H68     S70    9.994   1_566     S
H68     H67    9.997   1_556     S
H68     H66    9.997   1_565     S
S69     S70    9.993   .     S
S69     H71    9.994   .     S
S69     H72    9.994   1_554     S
S69     H73    9.994   1_545     S
S69     H74    9.994   1_544     S
S70     H66    9.994   1_554     S
S70     H67    9.994   1_545     S
S70     H68    9.994   1_544     S
H71     H72    9.997   1_554     S
H71     H73    9.997   1_545     S
H72     S69    9.994   1_556     S
H72     H71    9.997   1_556     S
H72     H74    9.997   1_545     S
H73     S69    9.994   1_565     S
H73     H74    9.997   1_554     S
H73     H71    9.997   1_565     S
H74     S69    9.994   1_566     S
H74     H73    9.997   1_556     S
H74     H72    9.997   1_565     S
Er75     V87    10.002   .     S
Er76     V89    10.002   .     S
Er77     V90    10.002   .     S
Er78     V88    10.002   .     S
Er79     V84    10.002   .     S
Er80     V83    10.002   .     S
Er81     V85    10.002   .     S
Er82     V86    10.002   .     S
V83     Ti93    10.002   .     S
V84     Ti105    10.002   .     S
V85     Ti99    10.002   .     S
V86     Ti108    10.002   .     S
V87     Ti96    10.002   .     S
V88     Ti102    10.002   .     S
V89     Ti111    10.002   .     S
V90     Ti114    10.002   .     S
He91     Ti93    9.996   .     S
He91     Li92    9.995   .     S
He91     H118    9.998   .     S
Li92     Ti93    10.002   .     S
Li92     Li95    10.002   1_455     S
He94     Ti96    9.996   .     S
He94     Li95    9.995   .     S
He94     H121    9.998   .     S
Li95     Ti96    10.002   .     S
Li95     Li92    10.002   1_655     S
He97     Ti99    9.996   .     S
He97     Li98    9.995   .     S
He97     H117    9.998   .     S
Li98     Ti99    10.002   .     S
Li98     Li101    10.002   1_455     S
He100     Ti102    9.996   .     S
He100     Li101    9.995   .     S
He100     H122    9.998   .     S
Li101     Ti102    10.002   .     S
Li101     Li98    10.002   1_655     S
He103     Ti105    9.996   .     S
He103     Li104    9.995   .     S
He103     H115    9.998   .     S
Li104     Ti105    10.002   .     S
Li104     Li110    10.002   1_455     S
He106     Ti108    9.996   .     S
He106     Li107    9.995   .     S
He106     H116    9.998   .     S
Li107     Ti108    10.002   .     S
Li107     Li113    10.002   1_455     S
He109     Ti111    9.996   .     S
He109     Li110    9.995   .     S
He109     H123    9.998   .     S
Li110     Ti111    10.002   .     S
Li110     Li104    10.002   1_655     S
He112     Ti114    9.996   .     S
He112     Li113    9.995   .     S
He112     H124    9.998   .     S
Li113     Ti114    10.002   .     S
Li113     Li107    10.002   1_655     S
H115     S119    9.994   .     S
H115     H116    9.997   .     S
H115     H118    9.997   .     S
H116     S119    9.994   .     S
H116     H117    9.997   .     S
H117     S119    9.994   .     S
H117     H118    9.997   .     S
H118     S119    9.994   .     S
S119     S120    9.993   1_455     S
S120     S119    9.993   1_655     S
S120     H121    9.994   .     S
S120     H122    9.994   .     S
S120     H123    9.994   .     S
S120     H124    9.994   .     S
H121     H122    9.997   .     S
H121     H123    9.997   .     S
H122     H124    9.997   .     S
H123     H124    9.997   .     S
