data_toce
_audit_creation_date              2020-02-04
_audit_creation_method            'Pymatgen'
_symmetry_space_group_name_H-M    'P1'
_symmetry_Int_Tables_number       1
loop_
_symmetry_equiv_pos_as_xyz
  x,y,z
_cell_length_a                    30.1199
_cell_length_b                    30.1199
_cell_length_c                    30.1199
_cell_angle_alpha                 90.0
_cell_angle_beta                 90.0
_cell_angle_gamma                 90.0
loop_
_atom_site_label
_atom_site_type_symbol
_atom_site_fract_x
_atom_site_fract_y
_atom_site_fract_z
V1     V     0.6495   0.102   0.6495
V2     V     0.8505   0.102   0.8505
V3     V     0.8505   0.6495   0.398
V4     V     0.6495   0.8505   0.398
V5     V     0.6495   0.398   0.8505
V6     V     0.8505   0.398   0.6495
V7     V     0.398   0.8505   0.6495
V8     V     0.398   0.6495   0.8505
V9     V     0.1495   0.898   0.1495
V10     V     0.3505   0.898   0.3505
V11     V     0.898   0.1495   0.1495
V12     V     0.898   0.3505   0.3505
V13     V     0.602   0.3505   0.1495
V14     V     0.602   0.1495   0.3505
V15     V     0.6495   0.6495   0.102
V16     V     0.8505   0.8505   0.102
V17     V     0.1495   0.602   0.3505
V18     V     0.3505   0.602   0.1495
V19     V     0.1495   0.1495   0.898
V20     V     0.3505   0.3505   0.898
V21     V     0.1495   0.3505   0.602
V22     V     0.3505   0.1495   0.602
V23     V     0.102   0.6495   0.6495
V24     V     0.102   0.8505   0.8505
loop_
_geom_bond_atom_site_label_1
_geom_bond_atom_site_label_2
_geom_bond_distance
_geom_bond_site_symmetry_2
_ccdc_geom_bond_type
V1     V7    10.714   1_545     S
V1     V4    10.714   1_545     S
V1     V2    8.563   .     S
V1     V14    9.229   .     S
V1     V22    9.229   .     S
V1     V5    10.776   .     S
V1     V6    10.776   .     S
V2     V24    10.714   1_645     S
V2     V16    10.714   1_546     S
V2     V19    9.229   1_655     S
V2     V11    9.229   1_556     S
V2     V6    10.776   .     S
V2     V5    10.776   .     S
V3     V6    10.714   .     S
V3     V23    10.714   1_655     S
V3     V4    8.563   .     S
V3     V17    9.229   1_655     S
V3     V12    9.229   .     S
V3     V15    10.776   .     S
V3     V16    10.776   .     S
V4     V7    10.714   .     S
V4     V1    10.714   1_565     S
V4     V10    9.229   .     S
V4     V14    9.229   1_565     S
V4     V16    10.776   .     S
V4     V15    10.776   .     S
V5     V8    10.714   .     S
V5     V15    10.714   1_556     S
V5     V6    8.563   .     S
V5     V20    9.229   .     S
V5     V13    9.229   1_556     S
V6     V23    10.714   1_655     S
V6     V21    9.229   1_655     S
V6     V12    9.229   .     S
V7     V1    10.714   1_565     S
V7     V8    8.563   .     S
V7     V22    9.229   1_565     S
V7     V10    9.229   .     S
V7     V24    10.776   .     S
V7     V23    10.776   .     S
V8     V15    10.714   1_556     S
V8     V20    9.229   .     S
V8     V18    9.229   1_556     S
V8     V24    10.776   .     S
V8     V23    10.776   .     S
V9     V19    10.714   1_564     S
V9     V11    10.714   1_465     S
V9     V10    8.563   .     S
V9     V16    9.229   1_455     S
V9     V24    9.229   1_554     S
V9     V18    10.776   .     S
V9     V17    10.776   .     S
V10     V22    10.714   1_565     S
V10     V14    10.714   1_565     S
V10     V17    10.776   .     S
V10     V18    10.776   .     S
V11     V19    10.714   1_654     S
V11     V9    10.714   1_645     S
V11     V12    8.563   .     S
V11     V2    9.229   1_554     S
V11     V16    9.229   1_545     S
V11     V14    10.776   .     S
V11     V13    10.776   .     S
V12     V21    10.714   1_655     S
V12     V17    10.714   1_655     S
V12     V13    10.776   .     S
V12     V14    10.776   .     S
V13     V18    10.714   .     S
V13     V20    10.714   1_554     S
V13     V14    8.563   .     S
V13     V5    9.229   1_554     S
V13     V15    9.229   .     S
V14     V10    10.714   1_545     S
V14     V22    10.714   .     S
V14     V4    9.229   1_545     S
V15     V8    10.714   1_554     S
V15     V5    10.714   1_554     S
V15     V16    8.563   .     S
V15     V18    9.229   .     S
V16     V24    10.714   1_654     S
V16     V2    10.714   1_564     S
V16     V11    9.229   1_565     S
V16     V9    9.229   1_655     S
V17     V21    10.714   .     S
V17     V12    10.714   1_455     S
V17     V18    8.563   .     S
V17     V3    9.229   1_455     S
V17     V23    9.229   .     S
V18     V20    10.714   1_554     S
V18     V8    9.229   1_554     S
V19     V9    10.714   1_546     S
V19     V11    10.714   1_456     S
V19     V20    8.563   .     S
V19     V2    9.229   1_455     S
V19     V24    9.229   1_545     S
V19     V21    10.776   .     S
V19     V22    10.776   .     S
V20     V18    10.714   1_556     S
V20     V13    10.714   1_556     S
V20     V21    10.776   .     S
V20     V22    10.776   .     S
V21     V12    10.714   1_455     S
V21     V22    8.563   .     S
V21     V6    9.229   1_455     S
V21     V23    9.229   .     S
V22     V10    10.714   1_545     S
V22     V7    9.229   1_545     S
V23     V6    10.714   1_455     S
V23     V3    10.714   1_455     S
V23     V24    8.563   .     S
V24     V16    10.714   1_456     S
V24     V2    10.714   1_465     S
V24     V19    9.229   1_565     S
V24     V9    9.229   1_556     S
