data_tpha
_audit_creation_date              2020-02-04
_audit_creation_method            'Pymatgen'
_symmetry_space_group_name_H-M    'P1'
_symmetry_Int_Tables_number       1
loop_
_symmetry_equiv_pos_as_xyz
  x,y,z
_cell_length_a                    71.6521
_cell_length_b                    71.6521
_cell_length_c                    71.6521
_cell_angle_alpha                 90.0
_cell_angle_beta                 90.0
_cell_angle_gamma                 90.0
loop_
_atom_site_label
_atom_site_type_symbol
_atom_site_fract_x
_atom_site_fract_y
_atom_site_fract_z
Ce1     Ce     0.9818   0.1619   0.9037
Ce2     Ce     0.9037   0.9818   0.1619
Ce3     Ce     0.1619   0.9037   0.9818
V4     V     0.024   0.9102   0.9615
V5     V     0.9102   0.9615   0.024
V6     V     0.9615   0.024   0.9102
Er7     Er     0.9545   0.9032   0.8407
Er8     Er     0.9032   0.8407   0.9545
Er9     Er     0.8407   0.9545   0.9032
Er10     Er     0.4545   0.5968   0.1593
Er11     Er     0.3407   0.5455   0.0968
Ce12     Ce     0.4818   0.3381   0.0963
Ce13     Ce     0.6619   0.5963   0.0182
Ce14     Ce     0.4037   0.5182   0.8381
V15     V     0.4102   0.5385   0.976
V16     V     0.4615   0.476   0.0898
V17     V     0.524   0.5898   0.0385
Er18     Er     0.4032   0.6593   0.0455
Ti19     Ti     0.0156   0.5683   0.2641
Ti20     Ti     0.0156   0.4317   0.2359
Ti21     Ti     0.2344   0.5141   0.1817
Ti22     Ti     0.2344   0.4859   0.3183
Er23     Er     0.1593   0.4545   0.5968
Er24     Er     0.0969   0.3407   0.5455
Er25     Er     0.0455   0.4032   0.6593
Ce26     Ce     0.0963   0.4818   0.3381
Ce27     Ce     0.0182   0.6619   0.5963
Ce28     Ce     0.8381   0.4037   0.5182
V29     V     0.0898   0.4615   0.476
V30     V     0.976   0.4102   0.5385
V31     V     0.0385   0.524   0.5898
Ti32     Ti     0.2641   0.0156   0.5683
Ti33     Ti     0.2359   0.0156   0.4317
Ti34     Ti     0.1817   0.2344   0.5141
Ti35     Ti     0.3183   0.2344   0.4859
Er36     Er     0.3407   0.4545   0.4031
Er37     Er     0.4031   0.3407   0.4545
Er38     Er     0.4545   0.4032   0.3407
Ce39     Ce     0.4037   0.4818   0.6619
Ce40     Ce     0.6619   0.4037   0.4818
Ce41     Ce     0.4818   0.6619   0.4037
V42     V     0.524   0.4102   0.4615
V43     V     0.4615   0.524   0.4102
V44     V     0.4102   0.4615   0.524
Er45     Er     0.5968   0.1593   0.4545
Er46     Er     0.5455   0.0969   0.3407
Er47     Er     0.6593   0.0455   0.4031
Ce48     Ce     0.3381   0.0963   0.4818
Ce49     Ce     0.5963   0.0182   0.6619
Ce50     Ce     0.5182   0.8381   0.4037
V51     V     0.476   0.0898   0.4615
V52     V     0.5898   0.0385   0.524
V53     V     0.5385   0.976   0.4102
Ti54     Ti     0.5683   0.2641   0.0156
Ti55     Ti     0.4317   0.2359   0.0156
Ti56     Ti     0.5141   0.1817   0.2344
Ti57     Ti     0.4859   0.3183   0.2344
Er58     Er     0.9093   0.3468   0.2045
Er59     Er     0.7955   0.4093   0.1532
Er60     Er     0.8468   0.2955   0.0907
Ce61     Ce     0.7682   0.3463   0.4119
Ce62     Ce     0.8463   0.0881   0.2318
Ce63     Ce     0.5881   0.2682   0.1537
V64     V     0.8398   0.226   0.2115
V65     V     0.7885   0.3398   0.274
V66     V     0.726   0.2885   0.1602
Ti67     Ti     0.9859   0.1817   0.7656
Ti68     Ti     0.0141   0.3183   0.7656
Ti69     Ti     0.0683   0.2359   0.9844
Ti70     Ti     0.9317   0.2641   0.9844
Ce71     Ce     0.6537   0.0881   0.7682
Ce72     Ce     0.7318   0.3463   0.5881
Ce73     Ce     0.9119   0.2682   0.8463
V74     V     0.6602   0.226   0.7885
V75     V     0.774   0.2885   0.8398
V76     V     0.7115   0.3398   0.726
Er77     Er     0.6532   0.2955   0.9093
Er78     Er     0.7045   0.4093   0.8468
Er79     Er     0.5907   0.3468   0.7955
Ti80     Ti     0.8183   0.7344   0.9859
Ti81     Ti     0.6817   0.7344   0.0141
Ti82     Ti     0.7641   0.5156   0.0683
Ti83     Ti     0.7359   0.5156   0.9317
Ce84     Ce     0.7682   0.6537   0.0881
Ce85     Ce     0.5881   0.7318   0.3463
Ce86     Ce     0.8463   0.9119   0.2682
V87     V     0.8398   0.774   0.2885
V88     V     0.7885   0.6602   0.226
V89     V     0.726   0.7115   0.3398
Er90     Er     0.8468   0.7045   0.4093
Er91     Er     0.9093   0.6532   0.2955
Er92     Er     0.7955   0.5907   0.3468
Ti93     Ti     0.9859   0.8183   0.7344
Ti94     Ti     0.0141   0.6817   0.7344
Ti95     Ti     0.0683   0.7641   0.5156
Ti96     Ti     0.9317   0.7359   0.5156
Er97     Er     0.9032   0.1593   0.5455
Er98     Er     0.8407   0.0455   0.5968
Er99     Er     0.9545   0.0968   0.6593
Ce100     Ce     0.9037   0.0182   0.3381
Ce101     Ce     0.1619   0.0963   0.5182
Ce102     Ce     0.9818   0.8381   0.5963
V103     V     0.9102   0.0385   0.476
V104     V     0.9615   0.976   0.5898
V105     V     0.024   0.0898   0.5385
Ti106     Ti     0.7641   0.4844   0.4317
Ti107     Ti     0.7359   0.4844   0.5683
Ti108     Ti     0.6817   0.2656   0.4859
Ti109     Ti     0.8183   0.2656   0.5141
Er110     Er     0.1593   0.5455   0.9032
Er111     Er     0.0455   0.5968   0.8407
Ce112     Ce     0.0182   0.3381   0.9037
Ce113     Ce     0.0963   0.5182   0.1619
Ce114     Ce     0.8381   0.5963   0.9818
V115     V     0.0385   0.476   0.9102
V116     V     0.0898   0.5385   0.024
V117     V     0.976   0.5898   0.9615
Er118     Er     0.0968   0.6593   0.9545
Ti119     Ti     0.2656   0.4859   0.6817
Ti120     Ti     0.2656   0.5141   0.8183
Ti121     Ti     0.4844   0.4317   0.7641
Ti122     Ti     0.4844   0.5683   0.7359
Er123     Er     0.5455   0.9032   0.1593
Er124     Er     0.5968   0.8407   0.0455
Er125     Er     0.6593   0.9545   0.0968
Ce126     Ce     0.3381   0.9037   0.0182
Ce127     Ce     0.5182   0.1619   0.0963
Ce128     Ce     0.5963   0.9818   0.8381
V129     V     0.476   0.9102   0.0385
V130     V     0.5898   0.9615   0.976
V131     V     0.5385   0.024   0.0898
Ce132     Ce     0.9119   0.7318   0.6537
Ce133     Ce     0.7318   0.6537   0.9119
Ce134     Ce     0.6537   0.9119   0.7318
V135     V     0.6602   0.774   0.7115
V136     V     0.7115   0.6602   0.774
V137     V     0.774   0.7115   0.6602
Er138     Er     0.7045   0.5907   0.6532
Er139     Er     0.5907   0.6532   0.7045
Er140     Er     0.6532   0.7045   0.5907
Ti141     Ti     0.5683   0.7359   0.4844
Ti142     Ti     0.4317   0.7641   0.4844
Ti143     Ti     0.5141   0.8183   0.2656
Ti144     Ti     0.4859   0.6817   0.2656
Ce145     Ce     0.0881   0.7682   0.6537
Ce146     Ce     0.2682   0.8463   0.9119
Ce147     Ce     0.3463   0.5881   0.7318
V148     V     0.226   0.7885   0.6602
V149     V     0.2885   0.8398   0.774
V150     V     0.3398   0.726   0.7115
Er151     Er     0.4093   0.8468   0.7045
Er152     Er     0.2955   0.9093   0.6532
Er153     Er     0.3468   0.7955   0.5907
Ti154     Ti     0.7344   0.9859   0.8183
Ti155     Ti     0.7344   0.0141   0.6817
Ti156     Ti     0.5156   0.0683   0.7641
Ti157     Ti     0.5156   0.9317   0.7359
Er158     Er     0.4093   0.1531   0.7955
Er159     Er     0.2955   0.0907   0.8468
Ce160     Ce     0.0881   0.2318   0.8463
Ce161     Ce     0.3463   0.4119   0.7682
Ce162     Ce     0.2682   0.1537   0.5881
V163     V     0.226   0.2115   0.8398
V164     V     0.3398   0.274   0.7885
V165     V     0.2885   0.1602   0.726
Er166     Er     0.3468   0.2045   0.9093
Ti167     Ti     0.1817   0.7656   0.9859
Ti168     Ti     0.3183   0.7656   0.0141
Ti169     Ti     0.2641   0.9844   0.9317
Ti170     Ti     0.2359   0.9844   0.0683
Er171     Er     0.2045   0.0907   0.1532
Er172     Er     0.1532   0.2045   0.0907
Er173     Er     0.0907   0.1532   0.2045
Ce174     Ce     0.4119   0.2318   0.1537
Ce175     Ce     0.2318   0.1537   0.4119
Ce176     Ce     0.1537   0.4119   0.2318
V177     V     0.1602   0.274   0.2115
V178     V     0.2115   0.1602   0.274
V179     V     0.274   0.2115   0.1602
Er180     Er     0.2045   0.9093   0.3468
Ce181     Ce     0.4119   0.7682   0.3463
Ce182     Ce     0.2318   0.8463   0.0881
Ce183     Ce     0.1537   0.5881   0.2682
V184     V     0.2115   0.8398   0.226
V185     V     0.274   0.7885   0.3398
V186     V     0.1602   0.726   0.2885
Er187     Er     0.1532   0.7955   0.4093
Er188     Er     0.0907   0.8468   0.2955
Ti189     Ti     0.7656   0.9859   0.1817
Ti190     Ti     0.7656   0.0141   0.3183
Ti191     Ti     0.9844   0.9317   0.2641
Ti192     Ti     0.9844   0.0683   0.2359
loop_
_geom_bond_atom_site_label_1
_geom_bond_atom_site_label_2
_geom_bond_distance
_geom_bond_site_symmetry_2
_ccdc_geom_bond_type
Ce1     V6    10.0   .     S
Ce1     Ti67    10.0   .     S
Ce1     Ce160    10.001   1_655     S
Ce1     Ce73    10.001   .     S
Ce1     Ti70    10.0   .     S
Ce1     Ti69    10.0   1_655     S
Ce2     V5    10.0   .     S
Ce2     Ti189    10.0   .     S
Ce2     Ce62    10.001   1_565     S
Ce2     Ce86    10.001   .     S
Ce2     Ti191    10.0   .     S
Ce2     Ti192    10.0   1_565     S
Ce3     V4    10.0   .     S
Ce3     Ti167    10.0   .     S
Ce3     Ce182    10.001   1_556     S
Ce3     Ce146    10.001   .     S
Ce3     Ti169    10.0   .     S
Ce3     Ti170    10.0   1_556     S
V4     V5    10.0   1_456     S
V4     V6    10.0   1_465     S
V4     Er7    10.0   1_455     S
V4     Er8    10.0   1_455     S
V5     V4    10.0   1_654     S
V5     V6    10.0   1_564     S
V5     Er8    10.0   1_554     S
V5     Er9    10.0   1_554     S
V6     V5    10.0   1_546     S
V6     V4    10.0   1_645     S
V6     Er9    10.0   1_545     S
V6     Er7    10.0   1_545     S
Er7     V4    10.0   1_655     S
Er7     Er8    10.0   .     S
Er7     V6    10.0   1_565     S
Er7     Er9    10.0   .     S
Er7     Ti93    10.0   .     S
Er8     V4    10.0   1_655     S
Er8     V5    10.0   1_556     S
Er8     Er9    10.0   .     S
Er8     Ti80    10.0   .     S
Er9     V5    10.0   1_556     S
Er9     V6    10.0   1_565     S
Er9     Ti154    10.0   .     S
Er10     Er18    10.0   .     S
Er10     Er11    10.0   .     S
Er10     V17    10.0   .     S
Er10     V16    10.0   .     S
Er10     Ti144    10.0   .     S
Er11     V16    10.0   .     S
Er11     V15    10.0   1_554     S
Er11     Er18    10.0   .     S
Er11     Ti21    10.0   .     S
Ce12     V16    10.0   .     S
Ce12     Ce174    10.001   .     S
Ce12     Ti55    10.0   .     S
Ce12     Ti54    10.0   .     S
Ce12     Ti57    10.0   .     S
Ce12     Ce63    10.001   .     S
Ce13     V17    10.0   .     S
Ce13     Ti81    10.0   .     S
Ce13     Ce133    10.001   1_554     S
Ce13     Ce84    10.001   .     S
Ce13     Ti82    10.0   .     S
Ce13     Ti83    10.0   1_554     S
Ce14     V15    10.0   .     S
Ce14     Ti120    10.0   .     S
Ce14     Ce161    10.001   .     S
Ce14     Ce147    10.001   .     S
Ce14     Ti122    10.0   .     S
Ce14     Ti121    10.0   .     S
V15     V16    10.0   1_556     S
V15     V17    10.0   1_556     S
V15     Er18    10.0   1_556     S
V15     Er11    10.0   1_556     S
V16     V15    10.0   1_554     S
V16     V17    10.0   .     S
V17     Er18    10.0   .     S
V17     V15    10.0   1_554     S
Er18     V15    10.0   1_554     S
Er18     Ti168    10.0   .     S
Ti19     Ce183    10.0   .     S
Ti19     Ce113    10.0   .     S
Ti19     Ti20    10.0   .     S
Ti19     Ce26    10.0   .     S
Ti19     Er91    10.0   1_455     S
Ti20     Ce176    10.0   .     S
Ti20     Ce26    10.0   .     S
Ti20     Ce113    10.0   .     S
Ti20     Er58    10.0   1_455     S
Ti21     Ce113    10.0   .     S
Ti21     Ce176    10.0   .     S
Ti21     Ti22    10.0   .     S
Ti21     Ce183    10.0   .     S
Ti22     Ce26    10.0   .     S
Ti22     Ce183    10.0   .     S
Ti22     Ce176    10.0   .     S
Ti22     Er36    10.0   .     S
Er23     Er25    10.0   .     S
Er23     Er24    10.0   .     S
Er23     V31    10.0   .     S
Er23     V29    10.0   .     S
Er23     Ti119    10.0   .     S
Er24     Er25    10.0   .     S
Er24     V30    10.0   1_455     S
Er24     V29    10.0   .     S
Er24     Ti34    10.0   .     S
Er25     V31    10.0   .     S
Er25     V30    10.0   1_455     S
Er25     Ti68    10.0   .     S
Ce26     Ce176    10.001   .     S
Ce26     Ce183    10.001   .     S
Ce26     V29    10.0   .     S
Ce27     V31    10.0   .     S
Ce27     Ti94    10.0   .     S
Ce27     Ce132    10.001   1_455     S
Ce27     Ce145    10.001   .     S
Ce27     Ti95    10.0   .     S
Ce27     Ti96    10.0   1_455     S
Ce28     V30    10.0   .     S
Ce28     Ce72    10.001   .     S
Ce28     Ti107    10.0   .     S
Ce28     Ti106    10.0   .     S
Ce28     Ti109    10.0   .     S
Ce28     Ce61    10.001   .     S
V29     V30    10.0   1_455     S
V29     V31    10.0   .     S
V30     Er25    10.0   1_655     S
V30     Er24    10.0   1_655     S
V30     V31    10.0   1_655     S
V30     V29    10.0   1_655     S
V31     V30    10.0   1_455     S
Ti32     Ce162    10.0   .     S
Ti32     Ce101    10.0   .     S
Ti32     Ti33    10.0   .     S
Ti32     Ce48    10.0   .     S
Ti32     Er152    10.0   1_545     S
Ti33     Ce175    10.0   .     S
Ti33     Ce48    10.0   .     S
Ti33     Ce101    10.0   .     S
Ti33     Er180    10.0   1_545     S
Ti34     Ce101    10.0   .     S
Ti34     Ce175    10.0   .     S
Ti34     Ti35    10.0   .     S
Ti34     Ce162    10.0   .     S
Ti35     Ce48    10.0   .     S
Ti35     Ce162    10.0   .     S
Ti35     Ce175    10.0   .     S
Ti35     Er37    10.0   .     S
Er36     Er38    10.0   .     S
Er36     Er37    10.0   .     S
Er36     V44    10.0   .     S
Er36     V43    10.0   .     S
Er37     Er38    10.0   .     S
Er37     V42    10.0   .     S
Er37     V44    10.0   .     S
Er38     V42    10.0   .     S
Er38     V43    10.0   .     S
Er38     Ti57    10.0   .     S
Ce39     V44    10.0   .     S
Ce39     Ti119    10.0   .     S
Ce39     Ce147    10.001   .     S
Ce39     Ce161    10.001   .     S
Ce39     Ti121    10.0   .     S
Ce39     Ti122    10.0   .     S
Ce40     V42    10.0   .     S
Ce40     Ce61    10.001   .     S
Ce40     Ti106    10.0   .     S
Ce40     Ti107    10.0   .     S
Ce40     Ti108    10.0   .     S
Ce40     Ce72    10.001   .     S
Ce41     V43    10.0   .     S
Ce41     Ce181    10.001   .     S
Ce41     Ti142    10.0   .     S
Ce41     Ti141    10.0   .     S
Ce41     Ti144    10.0   .     S
Ce41     Ce85    10.001   .     S
V42     V43    10.0   .     S
V42     V44    10.0   .     S
V43     V44    10.0   .     S
Er45     Er47    10.0   .     S
Er45     Er46    10.0   .     S
Er45     V52    10.0   .     S
Er45     V51    10.0   .     S
Er45     Ti108    10.0   .     S
Er46     Er47    10.0   .     S
Er46     V53    10.0   1_545     S
Er46     V51    10.0   .     S
Er46     Ti56    10.0   .     S
Er47     V52    10.0   .     S
Er47     V53    10.0   1_545     S
Er47     Ti190    10.0   .     S
Ce48     Ce175    10.001   .     S
Ce48     Ce162    10.001   .     S
Ce48     V51    10.0   .     S
Ce49     V52    10.0   .     S
Ce49     Ti155    10.0   .     S
Ce49     Ce134    10.001   1_545     S
Ce49     Ce71    10.001   .     S
Ce49     Ti156    10.0   .     S
Ce49     Ti157    10.0   1_545     S
Ce50     V53    10.0   .     S
Ce50     Ce85    10.001   .     S
Ce50     Ti141    10.0   .     S
Ce50     Ti142    10.0   .     S
Ce50     Ti143    10.0   .     S
Ce50     Ce181    10.001   .     S
V51     V53    10.0   1_545     S
V51     V52    10.0   .     S
V52     V53    10.0   1_545     S
V53     Er47    10.0   1_565     S
V53     Er46    10.0   1_565     S
V53     V52    10.0   1_565     S
V53     V51    10.0   1_565     S
Ti54     Ce63    10.0   .     S
Ti54     Ce127    10.0   .     S
Ti54     Ti55    10.0   .     S
Ti54     Er77    10.0   1_554     S
Ti55     Ce174    10.0   .     S
Ti55     Ce127    10.0   .     S
Ti55     Er166    10.0   1_554     S
Ti56     Ce127    10.0   .     S
Ti56     Ce174    10.0   .     S
Ti56     Ti57    10.0   .     S
Ti56     Ce63    10.0   .     S
Ti57     Ce63    10.0   .     S
Ti57     Ce174    10.0   .     S
Er58     Ti20    10.0   1_655     S
Er58     V65    10.0   .     S
Er58     Er59    10.0   .     S
Er58     Er60    10.0   .     S
Er58     V64    10.0   .     S
Er59     V65    10.0   .     S
Er59     Er60    10.0   .     S
Er59     V66    10.0   .     S
Er59     Ti82    10.0   .     S
Er60     V64    10.0   .     S
Er60     V66    10.0   .     S
Er60     Ti70    10.0   1_554     S
Ce61     V65    10.0   .     S
Ce61     Ti106    10.0   .     S
Ce61     Ti109    10.0   .     S
Ce61     Ti108    10.0   .     S
Ce62     V64    10.0   .     S
Ce62     Ce2    10.001   1_545     S
Ce62     Ti189    10.0   1_545     S
Ce62     Ti190    10.0   .     S
Ce62     Ti192    10.0   .     S
Ce62     Ce100    10.001   .     S
Ce63     Ce127    10.001   .     S
Ce63     V66    10.0   .     S
V64     V65    10.0   .     S
V64     V66    10.0   .     S
V65     V66    10.0   .     S
Ti67     Ce160    10.0   1_655     S
Ti67     Ti68    10.0   1_655     S
Ti67     Ce73    10.0   .     S
Ti67     Er99    10.0   .     S
Ti68     Ce112    10.0   .     S
Ti68     Ti67    10.0   1_455     S
Ti68     Ce160    10.0   .     S
Ti68     Ce73    10.0   1_455     S
Ti69     Ce160    10.0   .     S
Ti69     Ce112    10.0   .     S
Ti69     Ti70    10.0   1_455     S
Ti69     Ce1    10.0   1_455     S
Ti69     Er172    10.0   1_556     S
Ti70     Ce73    10.0   .     S
Ti70     Ti69    10.0   1_655     S
Ti70     Ce112    10.0   1_655     S
Ti70     Er60    10.0   1_556     S
Ce71     V74    10.0   .     S
Ce71     Ce128    10.001   1_545     S
Ce71     Ti154    10.0   1_545     S
Ce71     Ti155    10.0   .     S
Ce71     Ti156    10.0   .     S
Ce72     V76    10.0   .     S
Ce72     Ti107    10.0   .     S
Ce72     Ti108    10.0   .     S
Ce72     Ti109    10.0   .     S
Ce73     Ce112    10.001   1_655     S
Ce73     Ti68    10.0   1_655     S
Ce73     V75    10.0   .     S
V74     V76    10.0   .     S
V74     V75    10.0   .     S
V74     Er77    10.0   .     S
V74     Er79    10.0   .     S
V75     V76    10.0   .     S
V75     Er78    10.0   .     S
V75     Er77    10.0   .     S
V76     Er79    10.0   .     S
V76     Er78    10.0   .     S
Er77     Ti54    10.0   1_556     S
Er77     Er79    10.0   .     S
Er77     Er78    10.0   .     S
Er78     Er79    10.0   .     S
Er78     Ti83    10.0   .     S
Er79     Ti121    10.0   .     S
Ti80     Ce114    10.0   .     S
Ti80     Ce84    10.0   1_556     S
Ti80     Ti81    10.0   1_556     S
Ti80     Ce133    10.0   .     S
Ti81     Ce133    10.0   1_554     S
Ti81     Ti80    10.0   1_554     S
Ti81     Ce84    10.0   .     S
Ti81     Er124    10.0   .     S
Ti82     Ce84    10.0   .     S
Ti82     Ti83    10.0   1_554     S
Ti82     Ce114    10.0   1_554     S
Ti83     Ce133    10.0   .     S
Ti83     Ce114    10.0   .     S
Ti83     Ti82    10.0   1_556     S
Ti83     Ce13    10.0   1_556     S
Ce84     Ce114    10.001   1_554     S
Ce84     Ti80    10.0   1_554     S
Ce84     V88    10.0   .     S
Ce85     V89    10.0   .     S
Ce85     Ti141    10.0   .     S
Ce85     Ti144    10.0   .     S
Ce85     Ti143    10.0   .     S
Ce86     V87    10.0   .     S
Ce86     Ce100    10.001   1_565     S
Ce86     Ti189    10.0   .     S
Ce86     Ti190    10.0   1_565     S
Ce86     Ti191    10.0   .     S
V87     V88    10.0   .     S
V87     V89    10.0   .     S
V87     Er90    10.0   .     S
V87     Er91    10.0   .     S
V88     V89    10.0   .     S
V88     Er91    10.0   .     S
V88     Er92    10.0   .     S
V89     Er92    10.0   .     S
V89     Er90    10.0   .     S
Er90     Er91    10.0   .     S
Er90     Er92    10.0   .     S
Er90     Ti96    10.0   .     S
Er91     Ti19    10.0   1_655     S
Er91     Er92    10.0   .     S
Er92     Ti106    10.0   .     S
Ti93     Ce102    10.0   .     S
Ti93     Ce145    10.0   1_655     S
Ti93     Ti94    10.0   1_655     S
Ti93     Ce132    10.0   .     S
Ti94     Ce132    10.0   1_455     S
Ti94     Ti93    10.0   1_455     S
Ti94     Ce145    10.0   .     S
Ti94     Er111    10.0   .     S
Ti95     Ce145    10.0   .     S
Ti95     Ti96    10.0   1_455     S
Ti95     Ce102    10.0   1_455     S
Ti95     Er187    10.0   .     S
Ti96     Ce132    10.0   .     S
Ti96     Ce102    10.0   .     S
Ti96     Ti95    10.0   1_655     S
Ti96     Ce27    10.0   1_655     S
Er97     Er98    10.0   .     S
Er97     Er99    10.0   .     S
Er97     V103    10.0   .     S
Er97     V105    10.0   1_655     S
Er97     Ti109    10.0   .     S
Er98     V104    10.0   1_545     S
Er98     Er99    10.0   .     S
Er98     V103    10.0   .     S
Er98     Ti155    10.0   .     S
Er99     V104    10.0   1_545     S
Er99     V105    10.0   1_655     S
Ce100     V103    10.0   .     S
Ce100     Ti190    10.0   .     S
Ce100     Ce86    10.001   1_545     S
Ce100     Ti192    10.0   .     S
Ce100     Ti191    10.0   1_545     S
Ce101     Ce162    10.001   .     S
Ce101     Ce175    10.001   .     S
Ce101     V105    10.0   .     S
Ce102     Ce145    10.001   1_655     S
Ce102     Ce132    10.001   .     S
Ce102     Ti95    10.0   1_655     S
Ce102     V104    10.0   .     S
V103     V104    10.0   1_545     S
V103     V105    10.0   1_655     S
V104     Er98    10.0   1_565     S
V104     Er99    10.0   1_565     S
V104     V105    10.0   1_665     S
V104     V103    10.0   1_565     S
V105     Er99    10.0   1_455     S
V105     Er97    10.0   1_455     S
V105     V104    10.0   1_445     S
V105     V103    10.0   1_455     S
Ti106     Ti107    10.0   .     S
Ti107     Er138    10.0   .     S
Ti108     Ti109    10.0   .     S
Er110     V115    10.0   .     S
Er110     Er111    10.0   .     S
Er110     V116    10.0   1_556     S
Er110     Er118    10.0   .     S
Er110     Ti120    10.0   .     S
Er111     V115    10.0   .     S
Er111     V117    10.0   1_455     S
Er111     Er118    10.0   .     S
Ce112     Ce73    10.001   1_455     S
Ce112     Ce160    10.001   .     S
Ce112     Ti70    10.0   1_455     S
Ce112     V115    10.0   .     S
Ce113     Ce183    10.001   .     S
Ce113     Ce176    10.001   .     S
Ce113     V116    10.0   .     S
Ce114     Ce84    10.001   1_556     S
Ce114     Ce133    10.001   .     S
Ce114     Ti82    10.0   1_556     S
Ce114     V117    10.0   .     S
V115     V116    10.0   1_556     S
V115     V117    10.0   1_455     S
V116     V115    10.0   1_554     S
V116     V117    10.0   1_454     S
V116     Er118    10.0   1_554     S
V116     Er110    10.0   1_554     S
V117     Er111    10.0   1_655     S
V117     Er118    10.0   1_655     S
V117     V115    10.0   1_655     S
V117     V116    10.0   1_656     S
Er118     V117    10.0   1_455     S
Er118     V116    10.0   1_556     S
Er118     Ti167    10.0   .     S
Ti119     Ce147    10.0   .     S
Ti119     Ti120    10.0   .     S
Ti119     Ce161    10.0   .     S
Ti120     Ce161    10.0   .     S
Ti120     Ce147    10.0   .     S
Ti121     Ce161    10.0   .     S
Ti121     Ti122    10.0   .     S
Ti122     Ce147    10.0   .     S
Ti122     Er139    10.0   .     S
Er123     Er124    10.0   .     S
Er123     Er125    10.0   .     S
Er123     V129    10.0   .     S
Er123     V131    10.0   1_565     S
Er123     Ti143    10.0   .     S
Er124     V130    10.0   1_554     S
Er124     Er125    10.0   .     S
Er124     V129    10.0   .     S
Er125     V130    10.0   1_554     S
Er125     V131    10.0   1_565     S
Er125     Ti189    10.0   .     S
Ce126     V129    10.0   .     S
Ce126     Ti168    10.0   .     S
Ce126     Ce146    10.001   1_554     S
Ce126     Ce182    10.001   .     S
Ce126     Ti170    10.0   .     S
Ce126     Ti169    10.0   1_554     S
Ce127     Ce174    10.001   .     S
Ce127     V131    10.0   .     S
Ce128     V130    10.0   .     S
Ce128     Ti154    10.0   .     S
Ce128     Ce71    10.001   1_565     S
Ce128     Ce134    10.001   .     S
Ce128     Ti157    10.0   .     S
Ce128     Ti156    10.0   1_565     S
V129     V130    10.0   1_554     S
V129     V131    10.0   1_565     S
V130     Er124    10.0   1_556     S
V130     Er125    10.0   1_556     S
V130     V129    10.0   1_556     S
V130     V131    10.0   1_566     S
V131     Er125    10.0   1_545     S
V131     Er123    10.0   1_545     S
V131     V130    10.0   1_544     S
V131     V129    10.0   1_545     S
Ce132     Ce27    10.001   1_655     S
Ce132     Ti94    10.0   1_655     S
Ce132     V137    10.0   .     S
Ce133     Ce13    10.001   1_556     S
Ce133     Ti81    10.0   1_556     S
Ce133     V136    10.0   .     S
Ce134     V135    10.0   .     S
Ce134     Ce49    10.001   1_565     S
Ce134     Ti155    10.0   1_565     S
Ce134     Ti154    10.0   .     S
Ce134     Ti157    10.0   .     S
V135     V136    10.0   .     S
V135     V137    10.0   .     S
V135     Er140    10.0   .     S
V135     Er139    10.0   .     S
V136     V137    10.0   .     S
V136     Er139    10.0   .     S
V136     Er138    10.0   .     S
V137     Er138    10.0   .     S
V137     Er140    10.0   .     S
Er138     Er140    10.0   .     S
Er138     Er139    10.0   .     S
Er139     Er140    10.0   .     S
Er140     Ti141    10.0   .     S
Ti141     Ti142    10.0   .     S
Ti142     Ce181    10.0   .     S
Ti142     Er153    10.0   .     S
Ti143     Ce181    10.0   .     S
Ti143     Ti144    10.0   .     S
Ti144     Ce181    10.0   .     S
Ce145     Ce102    10.001   1_455     S
Ce145     Ti93    10.0   1_455     S
Ce145     V148    10.0   .     S
Ce146     V149    10.0   .     S
Ce146     Ce126    10.001   1_556     S
Ce146     Ti167    10.0   .     S
Ce146     Ti168    10.0   1_556     S
Ce146     Ti169    10.0   .     S
Ce147     V150    10.0   .     S
V148     V150    10.0   .     S
V148     V149    10.0   .     S
V148     Er152    10.0   .     S
V148     Er153    10.0   .     S
V149     V150    10.0   .     S
V149     Er151    10.0   .     S
V149     Er152    10.0   .     S
V150     Er153    10.0   .     S
V150     Er151    10.0   .     S
Er151     Er152    10.0   .     S
Er151     Er153    10.0   .     S
Er151     Ti157    10.0   .     S
Er152     Ti32    10.0   1_565     S
Er152     Er153    10.0   .     S
Ti154     Ce71    10.0   1_565     S
Ti154     Ti155    10.0   1_565     S
Ti155     Ce134    10.0   1_545     S
Ti155     Ti154    10.0   1_545     S
Ti156     Ti157    10.0   1_545     S
Ti156     Ce128    10.0   1_545     S
Ti156     Er158    10.0   .     S
Ti157     Ti156    10.0   1_565     S
Ti157     Ce49    10.0   1_565     S
Er158     Er159    10.0   .     S
Er158     V165    10.0   .     S
Er158     V164    10.0   .     S
Er158     Er166    10.0   .     S
Er159     Er166    10.0   .     S
Er159     V165    10.0   .     S
Er159     V163    10.0   .     S
Er159     Ti169    10.0   1_545     S
Ce160     Ce1    10.001   1_455     S
Ce160     Ti67    10.0   1_455     S
Ce160     V163    10.0   .     S
Ce161     V164    10.0   .     S
Ce162     V165    10.0   .     S
V163     V164    10.0   .     S
V163     V165    10.0   .     S
V163     Er166    10.0   .     S
V164     V165    10.0   .     S
V164     Er166    10.0   .     S
Er166     Ti55    10.0   1_556     S
Ti167     Ce182    10.0   1_556     S
Ti167     Ti168    10.0   1_556     S
Ti168     Ti167    10.0   1_554     S
Ti168     Ce182    10.0   .     S
Ti168     Ce146    10.0   1_554     S
Ti169     Ti170    10.0   1_556     S
Ti169     Ce126    10.0   1_556     S
Ti169     Er159    10.0   1_565     S
Ti170     Ce182    10.0   .     S
Ti170     Ti169    10.0   1_554     S
Ti170     Ce3    10.0   1_554     S
Ti170     Er171    10.0   1_565     S
Er171     Ti170    10.0   1_545     S
Er171     V179    10.0   .     S
Er171     Er172    10.0   .     S
Er171     V178    10.0   .     S
Er171     Er173    10.0   .     S
Er172     Ti69    10.0   1_554     S
Er172     V179    10.0   .     S
Er172     Er173    10.0   .     S
Er172     V177    10.0   .     S
Er173     V178    10.0   .     S
Er173     V177    10.0   .     S
Er173     Ti192    10.0   1_455     S
Ce174     V179    10.0   .     S
Ce175     V178    10.0   .     S
Ce176     V177    10.0   .     S
V177     V178    10.0   .     S
V177     V179    10.0   .     S
V178     V179    10.0   .     S
Er180     Ti33    10.0   1_565     S
Er180     V185    10.0   .     S
Er180     Er187    10.0   .     S
Er180     V184    10.0   .     S
Er180     Er188    10.0   .     S
Ce181     V185    10.0   .     S
Ce182     Ce3    10.001   1_554     S
Ce182     Ti167    10.0   1_554     S
Ce182     V184    10.0   .     S
Ce183     V186    10.0   .     S
V184     Er188    10.0   .     S
V184     V185    10.0   .     S
V184     V186    10.0   .     S
V185     Er187    10.0   .     S
V185     V186    10.0   .     S
V186     Er187    10.0   .     S
V186     Er188    10.0   .     S
Er187     Er188    10.0   .     S
Er188     Ti191    10.0   1_455     S
Ti189     Ce62    10.0   1_565     S
Ti189     Ti190    10.0   1_565     S
Ti190     Ti189    10.0   1_545     S
Ti190     Ce86    10.0   1_545     S
Ti191     Ti192    10.0   1_565     S
Ti191     Ce100    10.0   1_565     S
Ti191     Er188    10.0   1_655     S
Ti192     Ti191    10.0   1_545     S
Ti192     Ce2    10.0   1_545     S
Ti192     Er173    10.0   1_655     S
