data_tpta
_audit_creation_date              2020-02-04
_audit_creation_method            'Pymatgen'
_symmetry_space_group_name_H-M    'P1'
_symmetry_Int_Tables_number       1
loop_
_symmetry_equiv_pos_as_xyz
  x,y,z
_cell_length_a                    24.9639
_cell_length_b                    24.9639
_cell_length_c                    56.3893
_cell_angle_alpha                 90.0
_cell_angle_beta                 90.0
_cell_angle_gamma                 120.0
loop_
_atom_site_label
_atom_site_type_symbol
_atom_site_fract_x
_atom_site_fract_y
_atom_site_fract_z
Er1     Er     0.4616   0.3789   0.5887
Er2     Er     0.5384   0.6211   0.5887
Er3     Er     0.6211   0.0827   0.5887
Er4     Er     0.3789   0.9173   0.5887
Er5     Er     0.0827   0.4616   0.5887
Er6     Er     0.9173   0.5384   0.5887
V7     V     0.8365   0.5599   0.6873
V8     V     0.1635   0.4401   0.6873
V9     V     0.7234   0.1635   0.6873
V10     V     0.2766   0.8365   0.6873
V11     V     0.4401   0.2766   0.6873
V12     V     0.5599   0.7234   0.6873
Er13     Er     0.3789   0.4616   0.9113
Er14     Er     0.6211   0.5384   0.9113
Er15     Er     0.4616   0.0827   0.9113
Er16     Er     0.5384   0.9173   0.9113
Er17     Er     0.0827   0.6211   0.9113
Er18     Er     0.9173   0.3789   0.9113
V19     V     0.5599   0.8365   0.8127
V20     V     0.4401   0.1635   0.8127
V21     V     0.7234   0.5599   0.8127
V22     V     0.8365   0.2766   0.8127
V23     V     0.2766   0.4401   0.8127
V24     V     0.1635   0.7234   0.8127
Er25     Er     0.3789   0.4616   0.0887
Er26     Er     0.6211   0.5384   0.0887
Er27     Er     0.4616   0.0827   0.0887
Er28     Er     0.5384   0.9173   0.0887
Er29     Er     0.0827   0.6211   0.0887
Er30     Er     0.9173   0.3789   0.0887
V31     V     0.5599   0.8365   0.1873
V32     V     0.4401   0.1635   0.1873
V33     V     0.7234   0.5599   0.1873
V34     V     0.8365   0.2766   0.1873
V35     V     0.2766   0.4401   0.1873
V36     V     0.1635   0.7234   0.1873
Er37     Er     0.4616   0.3789   0.4113
Er38     Er     0.5384   0.6211   0.4113
Er39     Er     0.6211   0.0827   0.4113
Er40     Er     0.3789   0.9173   0.4113
Er41     Er     0.0827   0.4616   0.4113
Er42     Er     0.9173   0.5384   0.4113
V43     V     0.8365   0.5599   0.3127
V44     V     0.2766   0.8365   0.3127
V45     V     0.1635   0.4401   0.3127
V46     V     0.7234   0.1635   0.3127
V47     V     0.4401   0.2766   0.3127
V48     V     0.5599   0.7234   0.3127
loop_
_geom_bond_atom_site_label_1
_geom_bond_atom_site_label_2
_geom_bond_distance
_geom_bond_site_symmetry_2
_ccdc_geom_bond_type
Er1     Er3    10.0   .     S
Er1     Er6    10.0   .     S
Er1     V8    10.0   .     S
Er1     Er37    10.0   .     S
Er2     Er4    10.0   .     S
Er2     V7    10.0   .     S
Er2     Er5    10.0   .     S
Er2     Er38    10.0   .     S
Er3     V12    10.0   1_545     S
Er3     Er6    10.0   .     S
Er3     Er39    10.0   .     S
Er4     V11    10.0   1_565     S
Er4     Er5    10.0   .     S
Er4     Er40    10.0   .     S
Er5     V9    10.0   1_455     S
Er5     Er41    10.0   .     S
Er6     V10    10.0   1_655     S
Er6     Er42    10.0   .     S
V7     V8    10.0   1_655     S
V7     V24    10.0   1_655     S
V7     V22    10.0   .     S
V8     V7    10.0   1_455     S
V8     V22    10.0   1_455     S
V8     V24    10.0   .     S
V9     V10    10.0   1_545     S
V9     Er5    10.0   1_655     S
V9     V19    10.0   1_545     S
V9     V20    10.0   .     S
V10     V9    10.0   1_565     S
V10     Er6    10.0   1_455     S
V10     V20    10.0   1_565     S
V10     V19    10.0   .     S
V11     Er4    10.0   1_545     S
V11     V12    10.0   .     S
V11     V23    10.0   .     S
V11     V21    10.0   .     S
V12     Er3    10.0   1_565     S
V12     V21    10.0   .     S
V12     V23    10.0   .     S
Er13     Er17    10.0   .     S
Er13     V20    10.0   .     S
Er13     Er16    10.0   .     S
Er13     Er25    10.0   1_556     S
Er14     Er18    10.0   .     S
Er14     Er15    10.0   .     S
Er14     V19    10.0   .     S
Er14     Er26    10.0   1_556     S
Er15     Er18    10.0   .     S
Er15     V24    10.0   1_545     S
Er15     Er27    10.0   1_556     S
Er16     V22    10.0   1_565     S
Er16     Er17    10.0   .     S
Er16     Er28    10.0   1_556     S
Er17     V21    10.0   1_455     S
Er17     Er29    10.0   1_556     S
Er18     V23    10.0   1_655     S
Er18     Er30    10.0   1_556     S
V19     V20    10.0   1_565     S
V19     V9    10.0   1_565     S
V20     V19    10.0   1_545     S
V20     V10    10.0   1_545     S
V21     Er17    10.0   1_655     S
V21     V23    10.0   .     S
V22     V24    10.0   1_655     S
V22     Er16    10.0   1_545     S
V22     V8    10.0   1_655     S
V23     Er18    10.0   1_455     S
V24     V22    10.0   1_455     S
V24     Er15    10.0   1_565     S
V24     V7    10.0   1_455     S
Er25     Er29    10.0   .     S
Er25     Er28    10.0   .     S
Er25     V32    10.0   .     S
Er25     Er13    10.0   1_554     S
Er26     Er30    10.0   .     S
Er26     V31    10.0   .     S
Er26     Er27    10.0   .     S
Er26     Er14    10.0   1_554     S
Er27     Er30    10.0   .     S
Er27     V36    10.0   1_545     S
Er27     Er15    10.0   1_554     S
Er28     V34    10.0   1_565     S
Er28     Er29    10.0   .     S
Er28     Er16    10.0   1_554     S
Er29     V33    10.0   1_455     S
Er29     Er17    10.0   1_554     S
Er30     V35    10.0   1_655     S
Er30     Er18    10.0   1_554     S
V31     V32    10.0   1_565     S
V31     V46    10.0   1_565     S
V31     V44    10.0   .     S
V32     V31    10.0   1_545     S
V32     V44    10.0   1_545     S
V32     V46    10.0   .     S
V33     Er29    10.0   1_655     S
V33     V35    10.0   .     S
V33     V48    10.0   .     S
V33     V47    10.0   .     S
V34     V36    10.0   1_655     S
V34     Er28    10.0   1_545     S
V34     V45    10.0   1_655     S
V34     V43    10.0   .     S
V35     Er30    10.0   1_455     S
V35     V47    10.0   .     S
V35     V48    10.0   .     S
V36     V34    10.0   1_455     S
V36     Er27    10.0   1_565     S
V36     V43    10.0   1_455     S
V36     V45    10.0   .     S
Er37     Er39    10.0   .     S
Er37     V45    10.0   .     S
Er37     Er42    10.0   .     S
Er38     Er40    10.0   .     S
Er38     Er41    10.0   .     S
Er38     V43    10.0   .     S
Er39     V48    10.0   1_545     S
Er39     Er42    10.0   .     S
Er40     V47    10.0   1_565     S
Er40     Er41    10.0   .     S
Er41     V46    10.0   1_455     S
Er42     V44    10.0   1_655     S
V43     V45    10.0   1_655     S
V43     V36    10.0   1_655     S
V44     V46    10.0   1_565     S
V44     Er42    10.0   1_455     S
V44     V32    10.0   1_565     S
V45     V43    10.0   1_455     S
V45     V34    10.0   1_455     S
V46     V44    10.0   1_545     S
V46     Er41    10.0   1_655     S
V46     V31    10.0   1_545     S
V47     Er40    10.0   1_545     S
V47     V48    10.0   .     S
V48     Er39    10.0   1_565     S
