data_trua
_audit_creation_date              2020-02-04
_audit_creation_method            'Pymatgen'
_symmetry_space_group_name_H-M    'P1'
_symmetry_Int_Tables_number       1
loop_
_symmetry_equiv_pos_as_xyz
  x,y,z
_cell_length_a                    118.3074
_cell_length_b                    118.3074
_cell_length_c                    118.3074
_cell_angle_alpha                 90.0
_cell_angle_beta                 90.0
_cell_angle_gamma                 90.0
loop_
_atom_site_label
_atom_site_type_symbol
_atom_site_fract_x
_atom_site_fract_y
_atom_site_fract_z
V1     V     0.3373   0.3373   0.9577
V2     V     0.3373   0.3373   0.0423
Er3     Er     0.2856   0.2856   0.0
Ce4     Ce     0.2039   0.1442   0.0
Ce5     Ce     0.1442   0.2039   0.0
Ti6     Ti     0.2258   0.2258   0.0
V7     V     0.3373   0.9577   0.3373
V8     V     0.3373   0.0423   0.3373
Er9     Er     0.2856   0.0   0.2856
Ce10     Ce     0.2039   0.0   0.1442
Ce11     Ce     0.1442   0.0   0.2039
Ti12     Ti     0.2258   0.0   0.2258
V13     V     0.9577   0.3373   0.3373
V14     V     0.0423   0.3373   0.3373
Er15     Er     0.0   0.2856   0.2856
Ce16     Ce     0.0   0.2039   0.1442
Ce17     Ce     0.0   0.1442   0.2039
Ti18     Ti     0.0   0.2258   0.2258
Ce19     Ce     0.8558   0.2039   0.0
Ce20     Ce     0.7961   0.1442   0.0
Ti21     Ti     0.7742   0.2258   0.0
V22     V     0.6627   0.3373   0.9577
V23     V     0.6627   0.3373   0.0423
Er24     Er     0.7144   0.2856   0.0
Li25     Li     0.0598   0.2002   0.0
Li26     Li     0.0   0.2002   0.0598
Li27     Li     0.0   0.2002   0.9402
Li28     Li     0.9402   0.2002   0.0
Ce29     Ce     0.0   0.2039   0.8558
Ce30     Ce     0.0   0.1442   0.7961
Ti31     Ti     0.0   0.2258   0.7742
V32     V     0.9577   0.3373   0.6627
V33     V     0.0423   0.3373   0.6627
Er34     Er     0.0   0.2856   0.7144
Ce35     Ce     0.2039   0.8558   0.0
Ce36     Ce     0.1442   0.7961   0.0
Ti37     Ti     0.2258   0.7742   0.0
V38     V     0.3373   0.6627   0.9577
V39     V     0.3373   0.6627   0.0423
Er40     Er     0.2856   0.7144   0.0
Li41     Li     0.2002   0.0598   0.0
Li42     Li     0.2002   0.0   0.0598
Li43     Li     0.2002   0.0   0.9402
Li44     Li     0.2002   0.9402   0.0
Ce45     Ce     0.2039   0.0   0.8558
Ce46     Ce     0.1442   0.0   0.7961
Ti47     Ti     0.2258   0.0   0.7742
V48     V     0.3373   0.9577   0.6627
V49     V     0.3373   0.0423   0.6627
Er50     Er     0.2856   0.0   0.7144
Li51     Li     0.0598   0.7998   0.0
Li52     Li     0.0   0.7998   0.0598
Li53     Li     0.0   0.7998   0.9402
Li54     Li     0.9402   0.7998   0.0
Ce55     Ce     0.0   0.7961   0.8558
Ce56     Ce     0.0   0.8558   0.7961
Ti57     Ti     0.0   0.7742   0.7742
V58     V     0.9577   0.6627   0.6627
V59     V     0.0423   0.6627   0.6627
Er60     Er     0.0   0.7144   0.7144
Li61     Li     0.0   0.0598   0.7998
Li62     Li     0.0598   0.0   0.7998
Li63     Li     0.9402   0.0   0.7998
Li64     Li     0.0   0.9402   0.7998
Ce65     Ce     0.8558   0.7961   0.0
Ce66     Ce     0.7961   0.8558   0.0
Ti67     Ti     0.7742   0.7742   0.0
V68     V     0.6627   0.6627   0.9577
V69     V     0.6627   0.6627   0.0423
Er70     Er     0.7144   0.7144   0.0
Li71     Li     0.7998   0.0   0.0598
Li72     Li     0.7998   0.0598   0.0
Li73     Li     0.7998   0.0   0.9402
Li74     Li     0.7998   0.9402   0.0
Ce75     Ce     0.8558   0.0   0.7961
Ce76     Ce     0.7961   0.0   0.8558
Ti77     Ti     0.7742   0.0   0.7742
V78     V     0.6627   0.9577   0.6627
V79     V     0.6627   0.0423   0.6627
Er80     Er     0.7144   0.0   0.7144
Ce81     Ce     0.0   0.8558   0.2039
Ce82     Ce     0.0   0.7961   0.1442
Ti83     Ti     0.0   0.7742   0.2258
V84     V     0.9577   0.6627   0.3373
V85     V     0.0423   0.6627   0.3373
Er86     Er     0.0   0.7144   0.2856
Li87     Li     0.0   0.0598   0.2002
Li88     Li     0.0598   0.0   0.2002
Li89     Li     0.9402   0.0   0.2002
Li90     Li     0.0   0.9402   0.2002
Ce91     Ce     0.8558   0.0   0.2039
Ce92     Ce     0.7961   0.0   0.1442
Ti93     Ti     0.7742   0.0   0.2258
V94     V     0.6627   0.9577   0.3373
V95     V     0.6627   0.0423   0.3373
Er96     Er     0.7144   0.0   0.2856
H97     H     0.3991   0.3393   0.8066
H98     H     0.3393   0.3991   0.8066
S99     S     0.3547   0.3547   0.8768
H100     H     0.8066   0.3991   0.3393
H101     H     0.8066   0.3393   0.3991
S102     S     0.8768   0.3547   0.3547
H103     H     0.3393   0.8066   0.3991
H104     H     0.3991   0.8066   0.3393
S105     S     0.3547   0.8768   0.3547
H106     H     0.8066   0.6009   0.6607
H107     H     0.8066   0.6607   0.6009
S108     S     0.8768   0.6453   0.6453
He109     He     0.7648   0.4577   0.705
He110     He     0.7648   0.5423   0.705
He111     He     0.705   0.4577   0.7648
He112     He     0.705   0.5423   0.7648
H113     H     0.6009   0.6607   0.8066
H114     H     0.6607   0.6009   0.8066
S115     S     0.6453   0.6453   0.8768
He116     He     0.4577   0.705   0.7648
He117     He     0.5423   0.705   0.7648
He118     He     0.4577   0.7648   0.705
He119     He     0.5423   0.7648   0.705
He120     He     0.7648   0.705   0.4577
He121     He     0.7648   0.705   0.5423
He122     He     0.705   0.7648   0.4577
He123     He     0.705   0.7648   0.5423
H124     H     0.6607   0.8066   0.6009
H125     H     0.6009   0.8066   0.6607
S126     S     0.6453   0.8768   0.6453
H127     H     0.3393   0.3991   0.1934
H128     H     0.3991   0.3393   0.1934
S129     S     0.3547   0.3547   0.1232
H130     H     0.3991   0.1934   0.3393
H131     H     0.3393   0.1934   0.3991
S132     S     0.3547   0.1232   0.3547
H133     H     0.1934   0.3393   0.3991
H134     H     0.1934   0.3991   0.3393
S135     S     0.1232   0.3547   0.3547
H136     H     0.6607   0.3991   0.8066
H137     H     0.6009   0.3393   0.8066
S138     S     0.6453   0.3547   0.8768
H139     H     0.3991   0.8066   0.6607
H140     H     0.3393   0.8066   0.6009
S141     S     0.3547   0.8768   0.6453
H142     H     0.3991   0.6607   0.8066
H143     H     0.3393   0.6009   0.8066
S144     S     0.3547   0.6453   0.8768
H145     H     0.8066   0.3991   0.6607
H146     H     0.8066   0.3393   0.6009
S147     S     0.8768   0.3547   0.6453
H148     H     0.6607   0.1934   0.3991
H149     H     0.6009   0.1934   0.3393
S150     S     0.6453   0.1232   0.3547
He151     He     0.4577   0.295   0.2352
He152     He     0.5423   0.295   0.2352
He153     He     0.4577   0.2352   0.295
He154     He     0.5423   0.2352   0.295
H155     H     0.6607   0.3991   0.1934
H156     H     0.6009   0.3393   0.1934
S157     S     0.6453   0.3547   0.1232
He158     He     0.4577   0.2352   0.705
He159     He     0.5423   0.2352   0.705
He160     He     0.4577   0.295   0.7648
He161     He     0.5423   0.295   0.7648
He162     He     0.705   0.2352   0.4577
He163     He     0.705   0.2352   0.5423
He164     He     0.7648   0.295   0.4577
He165     He     0.7648   0.295   0.5423
H166     H     0.6009   0.1934   0.6607
H167     H     0.6607   0.1934   0.6009
S168     S     0.6453   0.1232   0.6453
H169     H     0.3991   0.1934   0.6607
H170     H     0.3393   0.1934   0.6009
S171     S     0.3547   0.1232   0.6453
He172     He     0.295   0.2352   0.4577
He173     He     0.295   0.2352   0.5423
He174     He     0.2352   0.295   0.4577
He175     He     0.2352   0.295   0.5423
H176     H     0.1934   0.3991   0.6607
H177     H     0.1934   0.3393   0.6009
S178     S     0.1232   0.3547   0.6453
He179     He     0.2352   0.4577   0.705
He180     He     0.2352   0.5423   0.705
He181     He     0.295   0.4577   0.7648
He182     He     0.295   0.5423   0.7648
He183     He     0.2352   0.705   0.4577
He184     He     0.2352   0.705   0.5423
He185     He     0.295   0.7648   0.4577
He186     He     0.295   0.7648   0.5423
H187     H     0.1934   0.6607   0.6009
H188     H     0.1934   0.6009   0.6607
S189     S     0.1232   0.6453   0.6453
H190     H     0.1934   0.6607   0.3991
H191     H     0.1934   0.6009   0.3393
S192     S     0.1232   0.6453   0.3547
He193     He     0.2352   0.4577   0.295
He194     He     0.2352   0.5423   0.295
He195     He     0.295   0.4577   0.2352
He196     He     0.295   0.5423   0.2352
H197     H     0.3991   0.6607   0.1934
H198     H     0.3393   0.6009   0.1934
S199     S     0.3547   0.6453   0.1232
H200     H     0.6607   0.8066   0.3991
H201     H     0.6009   0.8066   0.3393
S202     S     0.6453   0.8768   0.3547
H203     H     0.8066   0.6607   0.3991
H204     H     0.8066   0.6009   0.3393
S205     S     0.8768   0.6453   0.3547
He206     He     0.4577   0.705   0.2352
He207     He     0.5423   0.705   0.2352
He208     He     0.4577   0.7648   0.295
He209     He     0.5423   0.7648   0.295
He210     He     0.705   0.4577   0.2352
He211     He     0.705   0.5423   0.2352
He212     He     0.7648   0.4577   0.295
He213     He     0.7648   0.5423   0.295
H214     H     0.6607   0.6009   0.1934
H215     H     0.6009   0.6607   0.1934
S216     S     0.6453   0.6453   0.1232
loop_
_geom_bond_atom_site_label_1
_geom_bond_atom_site_label_2
_geom_bond_distance
_geom_bond_site_symmetry_2
_ccdc_geom_bond_type
V1     Er3    9.997   1_556     S
V1     V2    10.002   1_556     S
V1     S99    10.004   .     S
V2     Er3    9.997   .     S
V2     V1    10.002   1_554     S
V2     S129    10.004   .     S
Er3     V1    9.997   1_554     S
Er3     Ti6    9.999   .     S
Ce4     Ti6    9.996   .     S
Ce4     Ce5    9.995   .     S
Ce4     Li41    9.999   .     S
Ce5     Ti6    9.996   .     S
Ce5     Li25    9.999   .     S
V7     Er9    9.997   1_565     S
V7     V8    10.002   1_565     S
V7     S105    10.004   .     S
V8     Er9    9.997   .     S
V8     V7    10.002   1_545     S
V8     S132    10.004   .     S
Er9     V7    9.997   1_545     S
Er9     Ti12    9.999   .     S
Ce10     Ti12    9.996   .     S
Ce10     Ce11    9.995   .     S
Ce10     Li42    9.999   .     S
Ce11     Ti12    9.996   .     S
Ce11     Li88    9.999   .     S
V13     Er15    9.997   1_655     S
V13     V14    10.002   1_655     S
V13     S102    10.004   .     S
V14     Er15    9.997   .     S
V14     V13    10.002   1_455     S
V14     S135    10.004   .     S
Er15     V13    9.997   1_455     S
Er15     Ti18    9.999   .     S
Ce16     Ti18    9.996   .     S
Ce16     Ce17    9.995   .     S
Ce16     Li26    9.999   .     S
Ce17     Ti18    9.996   .     S
Ce17     Li87    9.999   .     S
Ce19     Ti21    9.996   .     S
Ce19     Ce20    9.995   .     S
Ce19     Li28    9.999   .     S
Ce20     Ti21    9.996   .     S
Ce20     Li72    9.999   .     S
Ti21     Er24    9.999   .     S
V22     Er24    9.997   1_556     S
V22     V23    10.002   1_556     S
V22     S138    10.004   .     S
V23     Er24    9.997   .     S
V23     V22    10.002   1_554     S
V23     S157    10.004   .     S
Er24     V22    9.997   1_554     S
Li25     Li27    9.997   1_554     S
Li25     Li26    9.997   .     S
Li26     Li28    9.997   1_455     S
Li27     Li25    9.997   1_556     S
Li27     Li28    9.997   1_456     S
Li27     Ce29    9.999   .     S
Li28     Li26    9.997   1_655     S
Li28     Li27    9.997   1_654     S
Ce29     Ti31    9.996   .     S
Ce29     Ce30    9.995   .     S
Ce30     Ti31    9.996   .     S
Ce30     Li61    9.999   .     S
Ti31     Er34    9.999   .     S
V32     Er34    9.997   1_655     S
V32     V33    10.002   1_655     S
V32     S147    10.004   .     S
V33     Er34    9.997   .     S
V33     V32    10.002   1_455     S
V33     S178    10.004   .     S
Er34     V32    9.997   1_455     S
Ce35     Ti37    9.996   .     S
Ce35     Ce36    9.995   .     S
Ce35     Li44    9.999   .     S
Ce36     Ti37    9.996   .     S
Ce36     Li51    9.999   .     S
Ti37     Er40    9.999   .     S
V38     Er40    9.997   1_556     S
V38     V39    10.002   1_556     S
V38     S144    10.004   .     S
V39     Er40    9.997   .     S
V39     V38    10.002   1_554     S
V39     S199    10.004   .     S
Er40     V38    9.997   1_554     S
Li41     Li43    9.997   1_554     S
Li41     Li42    9.997   .     S
Li42     Li44    9.997   1_545     S
Li43     Li41    9.997   1_556     S
Li43     Li44    9.997   1_546     S
Li43     Ce45    9.999   .     S
Li44     Li42    9.997   1_565     S
Li44     Li43    9.997   1_564     S
Ce45     Ti47    9.996   .     S
Ce45     Ce46    9.995   .     S
Ce46     Ti47    9.996   .     S
Ce46     Li62    9.999   .     S
Ti47     Er50    9.999   .     S
V48     Er50    9.997   1_565     S
V48     V49    10.002   1_565     S
V48     S141    10.004   .     S
V49     Er50    9.997   .     S
V49     V48    10.002   1_545     S
V49     S171    10.004   .     S
Er50     V48    9.997   1_545     S
Li51     Li53    9.997   1_554     S
Li51     Li52    9.997   .     S
Li52     Li54    9.997   1_455     S
Li52     Ce82    9.999   .     S
Li53     Li51    9.997   1_556     S
Li53     Li54    9.997   1_456     S
Li53     Ce55    9.999   .     S
Li54     Li52    9.997   1_655     S
Li54     Li53    9.997   1_654     S
Li54     Ce65    9.999   .     S
Ce55     Ti57    9.996   .     S
Ce55     Ce56    9.995   .     S
Ce56     Ti57    9.996   .     S
Ce56     Li64    9.999   .     S
Ti57     Er60    9.999   .     S
V58     Er60    9.997   1_655     S
V58     V59    10.002   1_655     S
V58     S108    10.004   .     S
V59     Er60    9.997   .     S
V59     V58    10.002   1_455     S
V59     S189    10.004   .     S
Er60     V58    9.997   1_455     S
Li61     Li63    9.997   1_455     S
Li61     Li62    9.997   .     S
Li62     Li64    9.997   1_545     S
Li63     Li61    9.997   1_655     S
Li63     Li64    9.997   1_645     S
Li63     Ce75    9.999   .     S
Li64     Li62    9.997   1_565     S
Li64     Li63    9.997   1_465     S
Ce65     Ti67    9.996   .     S
Ce65     Ce66    9.995   .     S
Ce66     Ti67    9.996   .     S
Ce66     Li74    9.999   .     S
Ti67     Er70    9.999   .     S
V68     Er70    9.997   1_556     S
V68     V69    10.002   1_556     S
V68     S115    10.004   .     S
V69     Er70    9.997   .     S
V69     V68    10.002   1_554     S
V69     S216    10.004   .     S
Er70     V68    9.997   1_554     S
Li71     Li74    9.997   1_545     S
Li71     Li72    9.997   .     S
Li71     Ce92    9.999   .     S
Li72     Li73    9.997   1_554     S
Li73     Li72    9.997   1_556     S
Li73     Li74    9.997   1_546     S
Li73     Ce76    9.999   .     S
Li74     Li71    9.997   1_565     S
Li74     Li73    9.997   1_564     S
Ce75     Ti77    9.996   .     S
Ce75     Ce76    9.995   .     S
Ce76     Ti77    9.996   .     S
Ti77     Er80    9.999   .     S
V78     Er80    9.997   1_565     S
V78     V79    10.002   1_565     S
V78     S126    10.004   .     S
V79     Er80    9.997   .     S
V79     V78    10.002   1_545     S
V79     S168    10.004   .     S
Er80     V78    9.997   1_545     S
Ce81     Ti83    9.996   .     S
Ce81     Ce82    9.995   .     S
Ce81     Li90    9.999   .     S
Ce82     Ti83    9.996   .     S
Ti83     Er86    9.999   .     S
V84     Er86    9.997   1_655     S
V84     V85    10.002   1_655     S
V84     S205    10.004   .     S
V85     Er86    9.997   .     S
V85     V84    10.002   1_455     S
V85     S192    10.004   .     S
Er86     V84    9.997   1_455     S
Li87     Li88    9.997   .     S
Li87     Li89    9.997   1_455     S
Li88     Li90    9.997   1_545     S
Li89     Li87    9.997   1_655     S
Li89     Li90    9.997   1_645     S
Li89     Ce91    9.999   .     S
Li90     Li88    9.997   1_565     S
Li90     Li89    9.997   1_465     S
Ce91     Ti93    9.996   .     S
Ce91     Ce92    9.995   .     S
Ce92     Ti93    9.996   .     S
Ti93     Er96    9.999   .     S
V94     Er96    9.997   1_565     S
V94     V95    10.002   1_565     S
V94     S202    10.004   .     S
V95     Er96    9.997   .     S
V95     V94    10.002   1_545     S
V95     S150    10.004   .     S
Er96     V94    9.997   1_545     S
H97     S99    10.0   .     S
H97     H98    10.0   .     S
H97     He160    10.003   .     S
H98     S99    10.0   .     S
H98     He181    10.003   .     S
H100     S102    10.0   .     S
H100     H101    10.0   .     S
H100     He212    10.003   .     S
H101     S102    10.0   .     S
H101     He164    10.003   .     S
H103     S105    10.0   .     S
H103     H104    10.0   .     S
H103     He185    10.003   .     S
H104     S105    10.0   .     S
H104     He208    10.003   .     S
H106     S108    10.0   .     S
H106     H107    10.0   .     S
H106     He110    10.003   .     S
H107     S108    10.0   .     S
H107     He121    10.003   .     S
He109     He110    10.002   .     S
He109     He111    10.002   .     S
He109     H145    10.003   .     S
He110     He112    10.002   .     S
He111     He112    10.002   .     S
He111     H136    10.003   .     S
He112     H114    10.003   .     S
H113     S115    10.0   .     S
H113     H114    10.0   .     S
H113     He117    10.003   .     S
H114     S115    10.0   .     S
He116     He117    10.002   .     S
He116     He118    10.002   .     S
He116     H142    10.003   .     S
He117     He119    10.002   .     S
He118     He119    10.002   .     S
He118     H139    10.003   .     S
He119     H125    10.003   .     S
He120     He121    10.002   .     S
He120     He122    10.002   .     S
He120     H203    10.003   .     S
He121     He123    10.002   .     S
He122     He123    10.002   .     S
He122     H200    10.003   .     S
He123     H124    10.003   .     S
H124     S126    10.0   .     S
H124     H125    10.0   .     S
H125     S126    10.0   .     S
H127     S129    10.0   .     S
H127     H128    10.0   .     S
H127     He195    10.003   .     S
H128     S129    10.0   .     S
H128     He151    10.003   .     S
H130     S132    10.0   .     S
H130     H131    10.0   .     S
H130     He153    10.003   .     S
H131     S132    10.0   .     S
H131     He172    10.003   .     S
H133     S135    10.0   .     S
H133     H134    10.0   .     S
H133     He174    10.003   .     S
H134     S135    10.0   .     S
H134     He193    10.003   .     S
H136     S138    10.0   .     S
H136     H137    10.0   .     S
H137     S138    10.0   .     S
H137     He161    10.003   .     S
H139     S141    10.0   .     S
H139     H140    10.0   .     S
H140     S141    10.0   .     S
H140     He186    10.003   .     S
H142     S144    10.0   .     S
H142     H143    10.0   .     S
H143     S144    10.0   .     S
H143     He182    10.003   .     S
H145     S147    10.0   .     S
H145     H146    10.0   .     S
H146     S147    10.0   .     S
H146     He165    10.003   .     S
H148     S150    10.0   .     S
H148     H149    10.0   .     S
H148     He162    10.003   .     S
H149     S150    10.0   .     S
H149     He154    10.003   .     S
He151     He152    10.002   .     S
He151     He153    10.002   .     S
He152     He154    10.002   .     S
He152     H156    10.003   .     S
He153     He154    10.002   .     S
H155     S157    10.0   .     S
H155     H156    10.0   .     S
H155     He210    10.003   .     S
H156     S157    10.0   .     S
He158     He159    10.002   .     S
He158     He160    10.002   .     S
He158     H169    10.003   .     S
He159     He161    10.002   .     S
He159     H166    10.003   .     S
He160     He161    10.002   .     S
He162     He163    10.002   .     S
He162     He164    10.002   .     S
He163     He165    10.002   .     S
He163     H167    10.003   .     S
He164     He165    10.002   .     S
H166     S168    10.0   .     S
H166     H167    10.0   .     S
H167     S168    10.0   .     S
H169     S171    10.0   .     S
H169     H170    10.0   .     S
H170     S171    10.0   .     S
H170     He173    10.003   .     S
He172     He173    10.002   .     S
He172     He174    10.002   .     S
He173     He175    10.002   .     S
He174     He175    10.002   .     S
He175     H177    10.003   .     S
H176     S178    10.0   .     S
H176     H177    10.0   .     S
H176     He179    10.003   .     S
H177     S178    10.0   .     S
He179     He180    10.002   .     S
He179     He181    10.002   .     S
He180     He182    10.002   .     S
He180     H188    10.003   .     S
He181     He182    10.002   .     S
He183     He184    10.002   .     S
He183     He185    10.002   .     S
He183     H190    10.003   .     S
He184     He186    10.002   .     S
He184     H187    10.003   .     S
He185     He186    10.002   .     S
H187     S189    10.0   .     S
H187     H188    10.0   .     S
H188     S189    10.0   .     S
H190     S192    10.0   .     S
H190     H191    10.0   .     S
H191     S192    10.0   .     S
H191     He194    10.003   .     S
He193     He194    10.002   .     S
He193     He195    10.002   .     S
He194     He196    10.002   .     S
He195     He196    10.002   .     S
He196     H198    10.003   .     S
H197     S199    10.0   .     S
H197     H198    10.0   .     S
H197     He206    10.003   .     S
H198     S199    10.0   .     S
H200     S202    10.0   .     S
H200     H201    10.0   .     S
H201     S202    10.0   .     S
H201     He209    10.003   .     S
H203     S205    10.0   .     S
H203     H204    10.0   .     S
H204     S205    10.0   .     S
H204     He213    10.003   .     S
He206     He207    10.002   .     S
He206     He208    10.002   .     S
He207     He209    10.002   .     S
He207     H215    10.003   .     S
He208     He209    10.002   .     S
He210     He211    10.002   .     S
He210     He212    10.002   .     S
He211     He213    10.002   .     S
He211     H214    10.003   .     S
He212     He213    10.002   .     S
H214     S216    10.0   .     S
H214     H215    10.0   .     S
H215     S216    10.0   .     S
