data_tsaa
_audit_creation_date              2020-02-04
_audit_creation_method            'Pymatgen'
_symmetry_space_group_name_H-M    'P1'
_symmetry_Int_Tables_number       1
loop_
_symmetry_equiv_pos_as_xyz
  x,y,z
_cell_length_a                    64.0002
_cell_length_b                    64.0002
_cell_length_c                    65.8974
_cell_angle_alpha                 90.0
_cell_angle_beta                 90.0
_cell_angle_gamma                 120.0
loop_
_atom_site_label
_atom_site_type_symbol
_atom_site_fract_x
_atom_site_fract_y
_atom_site_fract_z
V1     V     0.4375   0.7188   0.75
V2     V     0.2812   0.5625   0.75
V3     V     0.2812   0.7188   0.75
V4     V     0.5625   0.2812   0.25
V5     V     0.7188   0.2812   0.25
V6     V     0.7188   0.4375   0.25
Ti7     Ti     0.8872   0.1128   0.3259
Ti8     Ti     0.8872   0.1128   0.1741
Er9     Er     0.809   0.191   0.25
Ti10     Ti     0.8872   0.7743   0.3259
Ti11     Ti     0.8872   0.7743   0.1741
Er12     Er     0.809   0.618   0.25
Ti13     Ti     0.2257   0.1128   0.3259
Ti14     Ti     0.2257   0.1128   0.1741
Er15     Er     0.382   0.191   0.25
Ti16     Ti     0.1128   0.8872   0.6741
Ti17     Ti     0.1128   0.8872   0.8259
Er18     Er     0.191   0.809   0.75
Ti19     Ti     0.1128   0.2257   0.6741
Ti20     Ti     0.1128   0.2257   0.8259
Er21     Er     0.191   0.382   0.75
Ce22     Ce     0.9479   0.8959   0.4381
Ce23     Ce     0.1041   0.0521   0.4381
Ce24     Ce     0.9479   0.0521   0.4381
Ce25     Ce     0.0521   0.9479   0.5619
Ce26     Ce     0.0521   0.1041   0.5619
Ce27     Ce     0.8959   0.9479   0.5619
Ce28     Ce     0.0521   0.9479   0.938
Ce29     Ce     0.0521   0.1041   0.938
Ce30     Ce     0.8959   0.9479   0.938
Ce31     Ce     0.9479   0.0521   0.062
Ce32     Ce     0.1041   0.0521   0.062
Ce33     Ce     0.9479   0.8959   0.062
Ti34     Ti     0.7743   0.8872   0.8259
Ti35     Ti     0.7743   0.8872   0.6741
Er36     Er     0.618   0.809   0.75
loop_
_geom_bond_atom_site_label_1
_geom_bond_atom_site_label_2
_geom_bond_distance
_geom_bond_site_symmetry_2
_ccdc_geom_bond_type
V1     V3    10.001   .     S
V1     V2    10.001   .     S
V1     Er36    10.006   .     S
V2     V3    10.001   .     S
V2     Er21    10.006   .     S
V3     Er18    10.006   .     S
V4     V5    10.001   .     S
V4     V6    10.001   .     S
V4     Er15    10.006   .     S
V5     V6    10.001   .     S
V5     Er9    10.006   .     S
V6     Er12    10.006   .     S
Ti7     Er9    10.001   .     S
Ti7     Ti8    9.998   .     S
Ti7     Ce24    10.002   .     S
Ti8     Er9    10.001   .     S
Ti8     Ce31    10.002   .     S
Ti10     Ti11    9.998   .     S
Ti10     Er12    10.001   .     S
Ti10     Ce22    10.002   .     S
Ti11     Er12    10.001   .     S
Ti11     Ce33    10.002   .     S
Ti13     Ti14    9.998   .     S
Ti13     Er15    10.001   .     S
Ti13     Ce23    10.002   .     S
Ti14     Er15    10.001   .     S
Ti14     Ce32    10.002   .     S
Ti16     Ti17    9.998   .     S
Ti16     Er18    10.001   .     S
Ti16     Ce25    10.002   .     S
Ti17     Er18    10.001   .     S
Ti17     Ce28    10.002   .     S
Ti19     Ti20    9.998   .     S
Ti19     Er21    10.001   .     S
Ti19     Ce26    10.002   .     S
Ti20     Er21    10.001   .     S
Ti20     Ce29    10.002   .     S
Ce22     Ce23    9.997   1_665     S
Ce22     Ce24    9.997   1_565     S
Ce22     Ce25    9.999   1_655     S
Ce22     Ce27    9.999   .     S
Ce23     Ce22    9.997   1_445     S
Ce23     Ce24    9.997   1_455     S
Ce23     Ce26    9.998   .     S
Ce23     Ce25    9.999   1_545     S
Ce24     Ce23    9.997   1_655     S
Ce24     Ce22    9.997   1_545     S
Ce24     Ce27    9.998   1_545     S
Ce24     Ce26    9.999   1_655     S
Ce25     Ce22    9.999   1_455     S
Ce25     Ce23    9.999   1_565     S
Ce25     Ce27    9.997   1_455     S
Ce25     Ce26    9.996   1_565     S
Ce26     Ce24    9.999   1_455     S
Ce26     Ce27    9.997   1_445     S
Ce26     Ce25    9.996   1_545     S
Ce27     Ce24    9.998   1_565     S
Ce27     Ce26    9.997   1_665     S
Ce27     Ce25    9.997   1_655     S
Ce27     Ti35    10.002   .     S
Ce28     Ce30    9.996   1_455     S
Ce28     Ce29    9.997   1_565     S
Ce28     Ce33    9.999   1_456     S
Ce28     Ce32    9.998   1_566     S
Ce29     Ce30    9.997   1_445     S
Ce29     Ce28    9.997   1_545     S
Ce29     Ce32    9.999   1_556     S
Ce29     Ce31    9.998   1_456     S
Ce30     Ce28    9.996   1_655     S
Ce30     Ce29    9.997   1_665     S
Ce30     Ce33    9.998   1_556     S
Ce30     Ce31    9.999   1_566     S
Ce30     Ti34    10.002   .     S
Ce31     Ce30    9.999   1_544     S
Ce31     Ce29    9.998   1_654     S
Ce31     Ce32    9.997   1_655     S
Ce31     Ce33    9.996   1_545     S
Ce32     Ce28    9.998   1_544     S
Ce32     Ce29    9.999   1_554     S
Ce32     Ce31    9.997   1_455     S
Ce32     Ce33    9.997   1_445     S
Ce33     Ce30    9.998   1_554     S
Ce33     Ce28    9.999   1_654     S
Ce33     Ce32    9.997   1_665     S
Ce33     Ce31    9.996   1_565     S
Ti34     Ti35    9.998   .     S
Ti34     Er36    10.001   .     S
Ti35     Er36    10.001   .     S
