data_tsha
_audit_creation_date              2020-02-04
_audit_creation_method            'Pymatgen'
_symmetry_space_group_name_H-M    'P1'
_symmetry_Int_Tables_number       1
loop_
_symmetry_equiv_pos_as_xyz
  x,y,z
_cell_length_a                    55.8412
_cell_length_b                    55.8412
_cell_length_c                    84.3255
_cell_angle_alpha                 90.0
_cell_angle_beta                 90.0
_cell_angle_gamma                 120.0
loop_
_atom_site_label
_atom_site_type_symbol
_atom_site_fract_x
_atom_site_fract_y
_atom_site_fract_z
Ce1     Ce     0.9491   0.3333   0.8333
Ce2     Ce     0.3842   0.0509   0.8333
Ti3     Ti     0.7701   0.3333   0.8333
Ti4     Ti     0.5633   0.2299   0.8333
Ti5     Ti     0.6667   0.4367   0.8333
Ce6     Ce     0.6667   0.6158   0.8333
Ce7     Ce     0.7175   0.7175   0.5
Ti8     Ti     0.8966   0.8966   0.5
Ti9     Ti     0.0   0.1034   0.5
Ti10     Ti     0.1034   0.0   0.5
Ce11     Ce     0.0   0.2825   0.5
Ce12     Ce     0.2825   0.0   0.5
V13     V     0.393   0.607   0.6183
V14     V     0.4527   0.7264   0.7151
V15     V     0.7264   0.4527   0.2849
V16     V     0.607   0.393   0.3817
Er17     Er     0.5987   0.5262   0.4577
Er18     Er     0.5262   0.5987   0.5423
Er19     Er     0.7391   0.8071   0.8756
Er20     Er     0.5942   0.7347   0.791
V21     V     0.8806   0.9403   0.9516
V22     V     0.9403   0.8806   0.0484
Er23     Er     0.8071   0.7391   0.1244
Er24     Er     0.7347   0.5942   0.209
V25     V     0.2139   0.607   0.6183
V26     V     0.2736   0.5473   0.7151
Er27     Er     0.9275   0.4013   0.4577
Er28     Er     0.0725   0.4738   0.5423
V29     V     0.7264   0.2736   0.2849
V30     V     0.7861   0.393   0.3817
Er31     Er     0.8595   0.2653   0.209
Er32     Er     0.932   0.1929   0.1244
V33     V     0.0597   0.1194   0.9516
V34     V     0.9403   0.0597   0.0484
Er35     Er     0.1405   0.4058   0.791
Er36     Er     0.068   0.2609   0.8756
V37     V     0.393   0.7861   0.6183
V38     V     0.2736   0.7264   0.7151
Er39     Er     0.2653   0.8595   0.791
Er40     Er     0.1929   0.932   0.8756
V41     V     0.1194   0.0597   0.0484
V42     V     0.0597   0.9403   0.9516
Er43     Er     0.4013   0.9275   0.5423
Er44     Er     0.4738   0.0725   0.4577
V45     V     0.607   0.2139   0.3817
V46     V     0.5473   0.2736   0.2849
Er47     Er     0.4058   0.1405   0.209
Er48     Er     0.2609   0.068   0.1244
Ce49     Ce     0.0509   0.3842   0.1667
Ce50     Ce     0.3333   0.9491   0.1667
Ti51     Ti     0.2299   0.5633   0.1667
Ti52     Ti     0.3333   0.7701   0.1667
Ti53     Ti     0.4367   0.6667   0.1667
Ce54     Ce     0.6158   0.6667   0.1667
loop_
_geom_bond_atom_site_label_1
_geom_bond_atom_site_label_2
_geom_bond_distance
_geom_bond_site_symmetry_2
_ccdc_geom_bond_type
Ce1     Ti3    10.0   .     S
Ce1     Er35    10.0   1_655     S
Ce1     Er36    10.0   1_655     S
Ce2     Ti4    10.0   .     S
Ce2     Er39    10.0   1_545     S
Ce2     Er40    10.0   1_545     S
Ti3     Ti5    10.0   .     S
Ti3     Ti4    10.0   .     S
Ti4     Ti5    10.0   .     S
Ti5     Ce6    10.0   .     S
Ce6     Er20    10.0   .     S
Ce6     Er19    10.0   .     S
Ce7     Ti8    10.0   .     S
Ce7     Er17    10.0   .     S
Ce7     Er18    10.0   .     S
Ti8     Ti10    10.0   1_665     S
Ti8     Ti9    10.0   1_665     S
Ti9     Ti10    10.0   .     S
Ti9     Ti8    10.0   1_445     S
Ti9     Ce11    10.0   .     S
Ti10     Ti8    10.0   1_445     S
Ti10     Ce12    10.0   .     S
Ce11     Er27    10.0   1_455     S
Ce11     Er28    10.0   .     S
Ce12     Er43    10.0   1_545     S
Ce12     Er44    10.0   .     S
V13     V14    9.999   .     S
V13     Er18    10.0   .     S
V13     V37    10.0   .     S
V13     V26    10.0   .     S
V13     V25    10.0   .     S
V14     Er20    10.0   .     S
V14     V37    10.0   .     S
V14     V38    10.0   .     S
V14     V26    10.0   .     S
V15     V46    10.0   .     S
V15     V30    10.0   .     S
V15     V29    10.0   .     S
V15     V16    9.999   .     S
V15     Er24    10.0   .     S
V16     V46    10.0   .     S
V16     V45    10.0   .     S
V16     V30    10.0   .     S
V16     Er17    10.0   .     S
Er17     Er18    10.0   .     S
Er19     Er20    10.0   .     S
Er19     V21    10.0   .     S
V21     V42    10.0   1_655     S
V21     V34    10.0   1_566     S
V21     V33    10.0   1_665     S
V21     V22    9.999   1_556     S
V22     V42    10.0   1_654     S
V22     V41    10.0   1_665     S
V22     V34    10.0   1_565     S
V22     V21    9.999   1_554     S
V22     Er23    10.0   .     S
Er23     Er24    10.0   .     S
Er23     Ce54    10.0   .     S
Er24     Ce54    10.0   .     S
V25     V26    9.999   .     S
V25     Er28    10.0   .     S
V25     V38    10.0   .     S
V25     V37    10.0   .     S
V26     Er35    10.0   .     S
V26     V38    10.0   .     S
Er27     Ce11    10.0   1_655     S
Er27     Er28    10.0   1_655     S
Er27     V30    10.0   .     S
Er28     Er27    10.0   1_455     S
V29     V45    10.0   .     S
V29     V46    10.0   .     S
V29     V30    9.999   .     S
V29     Er31    10.0   .     S
V30     V45    10.0   .     S
Er31     Ce49    10.0   1_655     S
Er31     Er32    10.0   .     S
Er32     Ce49    10.0   1_655     S
Er32     V34    10.0   .     S
V33     V41    10.0   1_556     S
V33     V42    10.0   1_545     S
V33     V21    10.0   1_445     S
V33     V34    9.999   1_456     S
V33     Er36    10.0   .     S
V34     V41    10.0   1_655     S
V34     V21    10.0   1_544     S
V34     V22    10.0   1_545     S
V34     V33    9.999   1_654     S
Er35     Ce1    10.0   1_455     S
Er35     Er36    10.0   .     S
Er36     Ce1    10.0   1_455     S
V37     V38    9.999   .     S
V37     Er43    10.0   .     S
V38     Er39    10.0   .     S
Er39     Ce2    10.0   1_565     S
Er39     Er40    10.0   .     S
Er40     Ce2    10.0   1_565     S
Er40     V42    10.0   .     S
V41     V22    10.0   1_445     S
V41     V33    10.0   1_554     S
V41     V34    10.0   1_455     S
V41     V42    9.999   1_544     S
V41     Er48    10.0   .     S
V42     V22    10.0   1_456     S
V42     V21    10.0   1_455     S
V42     V33    10.0   1_565     S
V42     V41    9.999   1_566     S
Er43     Ce12    10.0   1_565     S
Er43     Er44    10.0   1_565     S
Er44     Er43    10.0   1_545     S
Er44     V45    10.0   .     S
V45     V46    9.999   .     S
V46     Er47    10.0   .     S
Er47     Ce50    10.0   1_545     S
Er47     Er48    10.0   .     S
Er48     Ce50    10.0   1_545     S
Ce49     Er31    10.0   1_455     S
Ce49     Er32    10.0   1_455     S
Ce49     Ti51    10.0   .     S
Ce50     Er47    10.0   1_565     S
Ce50     Er48    10.0   1_565     S
Ce50     Ti52    10.0   .     S
Ti51     Ti52    10.0   .     S
Ti51     Ti53    10.0   .     S
Ti52     Ti53    10.0   .     S
Ti53     Ce54    10.0   .     S
