data_tsqa
_audit_creation_date              2020-02-04
_audit_creation_method            'Pymatgen'
_symmetry_space_group_name_H-M    'P1'
_symmetry_Int_Tables_number       1
loop_
_symmetry_equiv_pos_as_xyz
  x,y,z
_cell_length_a                    40.8651
_cell_length_b                    40.8651
_cell_length_c                    118.0224
_cell_angle_alpha                 90.0
_cell_angle_beta                 90.0
_cell_angle_gamma                 90.0
loop_
_atom_site_label
_atom_site_type_symbol
_atom_site_fract_x
_atom_site_fract_y
_atom_site_fract_z
Ce1     Ce     0.3776   0.0   0.5424
Ce2     Ce     0.3776   0.0   0.4576
Ce3     Ce     0.6224   0.0   0.5424
Ce4     Ce     0.6224   0.0   0.4576
Ce5     Ce     0.0   0.3776   0.5424
Ce6     Ce     0.0   0.3776   0.4576
Ce7     Ce     0.0   0.6224   0.5424
Ce8     Ce     0.0   0.6224   0.4576
Ti9     Ti     0.173   0.0   0.4112
Ti10     Ti     0.0   0.173   0.4112
Ti11     Ti     0.0   0.827   0.4112
Ti12     Ti     0.827   0.0   0.4112
Ti13     Ti     0.0   0.173   0.5888
Ti14     Ti     0.173   0.0   0.5888
Ti15     Ti     0.827   0.0   0.5888
Ti16     Ti     0.0   0.827   0.5888
Er17     Er     0.5   0.1224   0.22
Er18     Er     0.5   0.8776   0.22
V19     V     0.5   0.327   0.1736
V20     V     0.5   0.673   0.1736
Er21     Er     0.1224   0.5   0.22
Er22     Er     0.8776   0.5   0.22
V23     V     0.327   0.5   0.1736
V24     V     0.673   0.5   0.1736
Er25     Er     0.3776   0.0   0.28
Er26     Er     0.6224   0.0   0.28
V27     V     0.827   0.0   0.3264
V28     V     0.173   0.0   0.3264
Er29     Er     0.0   0.3776   0.28
Er30     Er     0.0   0.6224   0.28
V31     V     0.0   0.827   0.3264
V32     V     0.0   0.173   0.3264
Er33     Er     0.1224   0.5   0.78
Er34     Er     0.8776   0.5   0.78
V35     V     0.327   0.5   0.8264
V36     V     0.673   0.5   0.8264
Er37     Er     0.5   0.1224   0.78
Er38     Er     0.5   0.8776   0.78
V39     V     0.5   0.327   0.8264
V40     V     0.5   0.673   0.8264
Er41     Er     0.3776   0.0   0.72
Er42     Er     0.6224   0.0   0.72
V43     V     0.827   0.0   0.6736
V44     V     0.173   0.0   0.6736
Er45     Er     0.0   0.3776   0.72
Er46     Er     0.0   0.6224   0.72
V47     V     0.0   0.827   0.6736
V48     V     0.0   0.173   0.6736
Ti49     Ti     0.5   0.327   0.9112
Ti50     Ti     0.673   0.5   0.9112
Ti51     Ti     0.5   0.673   0.9112
Ti52     Ti     0.327   0.5   0.9112
Ce53     Ce     0.5   0.1224   0.9576
Ce54     Ce     0.5   0.1224   0.0424
Ce55     Ce     0.5   0.8776   0.9576
Ce56     Ce     0.5   0.8776   0.0424
Ce57     Ce     0.1224   0.5   0.9576
Ce58     Ce     0.1224   0.5   0.0424
Ce59     Ce     0.8776   0.5   0.9576
Ce60     Ce     0.8776   0.5   0.0424
Ti61     Ti     0.327   0.5   0.0888
Ti62     Ti     0.5   0.673   0.0888
Ti63     Ti     0.673   0.5   0.0888
Ti64     Ti     0.5   0.327   0.0888
loop_
_geom_bond_atom_site_label_1
_geom_bond_atom_site_label_2
_geom_bond_distance
_geom_bond_site_symmetry_2
_ccdc_geom_bond_type
Ce1     Ce2    9.999   .     S
Ce1     Ce3    10.0   .     S
Ce1     Ti14    10.001   .     S
Ce2     Ce4    10.0   .     S
Ce2     Ti9    10.001   .     S
Ce3     Ce4    9.999   .     S
Ce3     Ti15    10.001   .     S
Ce4     Ti12    10.001   .     S
Ce5     Ce6    9.999   .     S
Ce5     Ce7    10.0   .     S
Ce5     Ti13    10.001   .     S
Ce6     Ce8    10.0   .     S
Ce6     Ti10    10.001   .     S
Ce7     Ce8    9.999   .     S
Ce7     Ti16    10.001   .     S
Ce8     Ti11    10.001   .     S
Ti9     V28    10.0   .     S
Ti9     Ti10    10.0   .     S
Ti9     Ti11    10.0   1_545     S
Ti10     V32    10.0   .     S
Ti10     Ti12    10.0   1_455     S
Ti11     V31    10.0   .     S
Ti11     Ti9    10.0   1_565     S
Ti11     Ti12    10.0   1_465     S
Ti12     V27    10.0   .     S
Ti12     Ti10    10.0   1_655     S
Ti12     Ti11    10.0   1_645     S
Ti13     V48    10.0   .     S
Ti13     Ti14    10.0   .     S
Ti13     Ti15    10.0   1_455     S
Ti14     V44    10.0   .     S
Ti14     Ti16    10.0   1_545     S
Ti15     V43    10.0   .     S
Ti15     Ti13    10.0   1_655     S
Ti15     Ti16    10.0   1_645     S
Ti16     V47    10.0   .     S
Ti16     Ti14    10.0   1_565     S
Ti16     Ti15    10.0   1_465     S
Er17     V19    10.0   .     S
Er17     Er18    10.0   1_545     S
Er17     Er26    10.0   .     S
Er17     Er25    10.0   .     S
Er18     V20    10.0   .     S
Er18     Er17    10.0   1_565     S
Er18     Er26    10.0   1_565     S
Er18     Er25    10.0   1_565     S
V19     V24    10.0   .     S
V19     V23    10.0   .     S
V19     Ti64    10.0   .     S
V20     V24    10.0   .     S
V20     V23    10.0   .     S
V20     Ti62    10.0   .     S
Er21     V23    10.0   .     S
Er21     Er22    10.0   1_455     S
Er21     Er30    10.0   .     S
Er21     Er29    10.0   .     S
Er22     V24    10.0   .     S
Er22     Er21    10.0   1_655     S
Er22     Er30    10.0   1_655     S
Er22     Er29    10.0   1_655     S
V23     Ti61    10.0   .     S
V24     Ti63    10.0   .     S
Er25     V28    10.0   .     S
Er25     Er26    10.0   .     S
Er25     Er18    10.0   1_545     S
Er26     V27    10.0   .     S
Er26     Er18    10.0   1_545     S
V27     V32    10.0   1_655     S
V27     V31    10.0   1_645     S
V28     V31    10.0   1_545     S
V28     V32    10.0   .     S
Er29     V32    10.0   .     S
Er29     Er30    10.0   .     S
Er29     Er22    10.0   1_455     S
Er30     V31    10.0   .     S
Er30     Er22    10.0   1_455     S
V31     V28    10.0   1_565     S
V31     V27    10.0   1_465     S
V32     V27    10.0   1_455     S
Er33     V35    10.0   .     S
Er33     Er34    10.0   1_455     S
Er33     Er46    10.0   .     S
Er33     Er45    10.0   .     S
Er34     V36    10.0   .     S
Er34     Er33    10.0   1_655     S
Er34     Er46    10.0   1_655     S
Er34     Er45    10.0   1_655     S
V35     V40    10.0   .     S
V35     V39    10.0   .     S
V35     Ti52    10.0   .     S
V36     V40    10.0   .     S
V36     V39    10.0   .     S
V36     Ti50    10.0   .     S
Er37     V39    10.0   .     S
Er37     Er38    10.0   1_545     S
Er37     Er42    10.0   .     S
Er37     Er41    10.0   .     S
Er38     V40    10.0   .     S
Er38     Er37    10.0   1_565     S
Er38     Er42    10.0   1_565     S
Er38     Er41    10.0   1_565     S
V39     Ti49    10.0   .     S
V40     Ti51    10.0   .     S
Er41     V44    10.0   .     S
Er41     Er42    10.0   .     S
Er41     Er38    10.0   1_545     S
Er42     V43    10.0   .     S
Er42     Er38    10.0   1_545     S
V43     V48    10.0   1_655     S
V43     V47    10.0   1_645     S
V44     V47    10.0   1_545     S
V44     V48    10.0   .     S
Er45     V48    10.0   .     S
Er45     Er46    10.0   .     S
Er45     Er34    10.0   1_455     S
Er46     V47    10.0   .     S
Er46     Er34    10.0   1_455     S
V47     V44    10.0   1_565     S
V47     V43    10.0   1_465     S
V48     V43    10.0   1_455     S
Ti49     Ti52    10.0   .     S
Ti49     Ti50    10.0   .     S
Ti49     Ce53    10.001   .     S
Ti50     Ti51    10.0   .     S
Ti50     Ce59    10.001   .     S
Ti51     Ti52    10.0   .     S
Ti51     Ce55    10.001   .     S
Ti52     Ce57    10.001   .     S
Ce53     Ce54    9.999   1_556     S
Ce53     Ce55    10.0   1_545     S
Ce54     Ce53    9.999   1_554     S
Ce54     Ce56    10.0   1_545     S
Ce54     Ti64    10.001   .     S
Ce55     Ce56    9.999   1_556     S
Ce55     Ce53    10.0   1_565     S
Ce56     Ce55    9.999   1_554     S
Ce56     Ce54    10.0   1_565     S
Ce56     Ti62    10.001   .     S
Ce57     Ce58    9.999   1_556     S
Ce57     Ce59    10.0   1_455     S
Ce58     Ce57    9.999   1_554     S
Ce58     Ce60    10.0   1_455     S
Ce58     Ti61    10.001   .     S
Ce59     Ce60    9.999   1_556     S
Ce59     Ce57    10.0   1_655     S
Ce60     Ce59    9.999   1_554     S
Ce60     Ce58    10.0   1_655     S
Ce60     Ti63    10.001   .     S
Ti61     Ti62    10.0   .     S
Ti61     Ti64    10.0   .     S
Ti62     Ti63    10.0   .     S
Ti63     Ti64    10.0   .     S
