data_tst
_audit_creation_date              2020-02-04
_audit_creation_method            'Pymatgen'
_symmetry_space_group_name_H-M    'P1'
_symmetry_Int_Tables_number       1
loop_
_symmetry_equiv_pos_as_xyz
  x,y,z
_cell_length_a                    33.3912
_cell_length_b                    55.1037
_cell_length_c                    42.123
_cell_angle_alpha                 90.0
_cell_angle_beta                 90.0
_cell_angle_gamma                 90.0
loop_
_atom_site_label
_atom_site_type_symbol
_atom_site_fract_x
_atom_site_fract_y
_atom_site_fract_z
Er1     Er     0.0   0.2501   0.6189
Er2     Er     0.0   0.7499   0.6189
Er3     Er     0.0   0.7499   0.3811
Ti4     Ti     0.75   0.75   0.75
Ti5     Ti     0.75   0.75   0.25
Ti6     Ti     0.25   0.75   0.75
Ti7     Ti     0.25   0.75   0.25
V8     V     0.6594   0.9093   0.662
V9     V     0.6594   0.0907   0.662
V10     V     0.3406   0.9093   0.662
V11     V     0.3406   0.0907   0.662
V12     V     0.6594   0.9093   0.338
V13     V     0.6594   0.0907   0.338
V14     V     0.3406   0.9093   0.338
V15     V     0.3406   0.0907   0.338
Ce16     Ce     0.5   0.0   0.5
Ti17     Ti     0.25   0.25   0.75
Ti18     Ti     0.75   0.25   0.25
Ti19     Ti     0.75   0.25   0.75
V20     V     0.1594   0.5907   0.162
V21     V     0.1594   0.4093   0.162
V22     V     0.1594   0.5907   0.838
V23     V     0.1594   0.4093   0.838
V24     V     0.8406   0.5907   0.162
V25     V     0.8406   0.4093   0.162
V26     V     0.8406   0.5907   0.838
V27     V     0.8406   0.4093   0.838
Ce28     Ce     0.0   0.5   0.0
Ti29     Ti     0.25   0.25   0.25
Er30     Er     0.0   0.2501   0.3811
Er31     Er     0.5   0.2499   0.1189
Er32     Er     0.5   0.7501   0.1189
Er33     Er     0.5   0.7501   0.8811
Er34     Er     0.5   0.2499   0.8811
loop_
_geom_bond_atom_site_label_1
_geom_bond_atom_site_label_2
_geom_bond_distance
_geom_bond_site_symmetry_2
_ccdc_geom_bond_type
Er1     Ti19    10.01   1_455     S
Er1     Ti17    10.01   .     S
Er1     Er30    10.013   .     S
Er2     Ti6    10.01   .     S
Er2     Ti4    10.01   1_455     S
Er2     Er3    10.013   .     S
Er3     Ti5    10.01   1_455     S
Er3     Ti7    10.01   .     S
Ti4     Er2    10.01   1_655     S
Ti4     V26    10.0   .     S
Ti4     V8    10.0   .     S
Ti4     Er33    10.01   .     S
Ti5     Er3    10.01   1_655     S
Ti5     V24    10.0   .     S
Ti5     V12    10.0   .     S
Ti5     Er32    10.01   .     S
Ti6     V22    10.0   .     S
Ti6     V10    10.0   .     S
Ti6     Er33    10.01   .     S
Ti7     V20    10.0   .     S
Ti7     V14    10.0   .     S
Ti7     Er32    10.01   .     S
V8     Ce16    9.991   1_565     S
V8     V9    9.991   1_565     S
V9     V8    9.991   1_545     S
V9     Ce16    9.991   .     S
V9     Ti19    10.0   .     S
V10     V11    9.991   1_565     S
V10     Ce16    9.991   1_565     S
V11     V10    9.991   1_545     S
V11     Ce16    9.991   .     S
V11     Ti17    10.0   .     S
V12     Ce16    9.991   1_565     S
V12     V13    9.991   1_565     S
V13     V12    9.991   1_545     S
V13     Ce16    9.991   .     S
V13     Ti18    10.0   .     S
V14     Ce16    9.991   1_565     S
V14     V15    9.991   1_565     S
V15     V14    9.991   1_545     S
V15     Ce16    9.991   .     S
V15     Ti29    10.0   .     S
Ce16     V8    9.991   1_545     S
Ce16     V10    9.991   1_545     S
Ce16     V12    9.991   1_545     S
Ce16     V14    9.991   1_545     S
Ti17     V23    10.0   .     S
Ti17     Er34    10.01   .     S
Ti18     V25    10.0   .     S
Ti18     Er30    10.01   1_655     S
Ti18     Er31    10.01   .     S
Ti19     Er1    10.01   1_655     S
Ti19     V27    10.0   .     S
Ti19     Er34    10.01   .     S
V20     V21    9.991   .     S
V20     Ce28    9.991   .     S
V21     Ce28    9.991   .     S
V21     Ti29    10.0   .     S
V22     Ce28    9.991   1_556     S
V22     V23    9.991   .     S
V23     Ce28    9.991   1_556     S
V24     Ce28    9.991   1_655     S
V24     V25    9.991   .     S
V25     Ce28    9.991   1_655     S
V26     V27    9.991   .     S
V26     Ce28    9.991   1_656     S
V27     Ce28    9.991   1_656     S
Ce28     V22    9.991   1_554     S
Ce28     V23    9.991   1_554     S
Ce28     V24    9.991   1_455     S
Ce28     V25    9.991   1_455     S
Ce28     V27    9.991   1_454     S
Ce28     V26    9.991   1_454     S
Ti29     Er30    10.01   .     S
Ti29     Er31    10.01   .     S
Er30     Ti18    10.01   1_455     S
Er31     Er34    10.013   1_554     S
Er32     Er33    10.013   1_554     S
Er33     Er32    10.013   1_556     S
Er34     Er31    10.013   1_556     S
