data_tsta
_audit_creation_date              2020-02-04
_audit_creation_method            'Pymatgen'
_symmetry_space_group_name_H-M    'P1'
_symmetry_Int_Tables_number       1
loop_
_symmetry_equiv_pos_as_xyz
  x,y,z
_cell_length_a                    116.5644
_cell_length_b                    96.1094
_cell_length_c                    79.449
_cell_angle_alpha                 90.0
_cell_angle_beta                 90.0
_cell_angle_gamma                 90.0
loop_
_atom_site_label
_atom_site_type_symbol
_atom_site_fract_x
_atom_site_fract_y
_atom_site_fract_z
S1     S     0.2504   0.3578   0.4371
S2     S     0.2504   0.3578   0.5629
Li3     Li     0.2504   0.4479   0.5
S4     S     0.2504   0.6422   0.4371
S5     S     0.2504   0.6422   0.5629
Li6     Li     0.2504   0.5521   0.5
S7     S     0.7496   0.6422   0.4371
S8     S     0.7496   0.6422   0.5629
Li9     Li     0.7496   0.5521   0.5
S10     S     0.7496   0.3578   0.4371
S11     S     0.7496   0.3578   0.5629
Li12     Li     0.7496   0.4479   0.5
S13     S     0.7504   0.8578   0.0629
S14     S     0.7504   0.8578   0.9371
Li15     Li     0.7504   0.9479   0.0
S16     S     0.7504   0.1422   0.0629
S17     S     0.7504   0.1422   0.9371
Li18     Li     0.7504   0.0521   0.0
V19     V     0.7488   0.2975   0.3344
Er20     Er     0.7942   0.2744   0.2314
V21     V     0.7512   0.2025   0.1656
Er22     Er     0.7058   0.2256   0.2686
V23     V     0.7488   0.2975   0.6656
Er24     Er     0.7942   0.2744   0.7686
V25     V     0.7512   0.2025   0.8344
Er26     Er     0.7058   0.2256   0.7314
He27     He     0.9571   0.3245   0.2075
H28     H     0.9089   0.3884   0.1379
He29     He     0.9571   0.3245   0.7925
H30     H     0.9089   0.3884   0.8621
He31     He     0.0429   0.6755   0.2075
H32     H     0.0911   0.6116   0.1379
He33     He     0.0429   0.3245   0.2075
H34     H     0.0911   0.3884   0.1379
He35     He     0.9571   0.6755   0.7925
H36     H     0.9089   0.6116   0.8621
He37     He     0.9571   0.6755   0.2075
H38     H     0.9089   0.6116   0.1379
He39     He     0.0429   0.6755   0.7925
H40     H     0.0911   0.6116   0.8621
Ce41     Ce     0.9571   0.448   0.9371
Ce42     Ce     0.9571   0.552   0.9371
Ce43     Ce     0.9571   0.448   0.0629
Ce44     Ce     0.9571   0.552   0.0629
Ce45     Ce     0.0429   0.448   0.9371
Ce46     Ce     0.0429   0.552   0.9371
Ce47     Ce     0.0429   0.448   0.0629
Ce48     Ce     0.0429   0.552   0.0629
He49     He     0.0429   0.3245   0.7925
H50     H     0.0911   0.3884   0.8621
Ti51     Ti     0.8717   0.3144   0.7925
Ti52     Ti     0.1283   0.3144   0.7925
Ti53     Ti     0.8717   0.6856   0.7925
Ti54     Ti     0.8717   0.3144   0.2075
Ti55     Ti     0.1283   0.3144   0.2075
Ti56     Ti     0.1283   0.6856   0.7925
Ti57     Ti     0.8717   0.6856   0.2075
Ti58     Ti     0.1283   0.6856   0.2075
V59     V     0.7512   0.7975   0.1656
Er60     Er     0.7058   0.7744   0.2686
V61     V     0.7488   0.7025   0.3344
Er62     Er     0.7942   0.7256   0.2314
V63     V     0.7512   0.7975   0.8344
Er64     Er     0.7058   0.7744   0.7314
V65     V     0.7488   0.7025   0.6656
Er66     Er     0.7942   0.7256   0.7686
V67     V     0.2512   0.2975   0.3344
Er68     Er     0.2058   0.2744   0.2314
V69     V     0.2488   0.2025   0.1656
Er70     Er     0.2942   0.2256   0.2686
V71     V     0.2488   0.2025   0.8344
Er72     Er     0.2942   0.2256   0.7314
V73     V     0.2512   0.2975   0.6656
Er74     Er     0.2058   0.2744   0.7686
V75     V     0.2488   0.7975   0.1656
Er76     Er     0.2942   0.7744   0.2686
V77     V     0.2512   0.7025   0.3344
Er78     Er     0.2058   0.7256   0.2314
He79     He     0.4571   0.8245   0.7075
H80     H     0.4089   0.8884   0.6379
He81     He     0.5429   0.8245   0.2925
H82     H     0.5911   0.8884   0.3621
He83     He     0.4571   0.8245   0.2925
H84     H     0.4089   0.8884   0.3621
He85     He     0.5429   0.8245   0.7075
H86     H     0.5911   0.8884   0.6379
He87     He     0.5429   0.1755   0.7075
H88     H     0.5911   0.1116   0.6379
He89     He     0.5429   0.1755   0.2925
H90     H     0.5911   0.1116   0.3621
He91     He     0.4571   0.1755   0.7075
H92     H     0.4089   0.1116   0.6379
Ce93     Ce     0.5429   0.052   0.4371
Ce94     Ce     0.5429   0.948   0.4371
Ce95     Ce     0.5429   0.052   0.5629
Ce96     Ce     0.5429   0.948   0.5629
Ce97     Ce     0.4571   0.052   0.5629
Ce98     Ce     0.4571   0.948   0.5629
Ce99     Ce     0.4571   0.052   0.4371
Ce100     Ce     0.4571   0.948   0.4371
He101     He     0.4571   0.1755   0.2925
H102     H     0.4089   0.1116   0.3621
Ti103     Ti     0.6283   0.1856   0.2925
Ti104     Ti     0.6283   0.1856   0.7075
Ti105     Ti     0.6283   0.8144   0.7075
Ti106     Ti     0.6283   0.8144   0.2925
Ti107     Ti     0.3717   0.1856   0.2925
Ti108     Ti     0.3717   0.1856   0.7075
Ti109     Ti     0.3717   0.8144   0.2925
Ti110     Ti     0.3717   0.8144   0.7075
V111     V     0.2488   0.7975   0.8344
Er112     Er     0.2942   0.7744   0.7314
V113     V     0.2512   0.7025   0.6656
Er114     Er     0.2058   0.7256   0.7686
S115     S     0.2496   0.8578   0.0629
S116     S     0.2496   0.8578   0.9371
Li117     Li     0.2496   0.9479   0.0
S118     S     0.2496   0.1422   0.0629
S119     S     0.2496   0.1422   0.9371
Li120     Li     0.2496   0.0521   0.0
loop_
_geom_bond_atom_site_label_1
_geom_bond_atom_site_label_2
_geom_bond_distance
_geom_bond_site_symmetry_2
_ccdc_geom_bond_type
S1     S2    9.999   .     S
S1     Li3    10.003   .     S
S1     V67    10.006   .     S
S2     Li3    10.003   .     S
S2     V73    10.006   .     S
Li3     Li6    10.007   .     S
S4     S5    9.999   .     S
S4     Li6    10.003   .     S
S4     V77    10.006   .     S
S5     Li6    10.003   .     S
S5     V113    10.006   .     S
S7     S8    9.999   .     S
S7     Li9    10.003   .     S
S7     V61    10.006   .     S
S8     Li9    10.003   .     S
S8     V65    10.006   .     S
Li9     Li12    10.007   .     S
S10     S11    9.999   .     S
S10     Li12    10.003   .     S
S10     V19    10.006   .     S
S11     Li12    10.003   .     S
S11     V23    10.006   .     S
S13     S14    9.999   1_554     S
S13     Li15    10.003   .     S
S13     V59    10.006   .     S
S14     S13    9.999   1_556     S
S14     Li15    10.003   1_556     S
S14     V63    10.006   .     S
Li15     S14    10.003   1_554     S
Li15     Li18    10.007   1_565     S
S16     S17    9.999   1_554     S
S16     Li18    10.003   .     S
S16     V21    10.006   .     S
S17     S16    9.999   1_556     S
S17     Li18    10.003   1_556     S
S17     V25    10.006   .     S
Li18     S17    10.003   1_554     S
Li18     Li15    10.007   1_545     S
V19     Er20    10.002   .     S
V19     Er22    10.002   .     S
Er20     V21    10.002   .     S
Er20     Ti54    10.002   .     S
V21     Er22    10.002   .     S
Er22     Ti103    10.002   .     S
V23     Er24    10.002   .     S
V23     Er26    10.002   .     S
Er24     V25    10.002   .     S
Er24     Ti51    10.002   .     S
V25     Er26    10.002   .     S
Er26     Ti104    10.002   .     S
He27     Ti54    10.001   .     S
He27     H28    9.995   .     S
He27     He33    9.999   1_655     S
H28     Ti54    9.998   .     S
H28     Ce43    9.997   .     S
He29     Ti51    10.001   .     S
He29     H30    9.995   .     S
He29     He49    9.999   1_655     S
H30     Ti51    9.998   .     S
H30     Ce41    9.997   .     S
He31     Ti58    10.001   .     S
He31     H32    9.995   .     S
He31     He37    9.999   1_455     S
H32     Ti58    9.998   .     S
H32     Ce48    9.997   .     S
He33     Ti55    10.001   .     S
He33     H34    9.995   .     S
He33     He27    9.999   1_455     S
H34     Ti55    9.998   .     S
H34     Ce47    9.997   .     S
He35     Ti53    10.001   .     S
He35     H36    9.995   .     S
He35     He39    9.999   1_655     S
H36     Ti53    9.998   .     S
H36     Ce42    9.997   .     S
He37     Ti57    10.001   .     S
He37     H38    9.995   .     S
He37     He31    9.999   1_655     S
H38     Ti57    9.998   .     S
H38     Ce44    9.997   .     S
He39     Ti56    10.001   .     S
He39     H40    9.995   .     S
He39     He35    9.999   1_455     S
H40     Ti56    9.998   .     S
H40     Ce46    9.997   .     S
Ce41     Ce42    9.995   .     S
Ce41     Ce43    9.996   1_556     S
Ce41     Ce45    9.997   1_655     S
Ce42     Ce44    9.996   1_556     S
Ce42     Ce46    9.997   1_655     S
Ce43     Ce44    9.995   .     S
Ce43     Ce41    9.996   1_554     S
Ce43     Ce47    9.997   1_655     S
Ce44     Ce42    9.996   1_554     S
Ce44     Ce48    9.997   1_655     S
Ce45     Ce46    9.995   .     S
Ce45     Ce47    9.996   1_556     S
Ce45     Ce41    9.997   1_455     S
Ce45     H50    9.997   .     S
Ce46     Ce48    9.996   1_556     S
Ce46     Ce42    9.997   1_455     S
Ce47     Ce48    9.995   .     S
Ce47     Ce45    9.996   1_554     S
Ce47     Ce43    9.997   1_455     S
Ce48     Ce46    9.996   1_554     S
Ce48     Ce44    9.997   1_455     S
He49     Ti52    10.001   .     S
He49     H50    9.995   .     S
He49     He29    9.999   1_455     S
H50     Ti52    9.998   .     S
Ti52     Er74    10.002   .     S
Ti53     Er66    10.002   .     S
Ti55     Er68    10.002   .     S
Ti56     Er114    10.002   .     S
Ti57     Er62    10.002   .     S
Ti58     Er78    10.002   .     S
V59     Er60    10.002   .     S
V59     Er62    10.002   .     S
Er60     V61    10.002   .     S
Er60     Ti106    10.002   .     S
V61     Er62    10.002   .     S
V63     Er64    10.002   .     S
V63     Er66    10.002   .     S
Er64     V65    10.002   .     S
Er64     Ti105    10.002   .     S
V65     Er66    10.002   .     S
V67     Er68    10.002   .     S
V67     Er70    10.002   .     S
Er68     V69    10.002   .     S
V69     Er70    10.002   .     S
V69     S118    10.006   .     S
Er70     Ti107    10.002   .     S
V71     Er72    10.002   .     S
V71     Er74    10.002   .     S
V71     S119    10.006   .     S
Er72     V73    10.002   .     S
Er72     Ti108    10.002   .     S
V73     Er74    10.002   .     S
V75     Er76    10.002   .     S
V75     Er78    10.002   .     S
V75     S115    10.006   .     S
Er76     V77    10.002   .     S
Er76     Ti109    10.002   .     S
V77     Er78    10.002   .     S
He79     Ti110    10.001   .     S
He79     H80    9.995   .     S
He79     He85    9.999   .     S
H80     Ti110    9.998   .     S
H80     Ce98    9.997   .     S
He81     Ti106    10.001   .     S
He81     H82    9.995   .     S
He81     He83    9.999   .     S
H82     Ti106    9.998   .     S
H82     Ce94    9.997   .     S
He83     Ti109    10.001   .     S
He83     H84    9.995   .     S
H84     Ti109    9.998   .     S
H84     Ce100    9.997   .     S
He85     Ti105    10.001   .     S
He85     H86    9.995   .     S
H86     Ti105    9.998   .     S
H86     Ce96    9.997   .     S
He87     Ti104    10.001   .     S
He87     H88    9.995   .     S
He87     He91    9.999   .     S
H88     Ti104    9.998   .     S
H88     Ce95    9.997   .     S
He89     Ti103    10.001   .     S
He89     H90    9.995   .     S
He89     He101    9.999   .     S
H90     Ti103    9.998   .     S
H90     Ce93    9.997   .     S
He91     Ti108    10.001   .     S
He91     H92    9.995   .     S
H92     Ti108    9.998   .     S
H92     Ce97    9.997   .     S
Ce93     Ce94    9.995   1_545     S
Ce93     Ce95    9.996   .     S
Ce93     Ce99    9.997   .     S
Ce94     Ce93    9.995   1_565     S
Ce94     Ce96    9.996   .     S
Ce94     Ce100    9.997   .     S
Ce95     Ce96    9.995   1_545     S
Ce95     Ce97    9.997   .     S
Ce96     Ce95    9.995   1_565     S
Ce96     Ce98    9.997   .     S
Ce97     Ce98    9.995   1_545     S
Ce97     Ce99    9.996   .     S
Ce98     Ce97    9.995   1_565     S
Ce98     Ce100    9.996   .     S
Ce99     Ce100    9.995   1_545     S
Ce99     H102    9.997   .     S
Ce100     Ce99    9.995   1_565     S
He101     Ti107    10.001   .     S
He101     H102    9.995   .     S
H102     Ti107    9.998   .     S
Ti110     Er112    10.002   .     S
V111     Er112    10.002   .     S
V111     Er114    10.002   .     S
V111     S116    10.006   .     S
Er112     V113    10.002   .     S
V113     Er114    10.002   .     S
S115     S116    9.999   1_554     S
S115     Li117    10.003   .     S
S116     S115    9.999   1_556     S
S116     Li117    10.003   1_556     S
Li117     S116    10.003   1_554     S
Li117     Li120    10.007   1_565     S
S118     S119    9.999   1_554     S
S118     Li120    10.003   .     S
S119     S118    9.999   1_556     S
S119     Li120    10.003   1_556     S
Li120     S119    10.003   1_554     S
Li120     Li117    10.007   1_545     S
