data_ttd
_audit_creation_date              2020-02-04
_audit_creation_method            'Pymatgen'
_symmetry_space_group_name_H-M    'P1'
_symmetry_Int_Tables_number       1
loop_
_symmetry_equiv_pos_as_xyz
  x,y,z
_cell_length_a                    60.8238
_cell_length_b                    60.8238
_cell_length_c                    39.6865
_cell_angle_alpha                 90.0
_cell_angle_beta                 90.0
_cell_angle_gamma                 90.0
loop_
_atom_site_label
_atom_site_type_symbol
_atom_site_fract_x
_atom_site_fract_y
_atom_site_fract_z
V1     V     0.2882   0.5822   0.5
Er2     Er     0.2894   0.7106   0.3426
Er3     Er     0.2106   0.7894   0.1574
V4     V     0.4178   0.7118   0.5
V5     V     0.0822   0.7882   0.0
Er6     Er     0.2894   0.7106   0.6574
Er7     Er     0.2106   0.7894   0.8426
V8     V     0.2118   0.9178   0.0
V9     V     0.7118   0.5822   0.5
V10     V     0.5822   0.7118   0.5
Er11     Er     0.7106   0.7106   0.3426
Er12     Er     0.7894   0.7894   0.1574
V13     V     0.9178   0.7882   0.0
Er14     Er     0.7106   0.7106   0.6574
Er15     Er     0.7894   0.7894   0.8426
V16     V     0.7882   0.9178   0.0
V17     V     0.2882   0.4178   0.5
Er18     Er     0.2106   0.2106   0.1574
Er19     Er     0.2894   0.2894   0.3426
V20     V     0.4178   0.2882   0.5
V21     V     0.2118   0.0822   0.0
Er22     Er     0.2894   0.2894   0.6574
Er23     Er     0.2106   0.2106   0.8426
V24     V     0.0822   0.2118   0.0
V25     V     0.5822   0.2882   0.5
Er26     Er     0.7106   0.2894   0.3426
Er27     Er     0.7894   0.2106   0.1574
V28     V     0.7118   0.4178   0.5
V29     V     0.7882   0.0822   0.0
Er30     Er     0.7106   0.2894   0.6574
Er31     Er     0.7894   0.2106   0.8426
V32     V     0.9178   0.2118   0.0
loop_
_geom_bond_atom_site_label_1
_geom_bond_atom_site_label_2
_geom_bond_distance
_geom_bond_site_symmetry_2
_ccdc_geom_bond_type
V1     Er6    10.0   .     S
V1     Er2    10.0   .     S
V1     V17    10.001   .     S
Er2     Er3    9.999   .     S
Er2     V4    10.0   .     S
Er3     V5    10.0   .     S
Er3     V8    10.0   .     S
V4     Er6    10.0   .     S
V4     V10    10.001   .     S
V5     Er7    10.0   1_554     S
V5     V13    10.001   1_455     S
Er6     Er7    9.999   .     S
Er7     V5    10.0   1_556     S
Er7     V8    10.0   1_556     S
V8     Er7    10.0   1_554     S
V8     V21    10.001   1_565     S
V9     Er11    10.0   .     S
V9     Er14    10.0   .     S
V9     V28    10.001   .     S
V10     Er14    10.0   .     S
V10     Er11    10.0   .     S
Er11     Er12    9.999   .     S
Er12     V13    10.0   .     S
Er12     V16    10.0   .     S
V13     Er15    10.0   1_554     S
V13     V5    10.001   1_655     S
Er14     Er15    9.999   .     S
Er15     V13    10.0   1_556     S
Er15     V16    10.0   1_556     S
V16     Er15    10.0   1_554     S
V16     V29    10.001   1_565     S
V17     Er19    10.0   .     S
V17     Er22    10.0   .     S
Er18     Er19    9.999   .     S
Er18     V21    10.0   .     S
Er18     V24    10.0   .     S
Er19     V20    10.0   .     S
V20     Er22    10.0   .     S
V20     V25    10.001   .     S
V21     V8    10.001   1_545     S
V21     Er23    10.0   1_554     S
Er22     Er23    9.999   .     S
Er23     V21    10.0   1_556     S
Er23     V24    10.0   1_556     S
V24     Er23    10.0   1_554     S
V24     V32    10.001   1_455     S
V25     Er26    10.0   .     S
V25     Er30    10.0   .     S
Er26     Er27    9.999   .     S
Er26     V28    10.0   .     S
Er27     V29    10.0   .     S
Er27     V32    10.0   .     S
V28     Er30    10.0   .     S
V29     V16    10.001   1_545     S
V29     Er31    10.0   1_554     S
Er30     Er31    9.999   .     S
Er31     V29    10.0   1_556     S
Er31     V32    10.0   1_556     S
V32     Er31    10.0   1_554     S
V32     V24    10.001   1_655     S
