data_ttr
_audit_creation_date              2020-02-04
_audit_creation_method            'Pymatgen'
_symmetry_space_group_name_H-M    'P1'
_symmetry_Int_Tables_number       1
loop_
_symmetry_equiv_pos_as_xyz
  x,y,z
_cell_length_a                    26.0528
_cell_length_b                    26.0528
_cell_length_c                    26.0528
_cell_angle_alpha                 90.0
_cell_angle_beta                 90.0
_cell_angle_gamma                 90.0
loop_
_atom_site_label
_atom_site_type_symbol
_atom_site_fract_x
_atom_site_fract_y
_atom_site_fract_z
Er1     Er     0.6266   0.6266   0.6266
Er2     Er     0.8734   0.8734   0.6266
Er3     Er     0.6266   0.8734   0.8734
Er4     Er     0.8734   0.6266   0.8734
Er5     Er     0.3734   0.3734   0.6266
Er6     Er     0.1266   0.1266   0.6266
Er7     Er     0.1266   0.3734   0.8734
Er8     Er     0.3734   0.1266   0.8734
Er9     Er     0.6266   0.3734   0.3734
Er10     Er     0.6266   0.1266   0.1266
Er11     Er     0.8734   0.1266   0.3734
Er12     Er     0.8734   0.3734   0.1266
Er13     Er     0.1266   0.6266   0.1266
Er14     Er     0.3734   0.6266   0.3734
Er15     Er     0.1266   0.8734   0.3734
Er16     Er     0.3734   0.8734   0.1266
V17     V     0.0   0.0   0.0
V18     V     0.0   0.5   0.5
V19     V     0.5   0.0   0.5
V20     V     0.5   0.5   0.0
loop_
_geom_bond_atom_site_label_1
_geom_bond_atom_site_label_2
_geom_bond_distance
_geom_bond_site_symmetry_2
_ccdc_geom_bond_type
Er1     Er14    9.325   .     S
Er1     Er5    9.325   .     S
Er1     Er9    9.325   .     S
Er1     Er2    9.097   .     S
Er1     Er4    9.097   .     S
Er1     Er3    9.097   .     S
Er1     V20    10.789   1_556     S
Er1     V19    10.789   1_565     S
Er1     V18    10.789   1_655     S
Er2     Er6    9.325   1_665     S
Er2     Er15    9.325   1_655     S
Er2     Er11    9.325   1_565     S
Er2     Er3    9.097   .     S
Er2     Er4    9.097   .     S
Er2     V19    10.789   1_565     S
Er2     V18    10.789   1_655     S
Er2     V17    10.789   1_666     S
Er3     Er10    9.325   1_566     S
Er3     Er16    9.325   1_556     S
Er3     Er8    9.325   1_565     S
Er3     Er4    9.097   .     S
Er3     V20    10.789   1_556     S
Er3     V19    10.789   1_565     S
Er3     V17    10.789   1_666     S
Er4     Er13    9.325   1_656     S
Er4     Er12    9.325   1_556     S
Er4     Er7    9.325   1_655     S
Er4     V20    10.789   1_556     S
Er4     V18    10.789   1_655     S
Er4     V17    10.789   1_666     S
Er5     Er9    9.325   .     S
Er5     Er14    9.325   .     S
Er5     Er7    9.097   .     S
Er5     Er6    9.097   .     S
Er5     Er8    9.097   .     S
Er5     V20    10.789   1_556     S
Er5     V19    10.789   .     S
Er5     V18    10.789   .     S
Er6     Er2    9.325   1_445     S
Er6     Er15    9.325   1_545     S
Er6     Er11    9.325   1_455     S
Er6     Er8    9.097   .     S
Er6     Er7    9.097   .     S
Er6     V19    10.789   .     S
Er6     V18    10.789   .     S
Er6     V17    10.789   1_556     S
Er7     Er4    9.325   1_455     S
Er7     Er13    9.325   1_556     S
Er7     Er12    9.325   1_456     S
Er7     Er8    9.097   .     S
Er7     V20    10.789   1_556     S
Er7     V18    10.789   .     S
Er7     V17    10.789   1_556     S
Er8     Er3    9.325   1_545     S
Er8     Er10    9.325   1_556     S
Er8     Er16    9.325   1_546     S
Er8     V20    10.789   1_556     S
Er8     V19    10.789   .     S
Er8     V17    10.789   1_556     S
Er9     Er14    9.325   .     S
Er9     Er11    9.097   .     S
Er9     Er10    9.097   .     S
Er9     Er12    9.097   .     S
Er9     V20    10.789   .     S
Er9     V19    10.789   .     S
Er9     V18    10.789   1_655     S
Er10     Er3    9.325   1_544     S
Er10     Er8    9.325   1_554     S
Er10     Er16    9.325   1_545     S
Er10     Er12    9.097   .     S
Er10     Er11    9.097   .     S
Er10     V20    10.789   .     S
Er10     V19    10.789   .     S
Er10     V17    10.789   1_655     S
Er11     Er2    9.325   1_545     S
Er11     Er6    9.325   1_655     S
Er11     Er15    9.325   1_645     S
Er11     Er12    9.097   .     S
Er11     V19    10.789   .     S
Er11     V18    10.789   1_655     S
Er11     V17    10.789   1_655     S
Er12     Er4    9.325   1_554     S
Er12     Er13    9.325   1_655     S
Er12     Er7    9.325   1_654     S
Er12     V20    10.789   .     S
Er12     V18    10.789   1_655     S
Er12     V17    10.789   1_655     S
Er13     Er4    9.325   1_454     S
Er13     Er12    9.325   1_455     S
Er13     Er7    9.325   1_554     S
Er13     Er16    9.097   .     S
Er13     Er15    9.097   .     S
Er13     Er14    9.097   .     S
Er13     V20    10.789   .     S
Er13     V18    10.789   .     S
Er13     V17    10.789   1_565     S
Er14     Er15    9.097   .     S
Er14     Er16    9.097   .     S
Er14     V20    10.789   .     S
Er14     V19    10.789   1_565     S
Er14     V18    10.789   .     S
Er15     Er2    9.325   1_455     S
Er15     Er6    9.325   1_565     S
Er15     Er11    9.325   1_465     S
Er15     Er16    9.097   .     S
Er15     V19    10.789   1_565     S
Er15     V18    10.789   .     S
Er15     V17    10.789   1_565     S
Er16     Er3    9.325   1_554     S
Er16     Er10    9.325   1_565     S
Er16     Er8    9.325   1_564     S
Er16     V20    10.789   .     S
Er16     V19    10.789   1_565     S
Er16     V17    10.789   1_565     S
V17     Er2    10.789   1_444     S
V17     Er4    10.789   1_444     S
V17     Er3    10.789   1_444     S
V17     Er7    10.789   1_554     S
V17     Er8    10.789   1_554     S
V17     Er6    10.789   1_554     S
V17     Er15    10.789   1_545     S
V17     Er16    10.789   1_545     S
V17     Er13    10.789   1_545     S
V17     Er11    10.789   1_455     S
V17     Er12    10.789   1_455     S
V17     Er10    10.789   1_455     S
V18     Er4    10.789   1_455     S
V18     Er2    10.789   1_455     S
V18     Er1    10.789   1_455     S
V18     Er12    10.789   1_455     S
V18     Er11    10.789   1_455     S
V18     Er9    10.789   1_455     S
V19     Er3    10.789   1_545     S
V19     Er2    10.789   1_545     S
V19     Er1    10.789   1_545     S
V19     Er16    10.789   1_545     S
V19     Er15    10.789   1_545     S
V19     Er14    10.789   1_545     S
V20     Er8    10.789   1_554     S
V20     Er7    10.789   1_554     S
V20     Er5    10.789   1_554     S
V20     Er3    10.789   1_554     S
V20     Er4    10.789   1_554     S
V20     Er1    10.789   1_554     S
