data_ttu
_audit_creation_date              2020-02-04
_audit_creation_method            'Pymatgen'
_symmetry_space_group_name_H-M    'P1'
_symmetry_Int_Tables_number       1
loop_
_symmetry_equiv_pos_as_xyz
  x,y,z
_cell_length_a                    29.8745
_cell_length_b                    29.8745
_cell_length_c                    107.7382
_cell_angle_alpha                 90.0
_cell_angle_beta                 90.0
_cell_angle_gamma                 120.0
loop_
_atom_site_label
_atom_site_type_symbol
_atom_site_fract_x
_atom_site_fract_y
_atom_site_fract_z
V1     V     0.3333   0.6667   0.505
Er2     Er     0.6557   0.7565   0.3756
Er3     Er     0.5659   0.5768   0.4578
Er4     Er     0.1008   0.3443   0.3756
Er5     Er     0.0109   0.4341   0.4578
Er6     Er     0.4232   0.9891   0.4578
Er7     Er     0.2435   0.8992   0.3756
V8     V     0.3333   0.6667   0.3284
Er9     Er     0.6776   0.9102   0.2911
Er10     Er     0.7674   0.0898   0.2089
V11     V     0.0   0.0   0.1617
Er12     Er     0.2326   0.3224   0.2911
Er13     Er     0.3224   0.2326   0.2089
Er14     Er     0.0898   0.7674   0.2911
Er15     Er     0.9102   0.6776   0.2089
V16     V     0.0   0.0   0.3383
V17     V     0.6667   0.3333   0.995
Er18     Er     0.5768   0.5659   0.0422
Er19     Er     0.7565   0.6557   0.1244
Er20     Er     0.4341   0.0109   0.0422
Er21     Er     0.3443   0.1008   0.1244
Er22     Er     0.9891   0.4232   0.0422
Er23     Er     0.8992   0.2435   0.1244
V24     V     0.6667   0.3333   0.1716
V25     V     0.3333   0.6667   0.005
Er26     Er     0.2435   0.3443   0.8756
Er27     Er     0.4232   0.4341   0.9578
Er28     Er     0.6557   0.8992   0.8756
Er29     Er     0.5659   0.9891   0.9578
Er30     Er     0.1008   0.7565   0.8756
Er31     Er     0.0109   0.5768   0.9578
V32     V     0.3333   0.6667   0.8284
Er33     Er     0.9102   0.2326   0.7089
Er34     Er     0.0898   0.3224   0.7911
V35     V     0.0   0.0   0.6617
Er36     Er     0.6776   0.7674   0.7911
Er37     Er     0.7674   0.6776   0.7089
Er38     Er     0.2326   0.9102   0.7911
Er39     Er     0.3224   0.0898   0.7089
V40     V     0.0   0.0   0.8383
V41     V     0.6667   0.3333   0.495
Er42     Er     0.4341   0.4232   0.5422
Er43     Er     0.3443   0.2435   0.6244
Er44     Er     0.9891   0.5659   0.5422
Er45     Er     0.8992   0.6557   0.6244
Er46     Er     0.5768   0.0109   0.5422
Er47     Er     0.7565   0.1008   0.6244
V48     V     0.6667   0.3333   0.6716
loop_
_geom_bond_atom_site_label_1
_geom_bond_atom_site_label_2
_geom_bond_distance
_geom_bond_site_symmetry_2
_ccdc_geom_bond_type
V1     Er42    10.0   .     S
V1     Er44    10.0   1_455     S
V1     Er46    10.0   1_565     S
V1     Er3    10.0   .     S
V1     Er6    10.0   .     S
V1     Er5    10.0   .     S
Er2     Er3    9.999   .     S
Er2     V8    10.0   .     S
Er2     V16    10.0   1_665     S
Er3     V41    10.0   .     S
Er4     Er5    9.999   .     S
Er4     V8    10.0   .     S
Er4     V16    10.0   .     S
Er5     V41    10.0   1_455     S
Er6     Er7    9.999   .     S
Er6     V41    10.0   1_565     S
Er7     V8    10.0   .     S
Er7     V16    10.0   1_565     S
V8     Er12    10.0   .     S
V8     Er14    10.0   .     S
V8     Er9    10.0   .     S
Er9     Er10    9.999   1_565     S
Er9     V16    10.0   1_665     S
Er10     Er9    9.999   1_545     S
Er10     V11    10.0   1_655     S
Er10     V24    10.0   .     S
V11     Er23    10.0   1_455     S
V11     Er21    10.0   .     S
V11     Er19    10.0   1_445     S
V11     Er10    10.0   1_455     S
V11     Er13    10.0   .     S
V11     Er15    10.0   1_445     S
Er12     Er13    9.999   .     S
Er12     V16    10.0   .     S
Er13     V24    10.0   .     S
Er14     Er15    9.999   1_455     S
Er14     V16    10.0   1_565     S
Er15     V11    10.0   1_665     S
Er15     Er14    9.999   1_655     S
Er15     V24    10.0   .     S
V16     Er7    10.0   1_545     S
V16     Er2    10.0   1_445     S
V16     Er14    10.0   1_545     S
V16     Er9    10.0   1_445     S
V17     Er27    10.0   .     S
V17     Er29    10.0   1_545     S
V17     Er31    10.0   1_655     S
V17     Er22    10.0   1_556     S
V17     Er20    10.0   1_556     S
V17     Er18    10.0   1_556     S
Er18     V17    10.0   1_554     S
Er18     Er19    9.999   .     S
Er18     V25    10.0   .     S
Er19     V11    10.0   1_665     S
Er19     V24    10.0   .     S
Er20     V17    10.0   1_554     S
Er20     Er21    9.999   .     S
Er20     V25    10.0   1_545     S
Er21     V24    10.0   .     S
Er22     V17    10.0   1_554     S
Er22     Er23    9.999   .     S
Er22     V25    10.0   1_655     S
Er23     V11    10.0   1_655     S
Er23     V24    10.0   .     S
V25     Er22    10.0   1_455     S
V25     Er20    10.0   1_565     S
V25     Er31    10.0   1_554     S
V25     Er27    10.0   1_554     S
V25     Er29    10.0   1_554     S
Er26     Er27    9.999   .     S
Er26     V32    10.0   .     S
Er26     V40    10.0   .     S
Er27     V25    10.0   1_556     S
Er28     Er29    9.999   .     S
Er28     V32    10.0   .     S
Er28     V40    10.0   1_665     S
Er29     V17    10.0   1_565     S
Er29     V25    10.0   1_556     S
Er30     Er31    9.999   .     S
Er30     V32    10.0   .     S
Er30     V40    10.0   1_565     S
Er31     V17    10.0   1_455     S
Er31     V25    10.0   1_556     S
V32     Er34    10.0   .     S
V32     Er38    10.0   .     S
V32     Er36    10.0   .     S
Er33     Er34    9.999   1_655     S
Er33     V35    10.0   1_655     S
Er33     V48    10.0   .     S
Er34     Er33    9.999   1_455     S
Er34     V40    10.0   .     S
V35     Er45    10.0   1_445     S
V35     Er43    10.0   .     S
V35     Er47    10.0   1_455     S
V35     Er33    10.0   1_455     S
V35     Er37    10.0   1_445     S
V35     Er39    10.0   .     S
Er36     Er37    9.999   .     S
Er36     V40    10.0   1_665     S
Er37     V35    10.0   1_665     S
Er37     V48    10.0   .     S
Er38     Er39    9.999   1_565     S
Er38     V40    10.0   1_565     S
Er39     Er38    9.999   1_545     S
Er39     V48    10.0   .     S
V40     Er30    10.0   1_545     S
V40     Er28    10.0   1_445     S
V40     Er38    10.0   1_545     S
V40     Er36    10.0   1_445     S
V41     Er6    10.0   1_545     S
V41     Er5    10.0   1_655     S
V41     Er44    10.0   .     S
V41     Er46    10.0   .     S
V41     Er42    10.0   .     S
Er42     Er43    9.999   .     S
Er43     V48    10.0   .     S
Er44     V1    10.0   1_655     S
Er44     Er45    9.999   .     S
Er45     V35    10.0   1_665     S
Er45     V48    10.0   .     S
Er46     V1    10.0   1_545     S
Er46     Er47    9.999   .     S
Er47     V35    10.0   1_655     S
Er47     V48    10.0   .     S
