data_ttua
_audit_creation_date              2020-02-04
_audit_creation_method            'Pymatgen'
_symmetry_space_group_name_H-M    'P1'
_symmetry_Int_Tables_number       1
loop_
_symmetry_equiv_pos_as_xyz
  x,y,z
_cell_length_a                    65.3154
_cell_length_b                    65.3154
_cell_length_c                    248.9555
_cell_angle_alpha                 90.0
_cell_angle_beta                 90.0
_cell_angle_gamma                 120.0
loop_
_atom_site_label
_atom_site_type_symbol
_atom_site_fract_x
_atom_site_fract_y
_atom_site_fract_z
Er1     Er     0.0876   0.9984   0.3536
Er2     Er     0.9108   0.9124   0.3536
Er3     Er     0.0016   0.0892   0.3536
Er4     Er     0.9984   0.0876   0.1464
Er5     Er     0.0892   0.0016   0.1464
Er6     Er     0.9124   0.9108   0.1464
V7     V     0.0892   0.0876   0.3208
V8     V     0.9984   0.9108   0.3208
V9     V     0.9124   0.0016   0.3208
Ce10     Ce     0.1407   0.7238   0.2976
Ti11     Ti     0.0522   0.8111   0.3018
S12     S     0.0493   0.7352   0.2667
Ce13     Ce     0.8593   0.5831   0.2024
Ti14     Ti     0.9478   0.759   0.1982
S15     S     0.9507   0.6859   0.2333
Ce16     Ce     0.4169   0.2762   0.2024
Ti17     Ti     0.241   0.1889   0.1982
S18     S     0.3141   0.2648   0.2333
Ce19     Ce     0.2762   0.4169   0.2976
Ti20     Ti     0.1889   0.241   0.3018
S21     S     0.2648   0.3141   0.2667
V22     V     0.0016   0.9124   0.1792
V23     V     0.9108   0.9984   0.1792
V24     V     0.0876   0.0892   0.1792
Ce25     Ce     0.5831   0.8593   0.2976
Ti26     Ti     0.759   0.9478   0.3018
S27     S     0.6859   0.9507   0.2667
Ce28     Ce     0.7238   0.1407   0.2024
Ti29     Ti     0.8111   0.0522   0.1982
S30     S     0.7352   0.0493   0.2333
Er31     Er     0.6682   0.2457   0.1869
Er32     Er     0.7543   0.4225   0.1869
Er33     Er     0.5775   0.3318   0.1869
Er34     Er     0.7558   0.4209   0.9798
Er35     Er     0.6651   0.2442   0.9798
Er36     Er     0.5791   0.3349   0.9798
Ce37     Ce     0.8073   0.7502   0.131
Ti38     Ti     0.7188   0.5744   0.1351
S39     S     0.716   0.6475   0.1
Ce40     Ce     0.526   0.6096   0.0357
Ti41     Ti     0.6145   0.5222   0.0316
S42     S     0.6173   0.5981   0.0667
V43     V     0.7543   0.3318   0.0126
V44     V     0.5775   0.2457   0.0126
V45     V     0.6682   0.4225   0.0126
Ce46     Ce     0.2498   0.0571   0.131
Ti47     Ti     0.4256   0.1445   0.1351
S48     S     0.3525   0.0686   0.1
Ce49     Ce     0.3904   0.9165   0.0357
Ti50     Ti     0.4778   0.0923   0.0316
S51     S     0.4019   0.0192   0.0667
V52     V     0.6651   0.4209   0.1541
V53     V     0.5791   0.2442   0.1541
V54     V     0.7558   0.3349   0.1541
Ce55     Ce     0.9429   0.1927   0.131
Ti56     Ti     0.8555   0.2812   0.1351
S57     S     0.9314   0.284   0.1
Ce58     Ce     0.0835   0.474   0.0357
Ti59     Ti     0.9077   0.3855   0.0316
S60     S     0.9808   0.3827   0.0667
Er61     Er     0.3349   0.7558   0.0202
Er62     Er     0.2442   0.5791   0.0202
Er63     Er     0.4209   0.6651   0.0202
Ce64     Ce     0.6096   0.0835   0.9643
Ti65     Ti     0.5222   0.9077   0.9684
S66     S     0.5981   0.9808   0.9333
Ce67     Ce     0.7502   0.9429   0.869
Ti68     Ti     0.5744   0.8555   0.8649
S69     S     0.6475   0.9314   0.9
Ce70     Ce     0.9165   0.526   0.9643
Ti71     Ti     0.0923   0.6145   0.9684
S72     S     0.0192   0.6173   0.9333
Ce73     Ce     0.0571   0.8073   0.869
Ti74     Ti     0.1445   0.7188   0.8649
S75     S     0.0686   0.716   0.9
V76     V     0.3318   0.5775   0.9874
V77     V     0.2457   0.6682   0.9874
V78     V     0.4225   0.7543   0.9874
V79     V     0.2442   0.6651   0.8459
V80     V     0.4209   0.7558   0.8459
V81     V     0.3349   0.5791   0.8459
Ce82     Ce     0.474   0.3904   0.9643
Ti83     Ti     0.3855   0.4778   0.9684
S84     S     0.3827   0.4019   0.9333
Ce85     Ce     0.1927   0.2498   0.869
Ti86     Ti     0.2812   0.4256   0.8649
S87     S     0.284   0.3525   0.9
Er88     Er     0.3318   0.7543   0.8131
Er89     Er     0.2457   0.5775   0.8131
Er90     Er     0.4225   0.6682   0.8131
V91     V     0.0876   0.9984   0.6792
V92     V     0.9108   0.9124   0.6792
V93     V     0.0016   0.0892   0.6792
Ce94     Ce     0.1407   0.4169   0.7976
Ti95     Ti     0.0522   0.241   0.8018
S96     S     0.0493   0.3141   0.7667
Ce97     Ce     0.8593   0.2762   0.7024
Ti98     Ti     0.9478   0.1889   0.6982
S99     S     0.9507   0.2648   0.7333
Ce100     Ce     0.7238   0.5831   0.7024
Ti101     Ti     0.8111   0.759   0.6982
S102     S     0.7352   0.6859   0.7333
Ce103     Ce     0.5831   0.7238   0.7976
Ti104     Ti     0.759   0.8111   0.8018
S105     S     0.6859   0.7352   0.7667
V106     V     0.0892   0.0016   0.8208
V107     V     0.9984   0.0876   0.8208
V108     V     0.9124   0.9108   0.8208
Ce109     Ce     0.2762   0.8593   0.7976
Ti110     Ti     0.1889   0.9478   0.8018
S111     S     0.2648   0.9507   0.7667
Ce112     Ce     0.4169   0.1407   0.7024
Ti113     Ti     0.241   0.0522   0.6982
S114     S     0.3141   0.0493   0.7333
Er115     Er     0.0892   0.0876   0.6464
Er116     Er     0.9984   0.9108   0.6464
Er117     Er     0.9124   0.0016   0.6464
Er118     Er     0.0016   0.9124   0.8536
Er119     Er     0.9108   0.9984   0.8536
Er120     Er     0.0876   0.0892   0.8536
Ce121     Ce     0.0835   0.6096   0.5357
Ti122     Ti     0.9077   0.5222   0.5316
S123     S     0.9808   0.5981   0.5667
Ce124     Ce     0.9429   0.7502   0.631
Ti125     Ti     0.8555   0.5744   0.6351
S126     S     0.9314   0.6475   0.6
V127     V     0.6651   0.2442   0.6541
V128     V     0.7558   0.4209   0.6541
V129     V     0.5791   0.3349   0.6541
Ce130     Ce     0.8073   0.0571   0.631
Ti131     Ti     0.7188   0.1445   0.6351
S132     S     0.716   0.0686   0.6
Ce133     Ce     0.526   0.9165   0.5357
Ti134     Ti     0.6145   0.0923   0.5316
S135     S     0.6173   0.0192   0.5667
V136     V     0.6682   0.2457   0.5126
V137     V     0.7543   0.4225   0.5126
V138     V     0.5775   0.3318   0.5126
Ce139     Ce     0.3904   0.474   0.5357
Ti140     Ti     0.4778   0.3855   0.5316
S141     S     0.4019   0.3827   0.5667
Ce142     Ce     0.2498   0.1927   0.631
Ti143     Ti     0.4256   0.2812   0.6351
S144     S     0.3525   0.284   0.6
Er145     Er     0.7543   0.3318   0.6869
Er146     Er     0.5775   0.2457   0.6869
Er147     Er     0.6682   0.4225   0.6869
Er148     Er     0.6651   0.4209   0.4798
Er149     Er     0.5791   0.2442   0.4798
Er150     Er     0.7558   0.3349   0.4798
Er151     Er     0.2442   0.6651   0.5202
Er152     Er     0.4209   0.7558   0.5202
Er153     Er     0.3349   0.5791   0.5202
Ce154     Ce     0.474   0.0835   0.4643
Ti155     Ti     0.3855   0.9077   0.4684
S156     S     0.3827   0.9808   0.4333
Ce157     Ce     0.1927   0.9429   0.369
Ti158     Ti     0.2812   0.8555   0.3649
S159     S     0.284   0.9314   0.4
V160     V     0.3318   0.7543   0.4874
V161     V     0.2457   0.5775   0.4874
V162     V     0.4225   0.6682   0.4874
Ce163     Ce     0.6096   0.526   0.4643
Ti164     Ti     0.5222   0.6145   0.4684
S165     S     0.5981   0.6173   0.4333
Ce166     Ce     0.7502   0.8073   0.369
Ti167     Ti     0.5744   0.7188   0.3649
S168     S     0.6475   0.716   0.4
V169     V     0.3349   0.7558   0.3459
V170     V     0.2442   0.5791   0.3459
V171     V     0.4209   0.6651   0.3459
Ce172     Ce     0.9165   0.3904   0.4643
Ti173     Ti     0.0923   0.4778   0.4684
S174     S     0.0192   0.4019   0.4333
Ce175     Ce     0.0571   0.2498   0.369
Ti176     Ti     0.1445   0.4256   0.3649
S177     S     0.0686   0.3525   0.4
Er178     Er     0.3318   0.5775   0.3131
Er179     Er     0.2457   0.6682   0.3131
Er180     Er     0.4225   0.7543   0.3131
loop_
_geom_bond_atom_site_label_1
_geom_bond_atom_site_label_2
_geom_bond_distance
_geom_bond_site_symmetry_2
_ccdc_geom_bond_type
Er1     Er2    10.0   1_455     S
Er1     Er3    10.0   1_565     S
Er1     V8    10.0   1_455     S
Er1     V7    10.0   1_565     S
Er1     Ce157    10.0   .     S
Er2     Er1    10.0   1_655     S
Er2     Er3    10.0   1_665     S
Er2     V8    10.0   .     S
Er2     V9    10.0   1_565     S
Er2     Ce166    10.0   .     S
Er3     Er1    10.0   1_545     S
Er3     Er2    10.0   1_445     S
Er3     V7    10.0   .     S
Er3     V9    10.0   1_455     S
Er3     Ce175    10.0   .     S
Er4     Er6    10.0   1_545     S
Er4     Er5    10.0   1_655     S
Er4     V23    10.0   1_545     S
Er4     V24    10.0   1_655     S
Er4     Ce55    10.0   .     S
Er5     Er6    10.0   1_445     S
Er5     Er4    10.0   1_455     S
Er5     V22    10.0   1_545     S
Er5     V24    10.0   .     S
Er5     Ce46    10.0   .     S
Er6     Er4    10.0   1_565     S
Er6     Er5    10.0   1_665     S
Er6     V22    10.0   1_655     S
Er6     V23    10.0   .     S
Er6     Ce37    10.0   .     S
V7     Er1    10.0   1_545     S
V7     V8    10.0   1_445     S
V7     V9    10.0   1_455     S
V7     Ti20    10.0   .     S
V8     Er1    10.0   1_655     S
V8     V9    10.0   1_565     S
V8     V7    10.0   1_665     S
V8     Ti11    10.0   1_655     S
V9     Er2    10.0   1_545     S
V9     Er3    10.0   1_655     S
V9     V8    10.0   1_545     S
V9     V7    10.0   1_655     S
V9     Ti26    10.0   1_545     S
Ce10     Er179    10.0   .     S
Ce10     Ti11    10.0   .     S
Ce10     S12    10.0   .     S
Ti11     S12    9.999   .     S
Ti11     V8    10.0   1_455     S
S12     S15    10.001   1_455     S
Ce13     Er32    10.0   .     S
Ce13     Ti14    10.0   .     S
Ce13     S15    10.0   .     S
Ti14     S15    9.999   .     S
Ti14     V22    10.0   1_655     S
S15     S12    10.001   1_655     S
Ce16     Er33    10.0   .     S
Ce16     Ti17    10.0   .     S
Ce16     S18    10.0   .     S
Ti17     S18    9.999   .     S
Ti17     V24    10.0   .     S
S18     S21    10.001   .     S
Ce19     Er178    10.0   .     S
Ce19     Ti20    10.0   .     S
Ce19     S21    10.0   .     S
Ti20     S21    9.999   .     S
V22     Er5    10.0   1_565     S
V22     Er6    10.0   1_455     S
V22     Ti14    10.0   1_455     S
V22     V24    10.0   1_565     S
V22     V23    10.0   1_455     S
V23     Er4    10.0   1_565     S
V23     V24    10.0   1_665     S
V23     V22    10.0   1_655     S
V23     Ti29    10.0   1_565     S
V24     Er4    10.0   1_455     S
V24     V22    10.0   1_545     S
V24     V23    10.0   1_445     S
Ce25     Er180    10.0   .     S
Ce25     Ti26    10.0   .     S
Ce25     S27    10.0   .     S
Ti26     S27    9.999   .     S
Ti26     V9    10.0   1_565     S
S27     S30    10.001   1_565     S
Ce28     Er31    10.0   .     S
Ce28     Ti29    10.0   .     S
Ce28     S30    10.0   .     S
Ti29     S30    9.999   .     S
Ti29     V23    10.0   1_545     S
S30     S27    10.001   1_545     S
Er31     V53    10.0   .     S
Er31     V54    10.0   .     S
Er31     Er33    10.0   .     S
Er31     Er32    10.0   .     S
Er32     V54    10.0   .     S
Er32     V52    10.0   .     S
Er32     Er33    10.0   .     S
Er33     V52    10.0   .     S
Er33     V53    10.0   .     S
Er34     Er36    10.0   .     S
Er34     Er35    10.0   .     S
Er34     V43    10.0   1_556     S
Er34     V45    10.0   1_556     S
Er34     Ce70    10.0   .     S
Er35     Er36    10.0   .     S
Er35     V43    10.0   1_556     S
Er35     V44    10.0   1_556     S
Er35     Ce64    10.0   .     S
Er36     V44    10.0   1_556     S
Er36     V45    10.0   1_556     S
Er36     Ce82    10.0   .     S
Ce37     Ti38    10.0   .     S
Ce37     S39    10.0   .     S
Ti38     S39    9.999   .     S
Ti38     V52    10.0   .     S
S39     S42    10.001   .     S
Ce40     Er63    10.0   .     S
Ce40     Ti41    10.0   .     S
Ce40     S42    10.0   .     S
Ti41     S42    9.999   .     S
Ti41     V45    10.0   .     S
V43     Er35    10.0   1_554     S
V43     Er34    10.0   1_554     S
V43     V45    10.0   .     S
V43     V44    10.0   .     S
V43     Ti59    10.0   .     S
V44     Er36    10.0   1_554     S
V44     Er35    10.0   1_554     S
V44     V45    10.0   .     S
V44     Ti50    10.0   .     S
V45     Er34    10.0   1_554     S
V45     Er36    10.0   1_554     S
Ce46     Ti47    10.0   .     S
Ce46     S48    10.0   .     S
Ti47     S48    9.999   .     S
Ti47     V53    10.0   .     S
S48     S51    10.001   .     S
Ce49     Er61    10.0   .     S
Ce49     Ti50    10.0   1_565     S
Ce49     S51    10.0   1_565     S
Ti50     Ce49    10.0   1_545     S
Ti50     S51    9.999   .     S
S51     Ce49    10.0   1_545     S
V52     V54    10.0   .     S
V52     V53    10.0   .     S
V53     V54    10.0   .     S
V54     Ti56    10.0   .     S
Ce55     Ti56    10.0   .     S
Ce55     S57    10.0   .     S
Ti56     S57    9.999   .     S
S57     S60    10.001   .     S
Ce58     Er62    10.0   .     S
Ce58     Ti59    10.0   1_455     S
Ce58     S60    10.0   1_455     S
Ti59     Ce58    10.0   1_655     S
Ti59     S60    9.999   .     S
S60     Ce58    10.0   1_655     S
Er61     V77    10.0   1_554     S
Er61     V78    10.0   1_554     S
Er61     Er63    10.0   .     S
Er61     Er62    10.0   .     S
Er62     V76    10.0   1_554     S
Er62     V77    10.0   1_554     S
Er62     Er63    10.0   .     S
Er63     V78    10.0   1_554     S
Er63     V76    10.0   1_554     S
Ce64     Ti65    10.0   1_545     S
Ce64     S66    10.0   1_545     S
Ti65     Ce64    10.0   1_565     S
Ti65     S66    9.999   .     S
Ti65     V78    10.0   .     S
S66     Ce64    10.0   1_565     S
S66     S69    10.001   .     S
Ce67     Er119    10.0   .     S
Ce67     Ti68    10.0   .     S
Ce67     S69    10.0   .     S
Ti68     S69    9.999   .     S
Ti68     V80    10.0   .     S
Ce70     Ti71    10.0   1_655     S
Ce70     S72    10.0   1_655     S
Ti71     Ce70    10.0   1_455     S
Ti71     S72    9.999   .     S
Ti71     V77    10.0   .     S
S72     Ce70    10.0   1_455     S
S72     S75    10.001   .     S
Ce73     Er118    10.0   .     S
Ce73     Ti74    10.0   .     S
Ce73     S75    10.0   .     S
Ti74     S75    9.999   .     S
Ti74     V79    10.0   .     S
V76     Er63    10.0   1_556     S
V76     Er62    10.0   1_556     S
V76     V77    10.0   .     S
V76     V78    10.0   .     S
V76     Ti83    10.0   .     S
V77     Er61    10.0   1_556     S
V77     Er62    10.0   1_556     S
V77     V78    10.0   .     S
V78     Er63    10.0   1_556     S
V78     Er61    10.0   1_556     S
V79     V81    10.0   .     S
V79     V80    10.0   .     S
V79     Er88    10.0   .     S
V79     Er89    10.0   .     S
V80     V81    10.0   .     S
V80     Er88    10.0   .     S
V80     Er90    10.0   .     S
V81     Ti86    10.0   .     S
V81     Er90    10.0   .     S
V81     Er89    10.0   .     S
Ce82     Ti83    10.0   .     S
Ce82     S84    10.0   .     S
Ti83     S84    9.999   .     S
S84     S87    10.001   .     S
Ce85     Er120    10.0   .     S
Ce85     Ti86    10.0   .     S
Ce85     S87    10.0   .     S
Ti86     S87    9.999   .     S
Er88     Er90    10.0   .     S
Er88     Er89    10.0   .     S
Er88     Ce109    10.0   .     S
Er89     Er90    10.0   .     S
Er89     Ce94    10.0   .     S
Er90     Ce103    10.0   .     S
V91     V92    10.0   1_455     S
V91     V93    10.0   1_565     S
V91     Ti113    10.0   1_565     S
V91     Er116    10.0   1_455     S
V91     Er115    10.0   1_565     S
V92     V91    10.0   1_655     S
V92     V93    10.0   1_665     S
V92     Ti101    10.0   .     S
V92     Er117    10.0   1_565     S
V92     Er116    10.0   .     S
V93     V91    10.0   1_545     S
V93     V92    10.0   1_445     S
V93     Ti98    10.0   1_455     S
V93     Er115    10.0   .     S
V93     Er117    10.0   1_455     S
Ce94     Ti95    10.0   .     S
Ce94     S96    10.0   .     S
Ti95     S96    9.999   .     S
Ti95     V107    10.0   1_455     S
S96     S99    10.001   1_455     S
Ce97     Er145    10.0   .     S
Ce97     Ti98    10.0   .     S
Ce97     S99    10.0   .     S
Ti98     S99    9.999   .     S
Ti98     V93    10.0   1_655     S
S99     S96    10.001   1_655     S
Ce100     Er147    10.0   .     S
Ce100     Ti101    10.0   .     S
Ce100     S102    10.0   .     S
Ti101     S102    9.999   .     S
S102     S105    10.001   .     S
Ce103     Ti104    10.0   .     S
Ce103     S105    10.0   .     S
Ti104     S105    9.999   .     S
Ti104     V108    10.0   .     S
V106     V108    10.0   1_445     S
V106     V107    10.0   1_455     S
V106     Ti110    10.0   1_545     S
V106     Er118    10.0   1_545     S
V106     Er120    10.0   .     S
V107     Ti95    10.0   1_655     S
V107     V108    10.0   1_545     S
V107     V106    10.0   1_655     S
V107     Er119    10.0   1_545     S
V107     Er120    10.0   1_655     S
V108     V107    10.0   1_565     S
V108     V106    10.0   1_665     S
V108     Er118    10.0   1_655     S
V108     Er119    10.0   .     S
Ce109     Ti110    10.0   .     S
Ce109     S111    10.0   .     S
Ti110     S111    9.999   .     S
Ti110     V106    10.0   1_565     S
S111     S114    10.001   1_565     S
Ce112     Er146    10.0   .     S
Ce112     Ti113    10.0   .     S
Ce112     S114    10.0   .     S
Ti113     S114    9.999   .     S
Ti113     V91    10.0   1_545     S
S114     S111    10.001   1_545     S
Er115     Er116    10.0   1_445     S
Er115     Er117    10.0   1_455     S
Er115     V91    10.0   1_545     S
Er115     Ce142    10.0   .     S
Er116     Er117    10.0   1_565     S
Er116     Er115    10.0   1_665     S
Er116     V91    10.0   1_655     S
Er116     Ce124    10.0   .     S
Er117     Er116    10.0   1_545     S
Er117     Er115    10.0   1_655     S
Er117     V92    10.0   1_545     S
Er117     V93    10.0   1_655     S
Er117     Ce130    10.0   .     S
Er118     Er119    10.0   1_455     S
Er118     Er120    10.0   1_565     S
Er118     V108    10.0   1_455     S
Er118     V106    10.0   1_565     S
Er119     Er118    10.0   1_655     S
Er119     Er120    10.0   1_665     S
Er119     V107    10.0   1_565     S
Er120     Er118    10.0   1_545     S
Er120     Er119    10.0   1_445     S
Er120     V107    10.0   1_455     S
Ce121     Er151    10.0   .     S
Ce121     Ti122    10.0   1_455     S
Ce121     S123    10.0   1_455     S
Ti122     Ce121    10.0   1_655     S
Ti122     S123    9.999   .     S
Ti122     V137    10.0   .     S
S123     Ce121    10.0   1_655     S
S123     S126    10.001   .     S
Ce124     Ti125    10.0   .     S
Ce124     S126    10.0   .     S
Ti125     S126    9.999   .     S
Ti125     V128    10.0   .     S
V127     V128    10.0   .     S
V127     V129    10.0   .     S
V127     Ti131    10.0   .     S
V127     Er145    10.0   .     S
V127     Er146    10.0   .     S
V128     V129    10.0   .     S
V128     Er145    10.0   .     S
V128     Er147    10.0   .     S
V129     Ti143    10.0   .     S
V129     Er146    10.0   .     S
V129     Er147    10.0   .     S
Ce130     Ti131    10.0   .     S
Ce130     S132    10.0   .     S
Ti131     S132    9.999   .     S
S132     S135    10.001   .     S
Ce133     Er152    10.0   .     S
Ce133     Ti134    10.0   1_565     S
Ce133     S135    10.0   1_565     S
Ti134     Ce133    10.0   1_545     S
Ti134     S135    9.999   .     S
Ti134     V136    10.0   .     S
S135     Ce133    10.0   1_545     S
V136     V138    10.0   .     S
V136     V137    10.0   .     S
V136     Er149    10.0   .     S
V136     Er150    10.0   .     S
V137     V138    10.0   .     S
V137     Er148    10.0   .     S
V137     Er150    10.0   .     S
V138     Ti140    10.0   .     S
V138     Er149    10.0   .     S
V138     Er148    10.0   .     S
Ce139     Er153    10.0   .     S
Ce139     Ti140    10.0   .     S
Ce139     S141    10.0   .     S
Ti140     S141    9.999   .     S
S141     S144    10.001   .     S
Ce142     Ti143    10.0   .     S
Ce142     S144    10.0   .     S
Ti143     S144    9.999   .     S
Er145     Er147    10.0   .     S
Er145     Er146    10.0   .     S
Er146     Er147    10.0   .     S
Er148     Er150    10.0   .     S
Er148     Er149    10.0   .     S
Er148     Ce163    10.0   .     S
Er149     Er150    10.0   .     S
Er149     Ce154    10.0   .     S
Er150     Ce172    10.0   .     S
Er151     V160    10.0   .     S
Er151     V161    10.0   .     S
Er151     Er153    10.0   .     S
Er151     Er152    10.0   .     S
Er152     V160    10.0   .     S
Er152     V162    10.0   .     S
Er152     Er153    10.0   .     S
Er153     V162    10.0   .     S
Er153     V161    10.0   .     S
Ce154     Ti155    10.0   1_545     S
Ce154     S156    10.0   1_545     S
Ti155     Ce154    10.0   1_565     S
Ti155     S156    9.999   .     S
Ti155     V160    10.0   .     S
S156     Ce154    10.0   1_565     S
S156     S159    10.001   .     S
Ce157     Ti158    10.0   .     S
Ce157     S159    10.0   .     S
Ti158     S159    9.999   .     S
Ti158     V169    10.0   .     S
V160     V162    10.0   .     S
V160     V161    10.0   .     S
V161     V162    10.0   .     S
V161     Ti173    10.0   .     S
V162     Ti164    10.0   .     S
Ce163     Ti164    10.0   .     S
Ce163     S165    10.0   .     S
Ti164     S165    9.999   .     S
S165     S168    10.001   .     S
Ce166     Ti167    10.0   .     S
Ce166     S168    10.0   .     S
Ti167     S168    9.999   .     S
Ti167     V171    10.0   .     S
V169     V171    10.0   .     S
V169     V170    10.0   .     S
V169     Er179    10.0   .     S
V169     Er180    10.0   .     S
V170     V171    10.0   .     S
V170     Ti176    10.0   .     S
V170     Er178    10.0   .     S
V170     Er179    10.0   .     S
V171     Er178    10.0   .     S
V171     Er180    10.0   .     S
Ce172     Ti173    10.0   1_655     S
Ce172     S174    10.0   1_655     S
Ti173     Ce172    10.0   1_455     S
Ti173     S174    9.999   .     S
S174     Ce172    10.0   1_455     S
S174     S177    10.001   .     S
Ce175     Ti176    10.0   .     S
Ce175     S177    10.0   .     S
Ti176     S177    9.999   .     S
Er178     Er179    10.0   .     S
Er178     Er180    10.0   .     S
Er179     Er180    10.0   .     S
