data_tuba
_audit_creation_date              2020-02-04
_audit_creation_method            'Pymatgen'
_symmetry_space_group_name_H-M    'P1'
_symmetry_Int_Tables_number       1
loop_
_symmetry_equiv_pos_as_xyz
  x,y,z
_cell_length_a                    65.0846
_cell_length_b                    65.0846
_cell_length_c                    109.6859
_cell_angle_alpha                 90.0
_cell_angle_beta                 90.0
_cell_angle_gamma                 120.0
loop_
_atom_site_label
_atom_site_type_symbol
_atom_site_fract_x
_atom_site_fract_y
_atom_site_fract_z
Ti1     Ti     0.2093   0.4186   0.7609
S2     S     0.1212   0.2423   0.7534
Ce3     Ce     0.1583   0.3165   0.836
Ti4     Ti     0.5814   0.7907   0.7609
S5     S     0.7577   0.8788   0.7534
Ce6     Ce     0.6835   0.8417   0.836
Ti7     Ti     0.2093   0.7907   0.7609
S8     S     0.1212   0.8788   0.7534
Ce9     Ce     0.1583   0.8417   0.836
Be10     Be     0.8978   0.1022   0.5486
He11     He     0.9993   0.1533   0.4748
He12     He     0.8467   0.0007   0.4748
H13     H     0.761   0.0853   0.5
H14     H     0.9147   0.239   0.5
Li15     Li     0.8631   0.1369   0.4256
Li16     Li     0.2739   0.1369   0.4256
Be17     Be     0.2044   0.1022   0.5486
He18     He     0.154   0.0007   0.4748
He19     He     0.154   0.1533   0.4748
H20     H     0.3243   0.0853   0.5
H21     H     0.3243   0.239   0.5
Be22     Be     0.8978   0.7956   0.5486
He23     He     0.9993   0.846   0.4748
He24     He     0.8467   0.846   0.4748
H25     H     0.9147   0.6757   0.5
H26     H     0.761   0.6757   0.5
Li27     Li     0.8631   0.7261   0.4256
B28     B     0.0509   0.9491   0.6972
B29     B     0.8982   0.9491   0.6972
B30     B     0.0509   0.1018   0.6972
C31     C     0.1015   0.0508   0.623
C32     C     0.9492   0.0508   0.623
C33     C     0.9492   0.8985   0.623
V34     V     0.0934   0.5467   0.5743
Er35     Er     0.9738   0.4096   0.5247
Er36     Er     0.9738   0.5642   0.5247
V37     V     0.4533   0.9066   0.5743
Er38     Er     0.5903   0.0262   0.5247
Er39     Er     0.4358   0.0262   0.5247
N40     N     0.2823   0.7177   0.7074
N41     N     0.2823   0.5646   0.7074
N42     N     0.4354   0.7177   0.7074
O43     O     0.3843   0.7687   0.6331
O44     O     0.3843   0.6157   0.6331
O45     O     0.2313   0.6156   0.6331
V46     V     0.4533   0.5467   0.5743
Er47     Er     0.5903   0.5642   0.5247
Er48     Er     0.4358   0.4096   0.5247
Ti49     Ti     0.7907   0.5814   0.2609
S50     S     0.8788   0.7577   0.2534
Ce51     Ce     0.8417   0.6835   0.336
Ti52     Ti     0.4186   0.2093   0.2609
S53     S     0.2423   0.1212   0.2534
Ce54     Ce     0.3165   0.1583   0.336
Ti55     Ti     0.7907   0.2093   0.2609
S56     S     0.8788   0.1212   0.2534
Ce57     Ce     0.8417   0.1583   0.336
Li58     Li     0.7261   0.8631   0.9256
Be59     Be     0.7956   0.8978   0.0486
He60     He     0.846   0.9993   0.9748
He61     He     0.846   0.8467   0.9748
H62     H     0.6757   0.761   0.0
H63     H     0.6757   0.9147   0.0
Li64     Li     0.1369   0.2739   0.9256
Be65     Be     0.1022   0.2044   0.0486
He66     He     0.0007   0.154   0.9748
He67     He     0.1533   0.154   0.9748
H68     H     0.0853   0.3243   0.0
H69     H     0.239   0.3243   0.0
Li70     Li     0.1369   0.8631   0.9256
Be71     Be     0.1022   0.8978   0.0486
He72     He     0.1533   0.9993   0.9748
He73     He     0.0007   0.8467   0.9748
H74     H     0.0853   0.761   0.0
H75     H     0.239   0.9147   0.0
B76     B     0.9491   0.0509   0.1972
B77     B     0.1018   0.0509   0.1972
B78     B     0.9491   0.8982   0.1972
C79     C     0.0508   0.1015   0.123
C80     C     0.0508   0.9492   0.123
C81     C     0.8985   0.9492   0.123
V82     V     0.9066   0.4533   0.0743
Er83     Er     0.0262   0.5903   0.0247
Er84     Er     0.0262   0.4358   0.0247
V85     V     0.5467   0.0934   0.0743
Er86     Er     0.4096   0.9738   0.0247
Er87     Er     0.5642   0.9738   0.0247
N88     N     0.7177   0.2823   0.2074
N89     N     0.7177   0.4354   0.2074
N90     N     0.5646   0.2823   0.2074
O91     O     0.7687   0.3843   0.1331
O92     O     0.6157   0.3843   0.1331
O93     O     0.6157   0.2313   0.1331
V94     V     0.5467   0.4533   0.0743
Er95     Er     0.5642   0.5903   0.0247
Er96     Er     0.4096   0.4358   0.0247
loop_
_geom_bond_atom_site_label_1
_geom_bond_atom_site_label_2
_geom_bond_distance
_geom_bond_site_symmetry_2
_ccdc_geom_bond_type
Ti1     S2    9.974   .     S
Ti1     Ce3    10.052   .     S
Ti1     N41    10.103   .     S
S2     Ce3    9.986   .     S
S2     B30    10.032   .     S
Ce3     Li64    10.121   .     S
Ti4     S5    9.974   .     S
Ti4     Ce6    10.052   .     S
Ti4     N42    10.103   .     S
S5     Ce6    9.986   .     S
S5     B29    10.032   .     S
Ce6     Li58    10.121   .     S
Ti7     S8    9.974   .     S
Ti7     Ce9    10.052   .     S
Ti7     N40    10.103   .     S
S8     Ce9    9.986   .     S
S8     B28    10.032   .     S
Ce9     Li70    10.121   .     S
Be10     He12    9.912   .     S
Be10     He11    9.912   .     S
Be10     H13    9.956   .     S
Be10     H14    9.956   .     S
Be10     C32    10.012   .     S
He11     H14    9.989   .     S
He11     Li15    9.971   .     S
He11     He19    10.065   1_655     S
He11     He12    9.933   .     S
He12     H13    9.989   .     S
He12     Li15    9.971   .     S
He12     He24    10.065   1_545     S
H13     H14    10.005   .     S
H13     Li15    9.98   .     S
H13     Er38    10.137   .     S
H14     Li15    9.98   .     S
H14     Er35    10.137   .     S
Li15     Ce57    10.121   .     S
Li16     He18    9.971   .     S
Li16     He19    9.971   .     S
Li16     H21    9.98   .     S
Li16     H20    9.98   .     S
Li16     Ce54    10.121   .     S
Be17     He19    9.912   .     S
Be17     He18    9.912   .     S
Be17     H20    9.956   .     S
Be17     H21    9.956   .     S
Be17     C31    10.012   .     S
He18     H20    9.989   .     S
He18     He23    10.065   1_445     S
He18     He19    9.933   .     S
He19     H21    9.989   .     S
He19     He11    10.065   1_455     S
H20     H21    10.005   .     S
H20     Er39    10.137   .     S
H21     Er48    10.137   .     S
Be22     He23    9.912   .     S
Be22     He24    9.912   .     S
Be22     H25    9.956   .     S
Be22     H26    9.956   .     S
Be22     C33    10.012   .     S
He23     H25    9.989   .     S
He23     Li27    9.971   .     S
He23     He18    10.065   1_665     S
He23     He24    9.933   .     S
He24     H26    9.989   .     S
He24     Li27    9.971   .     S
He24     He12    10.065   1_565     S
H25     H26    10.005   .     S
H25     Li27    9.98   .     S
H25     Er36    10.137   .     S
H26     Li27    9.98   .     S
H26     Er47    10.137   .     S
Li27     Ce51    10.121   .     S
B28     C31    9.952   1_565     S
B28     C33    9.952   1_455     S
B28     B29    9.938   1_455     S
B28     B30    9.938   1_565     S
B29     C33    9.952   .     S
B29     C32    9.952   1_565     S
B29     B30    9.938   1_665     S
B29     B28    9.938   1_655     S
B30     C32    9.952   1_455     S
B30     C31    9.952   .     S
B30     B29    9.938   1_445     S
B30     B28    9.938   1_545     S
C31     C32    9.912   1_455     S
C31     C33    9.912   1_445     S
C31     B28    9.952   1_545     S
C32     C31    9.912   1_655     S
C32     C33    9.912   1_545     S
C32     B29    9.952   1_545     S
C32     B30    9.952   1_655     S
C33     C31    9.912   1_665     S
C33     C32    9.912   1_565     S
C33     B28    9.952   1_655     S
V34     Er36    10.017   1_455     S
V34     Er35    10.017   1_455     S
V34     O45    10.099   .     S
Er35     Er36    10.058   .     S
Er35     V34    10.017   1_655     S
Er36     V34    10.017   1_655     S
V37     Er38    10.017   1_565     S
V37     Er39    10.017   1_565     S
V37     O43    10.099   .     S
Er38     Er39    10.058   .     S
Er38     V37    10.017   1_545     S
Er39     V37    10.017   1_545     S
N40     O45    9.976   .     S
N40     O43    9.976   .     S
N40     N42    9.968   .     S
N40     N41    9.968   .     S
N41     O44    9.976   .     S
N41     O45    9.975   .     S
N41     N42    9.968   .     S
N42     O43    9.976   .     S
N42     O44    9.976   .     S
O43     O45    9.96   .     S
O43     O44    9.96   .     S
O44     O45    9.96   .     S
O44     V46    10.099   .     S
V46     Er48    10.017   .     S
V46     Er47    10.017   .     S
Er47     Er48    10.058   .     S
Ti49     S50    9.974   .     S
Ti49     Ce51    10.052   .     S
Ti49     N89    10.103   .     S
S50     Ce51    9.986   .     S
S50     B78    10.032   .     S
Ti52     S53    9.974   .     S
Ti52     Ce54    10.052   .     S
Ti52     N90    10.103   .     S
S53     Ce54    9.986   .     S
S53     B77    10.032   .     S
Ti55     S56    9.974   .     S
Ti55     Ce57    10.052   .     S
Ti55     N88    10.103   .     S
S56     Ce57    9.986   .     S
S56     B76    10.032   .     S
Li58     He60    9.971   .     S
Li58     He61    9.971   .     S
Li58     H62    9.98   1_556     S
Li58     H63    9.98   1_556     S
Be59     He61    9.912   1_554     S
Be59     He60    9.912   1_554     S
Be59     H62    9.956   .     S
Be59     H63    9.956   .     S
Be59     C81    10.012   .     S
He60     Be59    9.912   1_556     S
He60     H63    9.989   1_556     S
He60     He66    10.065   1_665     S
He60     He61    9.933   .     S
He61     Be59    9.912   1_556     S
He61     H62    9.989   1_556     S
He61     He73    10.065   1_655     S
H62     He61    9.989   1_554     S
H62     H63    10.005   .     S
H62     Li58    9.98   1_554     S
H62     Er95    10.137   .     S
H63     He60    9.989   1_554     S
H63     Li58    9.98   1_554     S
H63     Er87    10.137   .     S
Li64     He67    9.971   .     S
Li64     He66    9.971   .     S
Li64     H69    9.98   1_556     S
Li64     H68    9.98   1_556     S
Be65     He66    9.912   1_554     S
Be65     He67    9.912   1_554     S
Be65     H68    9.956   .     S
Be65     H69    9.956   .     S
Be65     C79    10.012   .     S
He66     Be65    9.912   1_556     S
He66     H68    9.989   1_556     S
He66     He60    10.065   1_445     S
He66     He67    9.933   .     S
He67     Be65    9.912   1_556     S
He67     H69    9.989   1_556     S
He67     He72    10.065   1_545     S
H68     He66    9.989   1_554     S
H68     H69    10.005   .     S
H68     Li64    9.98   1_554     S
H68     Er84    10.137   .     S
H69     He67    9.989   1_554     S
H69     Li64    9.98   1_554     S
H69     Er96    10.137   .     S
Li70     He73    9.971   .     S
Li70     He72    9.971   .     S
Li70     H75    9.98   1_556     S
Li70     H74    9.98   1_556     S
Be71     He73    9.912   1_554     S
Be71     He72    9.912   1_554     S
Be71     H74    9.956   .     S
Be71     H75    9.956   .     S
Be71     C80    10.012   .     S
He72     Be71    9.912   1_556     S
He72     H75    9.989   1_556     S
He72     He67    10.065   1_565     S
He72     He73    9.933   .     S
He73     Be71    9.912   1_556     S
He73     H74    9.989   1_556     S
He73     He61    10.065   1_455     S
H74     He73    9.989   1_554     S
H74     H75    10.005   .     S
H74     Li70    9.98   1_554     S
H74     Er83    10.137   .     S
H75     He72    9.989   1_554     S
H75     Li70    9.98   1_554     S
H75     Er86    10.137   .     S
B76     C81    9.952   1_545     S
B76     C79    9.952   1_655     S
B76     B77    9.938   1_655     S
B76     B78    9.938   1_545     S
B77     C79    9.952   .     S
B77     C80    9.952   1_545     S
B77     B76    9.938   1_455     S
B77     B78    9.938   1_445     S
B78     C80    9.952   1_655     S
B78     C81    9.952   .     S
B78     B76    9.938   1_565     S
B78     B77    9.938   1_665     S
C79     C80    9.912   1_545     S
C79     C81    9.912   1_445     S
C79     B76    9.952   1_455     S
C80     C79    9.912   1_565     S
C80     C81    9.912   1_455     S
C80     B78    9.952   1_455     S
C80     B77    9.952   1_565     S
C81     C79    9.912   1_665     S
C81     C80    9.912   1_655     S
C81     B76    9.952   1_565     S
V82     Er84    10.017   1_655     S
V82     Er83    10.017   1_655     S
V82     O91    10.099   .     S
Er83     Er84    10.058   .     S
Er83     V82    10.017   1_455     S
Er84     V82    10.017   1_455     S
V85     Er87    10.017   1_545     S
V85     Er86    10.017   1_545     S
V85     O93    10.099   .     S
Er86     Er87    10.058   .     S
Er86     V85    10.017   1_565     S
Er87     V85    10.017   1_565     S
N88     O91    9.976   .     S
N88     O93    9.975   .     S
N88     N89    9.968   .     S
N88     N90    9.968   .     S
N89     O92    9.976   .     S
N89     O91    9.976   .     S
N89     N90    9.968   .     S
N90     O93    9.976   .     S
N90     O92    9.976   .     S
O91     O93    9.96   .     S
O91     O92    9.96   .     S
O92     O93    9.96   .     S
O92     V94    10.099   .     S
V94     Er96    10.017   .     S
V94     Er95    10.017   .     S
Er95     Er96    10.058   .     S
