data_txta
_audit_creation_date              2020-02-04
_audit_creation_method            'Pymatgen'
_symmetry_space_group_name_H-M    'P1'
_symmetry_Int_Tables_number       1
loop_
_symmetry_equiv_pos_as_xyz
  x,y,z
_cell_length_a                    63.6581
_cell_length_b                    63.6581
_cell_length_c                    63.6581
_cell_angle_alpha                 90.0
_cell_angle_beta                 90.0
_cell_angle_gamma                 90.0
loop_
_atom_site_label
_atom_site_type_symbol
_atom_site_fract_x
_atom_site_fract_y
_atom_site_fract_z
V1     V     0.312   0.312   0.5
Er2     Er     0.2009   0.2009   0.5
V3     V     0.312   0.5   0.312
Er4     Er     0.2009   0.5   0.2009
V5     V     0.5   0.312   0.312
Er6     Er     0.5   0.2009   0.2009
V7     V     0.688   0.312   0.5
Er8     Er     0.7991   0.2009   0.5
Ce9     Ce     0.3953   0.0786   0.6047
Ce10     Ce     0.6047   0.0786   0.3953
Ce11     Ce     0.3953   0.0786   0.3953
Ce12     Ce     0.6047   0.0786   0.6047
Ti13     Ti     0.4215   0.2312   0.4215
Ti14     Ti     0.5785   0.2312   0.4215
Ti15     Ti     0.4215   0.2312   0.5785
Ti16     Ti     0.5785   0.2312   0.5785
V17     V     0.5   0.312   0.688
Er18     Er     0.5   0.2009   0.7991
V19     V     0.312   0.688   0.5
Er20     Er     0.2009   0.7991   0.5
Ce21     Ce     0.0786   0.6047   0.6047
Ce22     Ce     0.0786   0.3953   0.3953
Ce23     Ce     0.0786   0.6047   0.3953
Ce24     Ce     0.0786   0.3953   0.6047
Ti25     Ti     0.2312   0.5785   0.4215
Ti26     Ti     0.2312   0.4215   0.4215
Ti27     Ti     0.2312   0.4215   0.5785
Ti28     Ti     0.2312   0.5785   0.5785
V29     V     0.312   0.5   0.688
Er30     Er     0.2009   0.5   0.7991
V31     V     0.688   0.688   0.5
Er32     Er     0.7991   0.7991   0.5
Ce33     Ce     0.3953   0.9214   0.3953
Ce34     Ce     0.6047   0.9214   0.6047
Ce35     Ce     0.6047   0.9214   0.3953
Ce36     Ce     0.3953   0.9214   0.6047
Ti37     Ti     0.5785   0.7688   0.4215
Ti38     Ti     0.4215   0.7688   0.4215
Ti39     Ti     0.4215   0.7688   0.5785
Ti40     Ti     0.5785   0.7688   0.5785
V41     V     0.5   0.688   0.688
Er42     Er     0.5   0.7991   0.7991
Ce43     Ce     0.6047   0.3953   0.9214
Ce44     Ce     0.3953   0.3953   0.9214
Ce45     Ce     0.3953   0.6047   0.9214
Ce46     Ce     0.6047   0.6047   0.9214
Ti47     Ti     0.4215   0.4215   0.7688
Ti48     Ti     0.4215   0.5785   0.7688
Ti49     Ti     0.5785   0.4215   0.7688
Ti50     Ti     0.5785   0.5785   0.7688
Ce51     Ce     0.9214   0.3953   0.6047
Ce52     Ce     0.9214   0.6047   0.3953
Ce53     Ce     0.9214   0.3953   0.3953
Ce54     Ce     0.9214   0.6047   0.6047
Ti55     Ti     0.7688   0.4215   0.5785
Ti56     Ti     0.7688   0.4215   0.4215
Ti57     Ti     0.7688   0.5785   0.4215
Ti58     Ti     0.7688   0.5785   0.5785
V59     V     0.688   0.5   0.688
Er60     Er     0.7991   0.5   0.7991
V61     V     0.5   0.688   0.312
Er62     Er     0.5   0.7991   0.2009
Ce63     Ce     0.3953   0.3953   0.0786
Ce64     Ce     0.3953   0.6047   0.0786
Ce65     Ce     0.6047   0.6047   0.0786
Ce66     Ce     0.6047   0.3953   0.0786
Ti67     Ti     0.4215   0.4215   0.2312
Ti68     Ti     0.4215   0.5785   0.2312
Ti69     Ti     0.5785   0.4215   0.2312
Ti70     Ti     0.5785   0.5785   0.2312
V71     V     0.688   0.5   0.312
Er72     Er     0.7991   0.5   0.2009
Er73     Er     0.2991   0.2991   0.0
V74     V     0.188   0.188   0.0
Er75     Er     0.2991   0.7009   0.0
V76     V     0.188   0.812   0.0
Ce77     Ce     0.4214   0.1047   0.1047
Ce78     Ce     0.4214   0.8953   0.1047
Ce79     Ce     0.4214   0.1047   0.8953
Ce80     Ce     0.4214   0.8953   0.8953
Ti81     Ti     0.2688   0.0785   0.0785
Ti82     Ti     0.2688   0.0785   0.9215
Ti83     Ti     0.2688   0.9215   0.0785
Ti84     Ti     0.2688   0.9215   0.9215
Er85     Er     0.2991   0.0   0.7009
V86     V     0.188   0.0   0.812
Er87     Er     0.2991   0.0   0.2991
V88     V     0.188   0.0   0.188
Er89     Er     0.0   0.2991   0.7009
V90     V     0.0   0.188   0.812
Ce91     Ce     0.1047   0.4214   0.1047
Ce92     Ce     0.1047   0.4214   0.8953
Ce93     Ce     0.8953   0.4214   0.1047
Ce94     Ce     0.8953   0.4214   0.8953
Ti95     Ti     0.0785   0.2688   0.9215
Ti96     Ti     0.0785   0.2688   0.0785
Ti97     Ti     0.9215   0.2688   0.0785
Ti98     Ti     0.9215   0.2688   0.9215
Er99     Er     0.7009   0.2991   0.0
V100     V     0.812   0.188   0.0
Er101     Er     0.0   0.2991   0.2991
V102     V     0.0   0.188   0.188
Er103     Er     0.7009   0.0   0.2991
V104     V     0.812   0.0   0.188
Ce105     Ce     0.1047   0.8953   0.4214
Ce106     Ce     0.8953   0.1047   0.4214
Ce107     Ce     0.1047   0.1047   0.4214
Ce108     Ce     0.8953   0.8953   0.4214
Ti109     Ti     0.0785   0.9215   0.2688
Ti110     Ti     0.0785   0.0785   0.2688
Ti111     Ti     0.9215   0.0785   0.2688
Ti112     Ti     0.9215   0.9215   0.2688
Er113     Er     0.0   0.7009   0.2991
V114     V     0.0   0.812   0.188
Er115     Er     0.0   0.7009   0.7009
V116     V     0.0   0.812   0.812
Ce117     Ce     0.1047   0.5786   0.1047
Ce118     Ce     0.8953   0.5786   0.1047
Ce119     Ce     0.1047   0.5786   0.8953
Ce120     Ce     0.8953   0.5786   0.8953
Ti121     Ti     0.0785   0.7312   0.0785
Ti122     Ti     0.0785   0.7312   0.9215
Ti123     Ti     0.9215   0.7312   0.0785
Ti124     Ti     0.9215   0.7312   0.9215
Er125     Er     0.7009   0.7009   0.0
V126     V     0.812   0.812   0.0
Ce127     Ce     0.5786   0.1047   0.1047
Ce128     Ce     0.5786   0.1047   0.8953
Ce129     Ce     0.5786   0.8953   0.1047
Ce130     Ce     0.5786   0.8953   0.8953
Ti131     Ti     0.7312   0.0785   0.0785
Ti132     Ti     0.7312   0.0785   0.9215
Ti133     Ti     0.7312   0.9215   0.0785
Ti134     Ti     0.7312   0.9215   0.9215
Ce135     Ce     0.8953   0.1047   0.5786
Ce136     Ce     0.1047   0.1047   0.5786
Ce137     Ce     0.1047   0.8953   0.5786
Ce138     Ce     0.8953   0.8953   0.5786
Ti139     Ti     0.9215   0.0785   0.7312
Ti140     Ti     0.0785   0.0785   0.7312
Ti141     Ti     0.0785   0.9215   0.7312
Ti142     Ti     0.9215   0.9215   0.7312
Er143     Er     0.7009   0.0   0.7009
V144     V     0.812   0.0   0.812
loop_
_geom_bond_atom_site_label_1
_geom_bond_atom_site_label_2
_geom_bond_distance
_geom_bond_site_symmetry_2
_ccdc_geom_bond_type
V1     Ti15    10.0   .     S
V1     Ti13    10.0   .     S
V1     Ti26    10.0   .     S
V1     Ti27    10.0   .     S
V1     Er2    10.0   .     S
Er2     Ce107    10.0   .     S
Er2     Ce136    10.0   .     S
V3     Ti25    10.0   .     S
V3     Ti26    10.0   .     S
V3     Ti67    10.0   .     S
V3     Ti68    10.0   .     S
V3     Er4    10.0   .     S
Er4     Ce91    10.0   .     S
Er4     Ce117    10.0   .     S
V5     Ti13    10.0   .     S
V5     Ti14    10.0   .     S
V5     Ti69    10.0   .     S
V5     Ti67    10.0   .     S
V5     Er6    10.0   .     S
Er6     Ce127    10.0   .     S
Er6     Ce77    10.0   .     S
V7     Ti14    10.0   .     S
V7     Ti16    10.0   .     S
V7     Ti55    10.0   .     S
V7     Ti56    10.0   .     S
V7     Er8    10.0   .     S
Er8     Ce106    10.0   .     S
Er8     Ce135    10.0   .     S
Ce9     Ti15    10.0   .     S
Ce9     Er85    10.0   .     S
Ce9     Ce36    10.001   1_545     S
Ce10     Ti14    10.0   .     S
Ce10     Er103    10.0   .     S
Ce10     Ce35    10.001   1_545     S
Ce11     Ti13    10.0   .     S
Ce11     Er87    10.0   .     S
Ce11     Ce33    10.001   1_545     S
Ce12     Ti16    10.0   .     S
Ce12     Er143    10.0   .     S
Ce12     Ce34    10.001   1_545     S
Ti13     Ti15    9.999   .     S
Ti13     Ti14    9.999   .     S
Ti14     Ti16    9.999   .     S
Ti15     Ti16    9.999   .     S
Ti15     V17    10.0   .     S
Ti16     V17    10.0   .     S
V17     Ti47    10.0   .     S
V17     Ti49    10.0   .     S
V17     Er18    10.0   .     S
Er18     Ce79    10.0   .     S
Er18     Ce128    10.0   .     S
V19     Ti28    10.0   .     S
V19     Ti25    10.0   .     S
V19     Ti38    10.0   .     S
V19     Ti39    10.0   .     S
V19     Er20    10.0   .     S
Er20     Ce105    10.0   .     S
Er20     Ce137    10.0   .     S
Ce21     Ti28    10.0   .     S
Ce21     Er115    10.0   .     S
Ce21     Ce54    10.001   1_455     S
Ce22     Ti26    10.0   .     S
Ce22     Er101    10.0   .     S
Ce22     Ce53    10.001   1_455     S
Ce23     Ti25    10.0   .     S
Ce23     Er113    10.0   .     S
Ce23     Ce52    10.001   1_455     S
Ce24     Ti27    10.0   .     S
Ce24     Er89    10.0   .     S
Ce24     Ce51    10.001   1_455     S
Ti25     Ti28    9.999   .     S
Ti25     Ti26    9.999   .     S
Ti26     Ti27    9.999   .     S
Ti27     Ti28    9.999   .     S
Ti27     V29    10.0   .     S
Ti28     V29    10.0   .     S
V29     Ti48    10.0   .     S
V29     Ti47    10.0   .     S
V29     Er30    10.0   .     S
Er30     Ce119    10.0   .     S
Er30     Ce92    10.0   .     S
V31     Ti57    10.0   .     S
V31     Ti58    10.0   .     S
V31     Ti40    10.0   .     S
V31     Ti37    10.0   .     S
V31     Er32    10.0   .     S
Er32     Ce138    10.0   .     S
Er32     Ce108    10.0   .     S
Ce33     Ti38    10.0   .     S
Ce33     Er87    10.0   1_565     S
Ce33     Ce11    10.001   1_565     S
Ce34     Ti40    10.0   .     S
Ce34     Er143    10.0   1_565     S
Ce34     Ce12    10.001   1_565     S
Ce35     Ti37    10.0   .     S
Ce35     Er103    10.0   1_565     S
Ce35     Ce10    10.001   1_565     S
Ce36     Ti39    10.0   .     S
Ce36     Er85    10.0   1_565     S
Ce36     Ce9    10.001   1_565     S
Ti37     Ti40    9.999   .     S
Ti37     Ti38    9.999   .     S
Ti37     V61    10.0   .     S
Ti38     Ti39    9.999   .     S
Ti38     V61    10.0   .     S
Ti39     Ti40    9.999   .     S
Ti39     V41    10.0   .     S
Ti40     V41    10.0   .     S
V41     Ti50    10.0   .     S
V41     Ti48    10.0   .     S
V41     Er42    10.0   .     S
Er42     Ce130    10.0   .     S
Er42     Ce80    10.0   .     S
Ce43     Ti49    10.0   .     S
Ce43     Er99    10.0   1_556     S
Ce43     Ce66    10.001   1_556     S
Ce44     Ti47    10.0   .     S
Ce44     Er73    10.0   1_556     S
Ce44     Ce63    10.001   1_556     S
Ce45     Ti48    10.0   .     S
Ce45     Er75    10.0   1_556     S
Ce45     Ce64    10.001   1_556     S
Ce46     Ti50    10.0   .     S
Ce46     Er125    10.0   1_556     S
Ce46     Ce65    10.001   1_556     S
Ti47     Ti48    9.999   .     S
Ti47     Ti49    9.999   .     S
Ti48     Ti50    9.999   .     S
Ti49     Ti50    9.999   .     S
Ti49     V59    10.0   .     S
Ti50     V59    10.0   .     S
Ce51     Ti55    10.0   .     S
Ce51     Er89    10.0   1_655     S
Ce51     Ce24    10.001   1_655     S
Ce52     Ti57    10.0   .     S
Ce52     Er113    10.0   1_655     S
Ce52     Ce23    10.001   1_655     S
Ce53     Ti56    10.0   .     S
Ce53     Er101    10.0   1_655     S
Ce53     Ce22    10.001   1_655     S
Ce54     Ti58    10.0   .     S
Ce54     Er115    10.0   1_655     S
Ce54     Ce21    10.001   1_655     S
Ti55     Ti58    9.999   .     S
Ti55     Ti56    9.999   .     S
Ti55     V59    10.0   .     S
Ti56     Ti57    9.999   .     S
Ti56     V71    10.0   .     S
Ti57     Ti58    9.999   .     S
Ti57     V71    10.0   .     S
Ti58     V59    10.0   .     S
V59     Er60    10.0   .     S
Er60     Ce94    10.0   .     S
Er60     Ce120    10.0   .     S
V61     Ti68    10.0   .     S
V61     Ti70    10.0   .     S
V61     Er62    10.0   .     S
Er62     Ce78    10.0   .     S
Er62     Ce129    10.0   .     S
Ce63     Ti67    10.0   .     S
Ce63     Er73    10.0   .     S
Ce63     Ce44    10.001   1_554     S
Ce64     Ti68    10.0   .     S
Ce64     Er75    10.0   .     S
Ce64     Ce45    10.001   1_554     S
Ce65     Ti70    10.0   .     S
Ce65     Er125    10.0   .     S
Ce65     Ce46    10.001   1_554     S
Ce66     Ti69    10.0   .     S
Ce66     Er99    10.0   .     S
Ce66     Ce43    10.001   1_554     S
Ti67     Ti68    9.999   .     S
Ti67     Ti69    9.999   .     S
Ti68     Ti70    9.999   .     S
Ti69     Ti70    9.999   .     S
Ti69     V71    10.0   .     S
Ti70     V71    10.0   .     S
V71     Er72    10.0   .     S
Er72     Ce118    10.0   .     S
Er72     Ce93    10.0   .     S
Er73     Ce44    10.0   1_554     S
Er73     V74    10.0   .     S
V74     Ti96    10.0   .     S
V74     Ti95    10.0   1_554     S
V74     Ti82    10.0   1_554     S
V74     Ti81    10.0   .     S
Er75     Ce45    10.0   1_554     S
Er75     V76    10.0   .     S
V76     Ti122    10.0   1_554     S
V76     Ti121    10.0   .     S
V76     Ti83    10.0   .     S
V76     Ti84    10.0   1_554     S
Ce77     Ce127    10.001   .     S
Ce77     Ti81    10.0   .     S
Ce78     Ce129    10.001   .     S
Ce78     Ti83    10.0   .     S
Ce79     Ce128    10.001   .     S
Ce79     Ti82    10.0   .     S
Ce80     Ce130    10.001   .     S
Ce80     Ti84    10.0   .     S
Ti81     Ti82    9.999   1_554     S
Ti81     Ti83    9.999   1_545     S
Ti81     V88    10.0   .     S
Ti82     V74    10.0   1_556     S
Ti82     Ti81    9.999   1_556     S
Ti82     Ti84    9.999   1_545     S
Ti82     V86    10.0   .     S
Ti83     Ti81    9.999   1_565     S
Ti83     Ti84    9.999   1_554     S
Ti83     V88    10.0   1_565     S
Ti84     V76    10.0   1_556     S
Ti84     Ti82    9.999   1_565     S
Ti84     Ti83    9.999   1_556     S
Ti84     V86    10.0   1_565     S
Er85     Ce36    10.0   1_545     S
Er85     V86    10.0   .     S
V86     Ti140    10.0   .     S
V86     Ti141    10.0   1_545     S
V86     Ti84    10.0   1_545     S
Er87     Ce33    10.0   1_545     S
Er87     V88    10.0   .     S
V88     Ti83    10.0   1_545     S
V88     Ti109    10.0   1_545     S
V88     Ti110    10.0   .     S
Er89     Ce51    10.0   1_455     S
Er89     V90    10.0   .     S
V90     Ti139    10.0   1_455     S
V90     Ti140    10.0   .     S
V90     Ti95    10.0   .     S
V90     Ti98    10.0   1_455     S
Ce91     Ce117    10.001   .     S
Ce91     Ti96    10.0   .     S
Ce92     Ce119    10.001   .     S
Ce92     Ti95    10.0   .     S
Ce93     Ce118    10.001   .     S
Ce93     Ti97    10.0   .     S
Ce94     Ce120    10.001   .     S
Ce94     Ti98    10.0   .     S
Ti95     V74    10.0   1_556     S
Ti95     Ti98    9.999   1_455     S
Ti95     Ti96    9.999   1_556     S
Ti96     Ti97    9.999   1_455     S
Ti96     Ti95    9.999   1_554     S
Ti96     V102    10.0   .     S
Ti97     Ti96    9.999   1_655     S
Ti97     Ti98    9.999   1_554     S
Ti97     V100    10.0   .     S
Ti97     V102    10.0   1_655     S
Ti98     V90    10.0   1_655     S
Ti98     Ti95    9.999   1_655     S
Ti98     Ti97    9.999   1_556     S
Ti98     V100    10.0   1_556     S
Er99     Ce43    10.0   1_554     S
Er99     V100    10.0   .     S
V100     Ti131    10.0   .     S
V100     Ti132    10.0   1_554     S
V100     Ti98    10.0   1_554     S
Er101     Ce53    10.0   1_455     S
Er101     V102    10.0   .     S
V102     Ti97    10.0   1_455     S
V102     Ti110    10.0   .     S
V102     Ti111    10.0   1_455     S
Er103     Ce35    10.0   1_545     S
Er103     V104    10.0   .     S
V104     Ti133    10.0   1_545     S
V104     Ti131    10.0   .     S
V104     Ti111    10.0   .     S
V104     Ti112    10.0   1_545     S
Ce105     Ce137    10.001   .     S
Ce105     Ti109    10.0   .     S
Ce106     Ce135    10.001   .     S
Ce106     Ti111    10.0   .     S
Ce107     Ce136    10.001   .     S
Ce107     Ti110    10.0   .     S
Ce108     Ce138    10.001   .     S
Ce108     Ti112    10.0   .     S
Ti109     V88    10.0   1_565     S
Ti109     Ti112    9.999   1_455     S
Ti109     Ti110    9.999   1_565     S
Ti109     V114    10.0   .     S
Ti110     Ti111    9.999   1_455     S
Ti110     Ti109    9.999   1_545     S
Ti111     V102    10.0   1_655     S
Ti111     Ti110    9.999   1_655     S
Ti111     Ti112    9.999   1_545     S
Ti112     V104    10.0   1_565     S
Ti112     Ti109    9.999   1_655     S
Ti112     Ti111    9.999   1_565     S
Ti112     V114    10.0   1_655     S
Er113     Ce52    10.0   1_455     S
Er113     V114    10.0   .     S
V114     Ti121    10.0   .     S
V114     Ti123    10.0   1_455     S
V114     Ti112    10.0   1_455     S
Er115     Ce54    10.0   1_455     S
Er115     V116    10.0   .     S
V116     Ti141    10.0   .     S
V116     Ti142    10.0   1_455     S
V116     Ti124    10.0   1_455     S
V116     Ti122    10.0   .     S
Ce117     Ti121    10.0   .     S
Ce118     Ti123    10.0   .     S
Ce119     Ti122    10.0   .     S
Ce120     Ti124    10.0   .     S
Ti121     Ti122    9.999   1_554     S
Ti121     Ti123    9.999   1_455     S
Ti122     V76    10.0   1_556     S
Ti122     Ti121    9.999   1_556     S
Ti122     Ti124    9.999   1_455     S
Ti123     V114    10.0   1_655     S
Ti123     Ti121    9.999   1_655     S
Ti123     Ti124    9.999   1_554     S
Ti123     V126    10.0   .     S
Ti124     V116    10.0   1_655     S
Ti124     Ti122    9.999   1_655     S
Ti124     Ti123    9.999   1_556     S
Ti124     V126    10.0   1_556     S
Er125     Ce46    10.0   1_554     S
Er125     V126    10.0   .     S
V126     Ti124    10.0   1_554     S
V126     Ti134    10.0   1_554     S
V126     Ti133    10.0   .     S
Ce127     Ti131    10.0   .     S
Ce128     Ti132    10.0   .     S
Ce129     Ti133    10.0   .     S
Ce130     Ti134    10.0   .     S
Ti131     Ti132    9.999   1_554     S
Ti131     Ti133    9.999   1_545     S
Ti132     V100    10.0   1_556     S
Ti132     Ti131    9.999   1_556     S
Ti132     Ti134    9.999   1_545     S
Ti132     V144    10.0   .     S
Ti133     V104    10.0   1_565     S
Ti133     Ti131    9.999   1_565     S
Ti133     Ti134    9.999   1_554     S
Ti134     V126    10.0   1_556     S
Ti134     Ti132    9.999   1_565     S
Ti134     Ti133    9.999   1_556     S
Ti134     V144    10.0   1_565     S
Ce135     Ti139    10.0   .     S
Ce136     Ti140    10.0   .     S
Ce137     Ti141    10.0   .     S
Ce138     Ti142    10.0   .     S
Ti139     V90    10.0   1_655     S
Ti139     Ti142    9.999   1_545     S
Ti139     Ti140    9.999   1_655     S
Ti139     V144    10.0   .     S
Ti140     Ti141    9.999   1_545     S
Ti140     Ti139    9.999   1_455     S
Ti141     V86    10.0   1_565     S
Ti141     Ti140    9.999   1_565     S
Ti141     Ti142    9.999   1_455     S
Ti142     V116    10.0   1_655     S
Ti142     Ti139    9.999   1_565     S
Ti142     Ti141    9.999   1_655     S
Ti142     V144    10.0   1_565     S
Er143     Ce34    10.0   1_545     S
Er143     V144    10.0   .     S
V144     Ti134    10.0   1_545     S
V144     Ti142    10.0   1_545     S
