data_ubo
_audit_creation_date              2020-02-04
_audit_creation_method            'Pymatgen'
_symmetry_space_group_name_H-M    'P1'
_symmetry_Int_Tables_number       1
loop_
_symmetry_equiv_pos_as_xyz
  x,y,z
_cell_length_a                    36.5288
_cell_length_b                    36.5288
_cell_length_c                    34.513
_cell_angle_alpha                 90.0
_cell_angle_beta                 90.0
_cell_angle_gamma                 90.0
loop_
_atom_site_label
_atom_site_type_symbol
_atom_site_fract_x
_atom_site_fract_y
_atom_site_fract_z
Er1     Er     0.75   0.8881   0.5
V2     V     0.75   0.75   0.75
V3     V     0.75   0.75   0.25
Er4     Er     0.75   0.6119   0.0
V5     V     0.75   0.25   0.25
V6     V     0.75   0.25   0.75
Er7     Er     0.75   0.3881   0.5
Er8     Er     0.75   0.1119   0.0
Er9     Er     0.8619   0.5   0.75
Er10     Er     0.1381   0.5   0.25
V11     V     0.0   0.5   0.0
V12     V     0.0   0.5   0.5
V13     V     0.5   0.5   0.0
Er14     Er     0.3619   0.5   0.75
V15     V     0.5   0.5   0.5
Er16     Er     0.6381   0.5   0.25
V17     V     0.25   0.25   0.75
Er18     Er     0.25   0.1119   0.5
V19     V     0.25   0.25   0.25
Er20     Er     0.25   0.3881   0.0
Er21     Er     0.6381   0.0   0.75
Er22     Er     0.3619   0.0   0.25
V23     V     0.5   0.0   0.0
V24     V     0.5   0.0   0.5
V25     V     0.25   0.75   0.25
Er26     Er     0.25   0.6119   0.5
V27     V     0.25   0.75   0.75
Er28     Er     0.25   0.8881   0.0
Er29     Er     0.1381   0.0   0.75
Er30     Er     0.8619   0.0   0.25
V31     V     0.0   0.0   0.0
V32     V     0.0   0.0   0.5
loop_
_geom_bond_atom_site_label_1
_geom_bond_atom_site_label_2
_geom_bond_distance
_geom_bond_site_symmetry_2
_ccdc_geom_bond_type
Er1     V3    9.995   .     S
Er1     V2    9.995   .     S
Er1     V24    10.005   1_565     S
Er1     V32    10.005   1_665     S
V2     Er4    9.995   1_556     S
V2     Er9    10.005   .     S
V2     Er21    10.005   1_565     S
V3     Er4    9.995   .     S
V3     Er16    10.005   .     S
V3     Er30    10.005   1_565     S
Er4     V2    9.995   1_554     S
Er4     V11    10.005   1_655     S
Er4     V13    10.005   .     S
V5     Er8    9.995   .     S
V5     Er7    9.995   .     S
V5     Er30    10.005   .     S
V5     Er16    10.005   .     S
V6     Er7    9.995   .     S
V6     Er8    9.995   1_556     S
V6     Er21    10.005   .     S
V6     Er9    10.005   .     S
Er7     V12    10.005   1_655     S
Er7     V15    10.005   .     S
Er8     V6    9.995   1_554     S
Er8     V31    10.005   1_655     S
Er8     V23    10.005   .     S
Er9     V12    9.995   1_655     S
Er9     V11    9.995   1_656     S
Er10     V12    9.995   .     S
Er10     V11    9.995   .     S
Er10     V25    10.005   .     S
Er10     V19    10.005   .     S
V11     Er9    9.995   1_454     S
V11     Er4    10.005   1_455     S
V11     Er20    10.005   .     S
V12     Er9    9.995   1_455     S
V12     Er7    10.005   1_455     S
V12     Er26    10.005   .     S
V13     Er16    9.995   .     S
V13     Er14    9.995   1_554     S
V13     Er20    10.005   .     S
Er14     V15    9.995   .     S
Er14     V13    9.995   1_556     S
Er14     V27    10.005   .     S
Er14     V17    10.005   .     S
V15     Er16    9.995   .     S
V15     Er26    10.005   .     S
V17     Er18    9.995   .     S
V17     Er20    9.995   1_556     S
V17     Er29    10.005   .     S
Er18     V19    9.995   .     S
Er18     V24    10.005   .     S
Er18     V32    10.005   .     S
V19     Er20    9.995   .     S
V19     Er22    10.005   .     S
Er20     V17    9.995   1_554     S
Er21     V24    9.995   .     S
Er21     V23    9.995   1_556     S
Er21     V2    10.005   1_545     S
Er22     V24    9.995   .     S
Er22     V23    9.995   .     S
Er22     V25    10.005   1_545     S
V23     Er21    9.995   1_554     S
V23     Er28    10.005   1_545     S
V24     Er1    10.005   1_545     S
V25     Er28    9.995   .     S
V25     Er26    9.995   .     S
V25     Er22    10.005   1_565     S
Er26     V27    9.995   .     S
V27     Er28    9.995   1_556     S
V27     Er29    10.005   1_565     S
Er28     V27    9.995   1_554     S
Er28     V31    10.005   1_565     S
Er28     V23    10.005   1_565     S
Er29     V32    9.995   .     S
Er29     V31    9.995   1_556     S
Er29     V27    10.005   1_545     S
Er30     V32    9.995   1_655     S
Er30     V31    9.995   1_655     S
Er30     V3    10.005   1_545     S
V31     Er30    9.995   1_455     S
V31     Er29    9.995   1_554     S
V31     Er28    10.005   1_545     S
V31     Er8    10.005   1_455     S
V32     Er30    9.995   1_455     S
V32     Er1    10.005   1_445     S
