data_ubt
_audit_creation_date              2020-02-04
_audit_creation_method            'Pymatgen'
_symmetry_space_group_name_H-M    'P1'
_symmetry_Int_Tables_number       1
loop_
_symmetry_equiv_pos_as_xyz
  x,y,z
_cell_length_a                    42.4262
_cell_length_b                    42.4262
_cell_length_c                    42.4262
_cell_angle_alpha                 90.0
_cell_angle_beta                 90.0
_cell_angle_gamma                 90.0
loop_
_atom_site_label
_atom_site_type_symbol
_atom_site_fract_x
_atom_site_fract_y
_atom_site_fract_z
V1     V     0.1667   0.1667   0.0
V2     V     0.3333   0.3333   0.0
V3     V     0.5   0.1667   0.3333
V4     V     0.5   0.3333   0.1667
V5     V     0.5   0.1667   0.6667
V6     V     0.5   0.3333   0.8333
V7     V     0.1667   0.3333   0.5
V8     V     0.3333   0.1667   0.5
V9     V     0.1667   0.5   0.3333
V10     V     0.3333   0.5   0.1667
V11     V     0.1667   0.5   0.6667
V12     V     0.3333   0.5   0.8333
V13     V     0.1667   0.6667   0.5
V14     V     0.3333   0.8333   0.5
V15     V     0.1667   0.0   0.1667
V16     V     0.3333   0.0   0.3333
V17     V     0.5   0.6667   0.1667
V18     V     0.5   0.8333   0.3333
V19     V     0.1667   0.8333   0.0
V20     V     0.3333   0.6667   0.0
V21     V     0.1667   0.0   0.8333
V22     V     0.3333   0.0   0.6667
V23     V     0.5   0.8333   0.6667
V24     V     0.5   0.6667   0.8333
V25     V     0.6667   0.1667   0.5
V26     V     0.8333   0.3333   0.5
V27     V     0.8333   0.1667   0.0
V28     V     0.6667   0.3333   0.0
V29     V     0.0   0.1667   0.8333
V30     V     0.0   0.3333   0.6667
V31     V     0.8333   0.5   0.6667
V32     V     0.6667   0.5   0.8333
V33     V     0.8333   0.8333   0.0
V34     V     0.6667   0.6667   0.0
V35     V     0.8333   0.0   0.8333
V36     V     0.6667   0.0   0.6667
V37     V     0.0   0.6667   0.6667
V38     V     0.0   0.8333   0.8333
V39     V     0.8333   0.6667   0.5
V40     V     0.6667   0.8333   0.5
V41     V     0.8333   0.0   0.1667
V42     V     0.6667   0.0   0.3333
V43     V     0.0   0.8333   0.1667
V44     V     0.0   0.6667   0.3333
V45     V     0.6667   0.5   0.1667
V46     V     0.8333   0.5   0.3333
V47     V     0.0   0.1667   0.1667
V48     V     0.0   0.3333   0.3333
loop_
_geom_bond_atom_site_label_1
_geom_bond_atom_site_label_2
_geom_bond_distance
_geom_bond_site_symmetry_2
_ccdc_geom_bond_type
V1     V2    10.0   .     S
V1     V21    10.0   1_554     S
V1     V29    10.0   1_554     S
V1     V15    10.0   .     S
V1     V47    10.0   .     S
V2     V10    10.0   .     S
V2     V4    10.0   .     S
V2     V6    10.0   1_554     S
V2     V12    10.0   1_554     S
V3     V4    10.0   .     S
V3     V16    10.0   .     S
V3     V42    10.0   .     S
V3     V25    10.0   .     S
V3     V8    10.0   .     S
V4     V28    10.0   .     S
V4     V10    10.0   .     S
V4     V45    10.0   .     S
V5     V6    10.0   .     S
V5     V22    10.0   .     S
V5     V36    10.0   .     S
V5     V8    10.0   .     S
V5     V25    10.0   .     S
V6     V32    10.0   .     S
V6     V12    10.0   .     S
V6     V2    10.0   1_556     S
V6     V28    10.0   1_556     S
V7     V8    10.0   .     S
V7     V30    10.0   .     S
V7     V48    10.0   .     S
V7     V9    10.0   .     S
V7     V11    10.0   .     S
V8     V16    10.0   .     S
V8     V22    10.0   .     S
V9     V10    10.0   .     S
V9     V44    10.0   .     S
V9     V48    10.0   .     S
V9     V13    10.0   .     S
V10     V20    10.0   .     S
V10     V17    10.0   .     S
V11     V12    10.0   .     S
V11     V30    10.0   .     S
V11     V37    10.0   .     S
V11     V13    10.0   .     S
V12     V24    10.0   .     S
V12     V20    10.0   1_556     S
V12     V2    10.0   1_556     S
V13     V14    10.0   .     S
V13     V37    10.0   .     S
V13     V44    10.0   .     S
V14     V22    10.0   1_565     S
V14     V18    10.0   .     S
V14     V16    10.0   1_565     S
V14     V23    10.0   .     S
V15     V16    10.0   .     S
V15     V19    10.0   1_545     S
V15     V43    10.0   1_545     S
V15     V47    10.0   .     S
V16     V18    10.0   1_545     S
V16     V14    10.0   1_545     S
V17     V18    10.0   .     S
V17     V20    10.0   .     S
V17     V34    10.0   .     S
V17     V45    10.0   .     S
V18     V42    10.0   1_565     S
V18     V16    10.0   1_565     S
V18     V40    10.0   .     S
V19     V20    10.0   .     S
V19     V15    10.0   1_565     S
V19     V38    10.0   1_554     S
V19     V21    10.0   1_564     S
V19     V43    10.0   .     S
V20     V12    10.0   1_554     S
V20     V24    10.0   1_554     S
V21     V22    10.0   .     S
V21     V1    10.0   1_556     S
V21     V38    10.0   1_545     S
V21     V19    10.0   1_546     S
V21     V29    10.0   .     S
V22     V23    10.0   1_545     S
V22     V14    10.0   1_545     S
V23     V24    10.0   .     S
V23     V36    10.0   1_565     S
V23     V22    10.0   1_565     S
V23     V40    10.0   .     S
V24     V32    10.0   .     S
V24     V34    10.0   1_556     S
V24     V20    10.0   1_556     S
V25     V26    10.0   .     S
V25     V36    10.0   .     S
V25     V42    10.0   .     S
V26     V31    10.0   .     S
V26     V48    10.0   1_655     S
V26     V46    10.0   .     S
V26     V30    10.0   1_655     S
V27     V28    10.0   .     S
V27     V47    10.0   1_655     S
V27     V35    10.0   1_554     S
V27     V29    10.0   1_654     S
V27     V41    10.0   .     S
V28     V45    10.0   .     S
V28     V32    10.0   1_554     S
V28     V6    10.0   1_554     S
V29     V30    10.0   .     S
V29     V1    10.0   1_556     S
V29     V35    10.0   1_455     S
V29     V27    10.0   1_456     S
V30     V31    10.0   1_455     S
V30     V26    10.0   1_455     S
V31     V32    10.0   .     S
V31     V37    10.0   1_655     S
V31     V30    10.0   1_655     S
V31     V39    10.0   .     S
V32     V28    10.0   1_556     S
V32     V34    10.0   1_556     S
V33     V34    10.0   .     S
V33     V41    10.0   1_565     S
V33     V43    10.0   1_655     S
V33     V38    10.0   1_654     S
V33     V35    10.0   1_564     S
V34     V45    10.0   .     S
V34     V24    10.0   1_554     S
V34     V32    10.0   1_554     S
V35     V36    10.0   .     S
V35     V29    10.0   1_655     S
V35     V27    10.0   1_556     S
V35     V38    10.0   1_645     S
V35     V33    10.0   1_546     S
V36     V23    10.0   1_545     S
V36     V40    10.0   1_545     S
V37     V38    10.0   .     S
V37     V39    10.0   1_455     S
V37     V31    10.0   1_455     S
V38     V21    10.0   1_565     S
V38     V19    10.0   1_556     S
V38     V35    10.0   1_465     S
V38     V33    10.0   1_456     S
V39     V40    10.0   .     S
V39     V46    10.0   .     S
V39     V37    10.0   1_655     S
V39     V44    10.0   1_655     S
V40     V42    10.0   1_565     S
V40     V36    10.0   1_565     S
V41     V33    10.0   1_545     S
V41     V42    10.0   .     S
V41     V47    10.0   1_655     S
V41     V43    10.0   1_645     S
V42     V18    10.0   1_545     S
V42     V40    10.0   1_545     S
V43     V33    10.0   1_455     S
V43     V44    10.0   .     S
V43     V15    10.0   1_565     S
V43     V41    10.0   1_465     S
V44     V46    10.0   1_455     S
V44     V39    10.0   1_455     S
V45     V46    10.0   .     S
V46     V48    10.0   1_655     S
V46     V44    10.0   1_655     S
V47     V27    10.0   1_455     S
V47     V41    10.0   1_455     S
V47     V48    10.0   .     S
V48     V46    10.0   1_455     S
V48     V26    10.0   1_455     S
