data_ubta
_audit_creation_date              2020-02-04
_audit_creation_method            'Pymatgen'
_symmetry_space_group_name_H-M    'P1'
_symmetry_Int_Tables_number       1
loop_
_symmetry_equiv_pos_as_xyz
  x,y,z
_cell_length_a                    96.5683
_cell_length_b                    96.5683
_cell_length_c                    96.5683
_cell_angle_alpha                 90.0
_cell_angle_beta                 90.0
_cell_angle_gamma                 90.0
loop_
_atom_site_label
_atom_site_type_symbol
_atom_site_fract_x
_atom_site_fract_y
_atom_site_fract_z
Er1     Er     0.7134   0.7866   0.0
Er2     Er     0.7866   0.7134   0.0
Er3     Er     0.7866   0.0   0.7134
Er4     Er     0.7134   0.0   0.7866
Er5     Er     0.0   0.7866   0.7134
Er6     Er     0.0   0.7134   0.7866
Er7     Er     0.5   0.7134   0.7134
Er8     Er     0.5   0.7866   0.7866
Er9     Er     0.7134   0.7134   0.5
Er10     Er     0.7866   0.7866   0.5
Er11     Er     0.7134   0.5   0.7134
Er12     Er     0.7866   0.5   0.7866
V13     V     0.375   0.5518   0.3018
V14     V     0.3018   0.5518   0.375
V15     V     0.4482   0.6982   0.375
V16     V     0.375   0.6982   0.4482
V17     V     0.3018   0.625   0.4482
V18     V     0.4482   0.625   0.3018
V19     V     0.375   0.3018   0.5518
V20     V     0.3018   0.375   0.5518
V21     V     0.4482   0.375   0.6982
V22     V     0.375   0.4482   0.6982
V23     V     0.3018   0.4482   0.625
V24     V     0.4482   0.3018   0.625
V25     V     0.4482   0.6982   0.625
V26     V     0.4482   0.625   0.6982
V27     V     0.375   0.5518   0.6982
V28     V     0.375   0.6982   0.5518
V29     V     0.3018   0.625   0.5518
V30     V     0.3018   0.5518   0.625
V31     V     0.6982   0.625   0.4482
V32     V     0.625   0.6982   0.4482
V33     V     0.5518   0.6982   0.375
V34     V     0.6982   0.5518   0.375
V35     V     0.625   0.5518   0.3018
V36     V     0.5518   0.625   0.3018
V37     V     0.625   0.5518   0.6982
V38     V     0.5518   0.625   0.6982
V39     V     0.625   0.6982   0.5518
V40     V     0.5518   0.6982   0.625
V41     V     0.6982   0.5518   0.625
V42     V     0.6982   0.625   0.5518
V43     V     0.6982   0.4482   0.625
V44     V     0.625   0.4482   0.6982
V45     V     0.5518   0.375   0.6982
V46     V     0.6982   0.375   0.5518
V47     V     0.625   0.3018   0.5518
V48     V     0.5518   0.3018   0.625
V49     V     0.5518   0.375   0.3018
V50     V     0.5518   0.3018   0.375
V51     V     0.6982   0.375   0.4482
V52     V     0.6982   0.4482   0.375
V53     V     0.625   0.4482   0.3018
V54     V     0.625   0.3018   0.4482
V55     V     0.4482   0.3018   0.375
V56     V     0.4482   0.375   0.3018
V57     V     0.3018   0.4482   0.375
V58     V     0.375   0.4482   0.3018
V59     V     0.3018   0.375   0.4482
V60     V     0.375   0.3018   0.4482
Er61     Er     0.2134   0.7134   0.0
Er62     Er     0.2866   0.7866   0.0
Er63     Er     0.0   0.7134   0.2134
Er64     Er     0.0   0.7866   0.2866
Er65     Er     0.7134   0.5   0.2866
Er66     Er     0.7866   0.5   0.2134
Er67     Er     0.2866   0.5   0.2866
Er68     Er     0.2134   0.5   0.2134
Er69     Er     0.2866   0.5   0.7134
Er70     Er     0.2134   0.5   0.7866
V71     V     0.1982   0.375   0.9482
V72     V     0.125   0.3018   0.9482
V73     V     0.0518   0.3018   0.875
V74     V     0.0518   0.375   0.8018
V75     V     0.125   0.4482   0.8018
V76     V     0.1982   0.4482   0.875
V77     V     0.9482   0.375   0.8018
V78     V     0.8018   0.4482   0.875
V79     V     0.875   0.4482   0.8018
V80     V     0.8018   0.375   0.9482
V81     V     0.875   0.3018   0.9482
V82     V     0.9482   0.3018   0.875
V83     V     0.9482   0.375   0.1982
V84     V     0.9482   0.3018   0.125
V85     V     0.875   0.3018   0.0518
V86     V     0.8018   0.375   0.0518
V87     V     0.8018   0.4482   0.125
V88     V     0.875   0.4482   0.1982
V89     V     0.125   0.6982   0.0518
V90     V     0.1982   0.625   0.0518
V91     V     0.0518   0.625   0.1982
V92     V     0.0518   0.6982   0.125
V93     V     0.1982   0.5518   0.125
V94     V     0.125   0.5518   0.1982
V95     V     0.8018   0.5518   0.125
V96     V     0.9482   0.625   0.1982
V97     V     0.875   0.5518   0.1982
V98     V     0.9482   0.6982   0.125
V99     V     0.8018   0.625   0.0518
V100     V     0.875   0.6982   0.0518
V101     V     0.125   0.5518   0.8018
V102     V     0.1982   0.625   0.9482
V103     V     0.1982   0.5518   0.875
V104     V     0.125   0.6982   0.9482
V105     V     0.0518   0.625   0.8018
V106     V     0.0518   0.6982   0.875
V107     V     0.8018   0.625   0.9482
V108     V     0.9482   0.625   0.8018
V109     V     0.875   0.5518   0.8018
V110     V     0.8018   0.5518   0.875
V111     V     0.9482   0.6982   0.875
V112     V     0.875   0.6982   0.9482
V113     V     0.0518   0.375   0.1982
V114     V     0.1982   0.4482   0.125
V115     V     0.125   0.4482   0.1982
V116     V     0.1982   0.375   0.0518
V117     V     0.125   0.3018   0.0518
V118     V     0.0518   0.3018   0.125
Er119     Er     0.7134   0.2134   0.0
Er120     Er     0.7866   0.2866   0.0
Er121     Er     0.2866   0.2134   0.0
Er122     Er     0.2134   0.2866   0.0
Er123     Er     0.7134   0.0   0.2134
Er124     Er     0.7866   0.0   0.2866
Er125     Er     0.5   0.2866   0.2866
Er126     Er     0.5   0.2134   0.2134
Er127     Er     0.5   0.7134   0.2866
Er128     Er     0.5   0.7866   0.2134
Er129     Er     0.5   0.2866   0.7134
Er130     Er     0.5   0.2134   0.7866
V131     V     0.375   0.1982   0.9482
V132     V     0.3018   0.125   0.9482
V133     V     0.3018   0.0518   0.875
V134     V     0.375   0.0518   0.8018
V135     V     0.4482   0.125   0.8018
V136     V     0.4482   0.1982   0.875
V137     V     0.375   0.8018   0.9482
V138     V     0.4482   0.875   0.8018
V139     V     0.4482   0.8018   0.875
V140     V     0.375   0.9482   0.8018
V141     V     0.3018   0.875   0.9482
V142     V     0.3018   0.9482   0.875
V143     V     0.375   0.9482   0.1982
V144     V     0.3018   0.9482   0.125
V145     V     0.3018   0.875   0.0518
V146     V     0.375   0.8018   0.0518
V147     V     0.4482   0.8018   0.125
V148     V     0.4482   0.875   0.1982
V149     V     0.6982   0.125   0.0518
V150     V     0.625   0.1982   0.0518
V151     V     0.625   0.0518   0.1982
V152     V     0.6982   0.0518   0.125
V153     V     0.5518   0.1982   0.125
V154     V     0.5518   0.125   0.1982
V155     V     0.5518   0.125   0.8018
V156     V     0.625   0.1982   0.9482
V157     V     0.5518   0.1982   0.875
V158     V     0.6982   0.125   0.9482
V159     V     0.625   0.0518   0.8018
V160     V     0.6982   0.0518   0.875
V161     V     0.6982   0.875   0.9482
V162     V     0.6982   0.9482   0.875
V163     V     0.625   0.9482   0.8018
V164     V     0.625   0.8018   0.9482
V165     V     0.5518   0.8018   0.875
V166     V     0.5518   0.875   0.8018
V167     V     0.5518   0.8018   0.125
V168     V     0.6982   0.9482   0.125
V169     V     0.5518   0.875   0.1982
V170     V     0.625   0.9482   0.1982
V171     V     0.625   0.8018   0.0518
V172     V     0.6982   0.875   0.0518
V173     V     0.375   0.1982   0.0518
V174     V     0.4482   0.125   0.1982
V175     V     0.4482   0.1982   0.125
V176     V     0.375   0.0518   0.1982
V177     V     0.3018   0.0518   0.125
V178     V     0.3018   0.125   0.0518
Er179     Er     0.0   0.2134   0.7134
Er180     Er     0.0   0.2866   0.7866
Er181     Er     0.2134   0.0   0.7134
Er182     Er     0.2866   0.0   0.7866
Er183     Er     0.2134   0.0   0.2866
Er184     Er     0.2866   0.0   0.2134
Er185     Er     0.0   0.2134   0.2866
Er186     Er     0.0   0.2866   0.2134
Er187     Er     0.7134   0.2866   0.5
Er188     Er     0.7866   0.2134   0.5
Er189     Er     0.2866   0.2866   0.5
Er190     Er     0.2134   0.2134   0.5
Er191     Er     0.2866   0.7134   0.5
Er192     Er     0.2134   0.7866   0.5
V193     V     0.1982   0.9482   0.375
V194     V     0.125   0.9482   0.3018
V195     V     0.0518   0.875   0.3018
V196     V     0.0518   0.8018   0.375
V197     V     0.125   0.8018   0.4482
V198     V     0.1982   0.875   0.4482
V199     V     0.8018   0.9482   0.375
V200     V     0.875   0.8018   0.4482
V201     V     0.8018   0.875   0.4482
V202     V     0.9482   0.8018   0.375
V203     V     0.875   0.9482   0.3018
V204     V     0.9482   0.875   0.3018
V205     V     0.9482   0.1982   0.375
V206     V     0.9482   0.125   0.3018
V207     V     0.875   0.0518   0.3018
V208     V     0.8018   0.0518   0.375
V209     V     0.8018   0.125   0.4482
V210     V     0.875   0.1982   0.4482
V211     V     0.125   0.0518   0.6982
V212     V     0.1982   0.0518   0.625
V213     V     0.0518   0.1982   0.625
V214     V     0.0518   0.125   0.6982
V215     V     0.1982   0.125   0.5518
V216     V     0.125   0.1982   0.5518
V217     V     0.125   0.8018   0.5518
V218     V     0.1982   0.9482   0.625
V219     V     0.1982   0.875   0.5518
V220     V     0.125   0.9482   0.6982
V221     V     0.0518   0.8018   0.625
V222     V     0.0518   0.875   0.6982
V223     V     0.875   0.9482   0.6982
V224     V     0.9482   0.875   0.6982
V225     V     0.9482   0.8018   0.625
V226     V     0.8018   0.9482   0.625
V227     V     0.8018   0.875   0.5518
V228     V     0.875   0.8018   0.5518
V229     V     0.8018   0.125   0.5518
V230     V     0.9482   0.125   0.6982
V231     V     0.875   0.1982   0.5518
V232     V     0.9482   0.1982   0.625
V233     V     0.8018   0.0518   0.625
V234     V     0.875   0.0518   0.6982
V235     V     0.1982   0.0518   0.375
V236     V     0.125   0.1982   0.4482
V237     V     0.1982   0.125   0.4482
V238     V     0.0518   0.1982   0.375
V239     V     0.0518   0.125   0.3018
V240     V     0.125   0.0518   0.3018
loop_
_geom_bond_atom_site_label_1
_geom_bond_atom_site_label_2
_geom_bond_distance
_geom_bond_site_symmetry_2
_ccdc_geom_bond_type
Er1     Er2    10.0   .     S
Er1     V172    10.0   .     S
Er1     V171    10.0   .     S
Er1     V161    10.0   1_554     S
Er1     V164    10.0   1_554     S
Er2     V100    10.0   .     S
Er2     V99    10.0   .     S
Er2     V112    10.0   1_554     S
Er2     V107    10.0   1_554     S
Er3     Er4    10.0   .     S
Er3     V234    10.0   .     S
Er3     V233    10.0   .     S
Er3     V223    10.0   1_545     S
Er3     V226    10.0   1_545     S
Er4     V160    10.0   .     S
Er4     V159    10.0   .     S
Er4     V162    10.0   1_545     S
Er4     V163    10.0   1_545     S
Er5     Er6    10.0   .     S
Er5     V222    10.0   .     S
Er5     V221    10.0   .     S
Er5     V224    10.0   1_455     S
Er5     V225    10.0   1_455     S
Er6     V106    10.0   .     S
Er6     V105    10.0   .     S
Er6     V111    10.0   1_455     S
Er6     V108    10.0   1_455     S
Er7     Er8    10.0   .     S
Er7     V38    10.0   .     S
Er7     V40    10.0   .     S
Er7     V25    10.0   .     S
Er7     V26    10.0   .     S
Er8     V165    10.0   .     S
Er8     V166    10.0   .     S
Er8     V138    10.0   .     S
Er8     V139    10.0   .     S
Er9     Er10    10.0   .     S
Er9     V39    10.0   .     S
Er9     V31    10.0   .     S
Er9     V32    10.0   .     S
Er9     V42    10.0   .     S
Er10     V227    10.0   .     S
Er10     V228    10.0   .     S
Er10     V200    10.0   .     S
Er10     V201    10.0   .     S
Er11     Er12    10.0   .     S
Er11     V37    10.0   .     S
Er11     V43    10.0   .     S
Er11     V44    10.0   .     S
Er11     V41    10.0   .     S
Er12     V110    10.0   .     S
Er12     V109    10.0   .     S
Er12     V79    10.0   .     S
Er12     V78    10.0   .     S
V13     V18    10.0   .     S
V13     V14    10.0   .     S
V13     Er67    10.0   .     S
V13     V58    10.001   .     S
V14     V17    10.0   .     S
V14     Er67    10.0   .     S
V14     V57    10.001   .     S
V15     V33    10.001   .     S
V15     V18    10.0   .     S
V15     V16    10.0   .     S
V15     Er127    10.0   .     S
V16     V28    10.001   .     S
V16     V17    10.0   .     S
V16     Er191    10.0   .     S
V17     V29    10.001   .     S
V17     Er191    10.0   .     S
V18     V36    10.001   .     S
V18     Er127    10.0   .     S
V19     V24    10.0   .     S
V19     V20    10.0   .     S
V19     Er189    10.0   .     S
V19     V60    10.001   .     S
V20     V23    10.0   .     S
V20     Er189    10.0   .     S
V20     V59    10.001   .     S
V21     V45    10.001   .     S
V21     V24    10.0   .     S
V21     V22    10.0   .     S
V21     Er129    10.0   .     S
V22     V27    10.001   .     S
V22     V23    10.0   .     S
V22     Er69    10.0   .     S
V23     V30    10.001   .     S
V23     Er69    10.0   .     S
V24     V48    10.001   .     S
V24     Er129    10.0   .     S
V25     V40    10.001   .     S
V25     V26    10.0   .     S
V25     V28    10.0   .     S
V26     V38    10.001   .     S
V26     V27    10.0   .     S
V27     Er69    10.0   .     S
V27     V30    10.0   .     S
V28     Er191    10.0   .     S
V28     V29    10.0   .     S
V29     Er191    10.0   .     S
V29     V30    10.0   .     S
V30     Er69    10.0   .     S
V31     V32    10.0   .     S
V31     V34    10.0   .     S
V31     V42    10.001   .     S
V32     V39    10.001   .     S
V32     V33    10.0   .     S
V33     Er127    10.0   .     S
V33     V36    10.0   .     S
V34     Er65    10.0   .     S
V34     V52    10.001   .     S
V34     V35    10.0   .     S
V35     V36    10.0   .     S
V35     Er65    10.0   .     S
V35     V53    10.001   .     S
V36     Er127    10.0   .     S
V37     V38    10.0   .     S
V37     V41    10.0   .     S
V37     V44    10.001   .     S
V38     V40    10.0   .     S
V39     V40    10.0   .     S
V39     V42    10.0   .     S
V41     V42    10.0   .     S
V41     V43    10.001   .     S
V43     V44    10.0   .     S
V43     V46    10.0   .     S
V44     V45    10.0   .     S
V45     Er129    10.0   .     S
V45     V48    10.0   .     S
V46     Er187    10.0   .     S
V46     V51    10.001   .     S
V46     V47    10.0   .     S
V47     V48    10.0   .     S
V47     Er187    10.0   .     S
V47     V54    10.001   .     S
V48     Er129    10.0   .     S
V49     V53    10.0   .     S
V49     V50    10.0   .     S
V49     Er125    10.0   .     S
V49     V56    10.001   .     S
V50     V54    10.0   .     S
V50     Er125    10.0   .     S
V50     V55    10.001   .     S
V51     V54    10.0   .     S
V51     V52    10.0   .     S
V51     Er187    10.0   .     S
V52     V53    10.0   .     S
V52     Er65    10.0   .     S
V53     Er65    10.0   .     S
V54     Er187    10.0   .     S
V55     V56    10.0   .     S
V55     V60    10.0   .     S
V55     Er125    10.0   .     S
V56     V58    10.0   .     S
V56     Er125    10.0   .     S
V57     V58    10.0   .     S
V57     V59    10.0   .     S
V57     Er67    10.0   .     S
V58     Er67    10.0   .     S
V59     V60    10.0   .     S
V59     Er189    10.0   .     S
V60     Er189    10.0   .     S
Er61     Er62    10.0   .     S
Er61     V90    10.0   .     S
Er61     V102    10.0   1_554     S
Er61     V89    10.0   .     S
Er61     V104    10.0   1_554     S
Er62     V145    10.0   .     S
Er62     V141    10.0   1_554     S
Er62     V146    10.0   .     S
Er62     V137    10.0   1_554     S
Er63     Er64    10.0   .     S
Er63     V91    10.0   .     S
Er63     V96    10.0   1_455     S
Er63     V92    10.0   .     S
Er63     V98    10.0   1_455     S
Er64     V195    10.0   .     S
Er64     V204    10.0   1_455     S
Er64     V196    10.0   .     S
Er64     V202    10.0   1_455     S
Er65     Er66    10.0   .     S
Er66     V95    10.0   .     S
Er66     V97    10.0   .     S
Er66     V88    10.0   .     S
Er66     V87    10.0   .     S
Er67     Er68    10.0   .     S
Er68     V93    10.0   .     S
Er68     V94    10.0   .     S
Er68     V115    10.0   .     S
Er68     V114    10.0   .     S
Er69     Er70    10.0   .     S
Er70     V101    10.0   .     S
Er70     V103    10.0   .     S
Er70     V76    10.0   .     S
Er70     V75    10.0   .     S
V71     V76    10.0   .     S
V71     V72    10.0   .     S
V71     V116    10.001   1_556     S
V71     Er122    10.0   1_556     S
V72     V73    10.0   .     S
V72     V117    10.001   1_556     S
V72     Er122    10.0   1_556     S
V73     V74    10.0   .     S
V73     Er180    10.0   .     S
V73     V82    10.001   1_455     S
V74     V75    10.0   .     S
V74     Er180    10.0   .     S
V74     V77    10.001   1_455     S
V75     V101    10.001   .     S
V75     V76    10.0   .     S
V76     V103    10.001   .     S
V77     V82    10.0   .     S
V77     V79    10.0   .     S
V77     V74    10.001   1_655     S
V77     Er180    10.0   1_655     S
V78     V110    10.001   .     S
V78     V79    10.0   .     S
V78     V80    10.0   .     S
V79     V109    10.001   .     S
V80     V81    10.0   .     S
V80     V86    10.001   1_556     S
V80     Er120    10.0   1_556     S
V81     V82    10.0   .     S
V81     V85    10.001   1_556     S
V81     Er120    10.0   1_556     S
V82     V73    10.001   1_655     S
V82     Er180    10.0   1_655     S
V83     V88    10.0   .     S
V83     V84    10.0   .     S
V83     V113    10.001   1_655     S
V83     Er186    10.0   1_655     S
V84     V85    10.0   .     S
V84     V118    10.001   1_655     S
V84     Er186    10.0   1_655     S
V85     V86    10.0   .     S
V85     Er120    10.0   .     S
V85     V81    10.001   1_554     S
V86     V87    10.0   .     S
V86     Er120    10.0   .     S
V86     V80    10.001   1_554     S
V87     V95    10.001   .     S
V87     V88    10.0   .     S
V88     V97    10.001   .     S
V89     V90    10.0   .     S
V89     V92    10.0   .     S
V89     V104    10.001   1_554     S
V90     V93    10.0   .     S
V90     V102    10.001   1_554     S
V91     V92    10.0   .     S
V91     V94    10.0   .     S
V91     V96    10.001   1_455     S
V92     V98    10.001   1_455     S
V93     V114    10.001   .     S
V93     V94    10.0   .     S
V94     V115    10.001   .     S
V95     V97    10.0   .     S
V95     V99    10.0   .     S
V96     V91    10.001   1_655     S
V96     V97    10.0   .     S
V96     V98    10.0   .     S
V96     Er63    10.0   1_655     S
V98     V100    10.0   .     S
V98     V92    10.001   1_655     S
V98     Er63    10.0   1_655     S
V99     V100    10.0   .     S
V99     V107    10.001   1_554     S
V100     V112    10.001   1_554     S
V101     V103    10.0   .     S
V101     V105    10.0   .     S
V102     V90    10.001   1_556     S
V102     V103    10.0   .     S
V102     V104    10.0   .     S
V102     Er61    10.0   1_556     S
V104     V106    10.0   .     S
V104     V89    10.001   1_556     S
V104     Er61    10.0   1_556     S
V105     V106    10.0   .     S
V105     V108    10.001   1_455     S
V106     V111    10.001   1_455     S
V107     V99    10.001   1_556     S
V107     V112    10.0   .     S
V107     V110    10.0   .     S
V107     Er2    10.0   1_556     S
V108     V105    10.001   1_655     S
V108     V111    10.0   .     S
V108     V109    10.0   .     S
V108     Er6    10.0   1_655     S
V109     V110    10.0   .     S
V111     V106    10.001   1_655     S
V111     V112    10.0   .     S
V111     Er6    10.0   1_655     S
V112     V100    10.001   1_556     S
V112     Er2    10.0   1_556     S
V113     V118    10.0   .     S
V113     V115    10.0   .     S
V113     Er186    10.0   .     S
V113     V83    10.001   1_455     S
V114     V115    10.0   .     S
V114     V116    10.0   .     S
V116     V117    10.0   .     S
V116     Er122    10.0   .     S
V116     V71    10.001   1_554     S
V117     V118    10.0   .     S
V117     Er122    10.0   .     S
V117     V72    10.001   1_554     S
V118     Er186    10.0   .     S
V118     V84    10.001   1_455     S
Er119     Er120    10.0   .     S
Er119     V150    10.0   .     S
Er119     V156    10.0   1_554     S
Er119     V149    10.0   .     S
Er119     V158    10.0   1_554     S
Er120     V81    10.0   1_554     S
Er120     V80    10.0   1_554     S
Er121     Er122    10.0   .     S
Er121     V173    10.0   .     S
Er121     V131    10.0   1_554     S
Er121     V178    10.0   .     S
Er121     V132    10.0   1_554     S
Er122     V71    10.0   1_554     S
Er122     V72    10.0   1_554     S
Er123     Er124    10.0   .     S
Er123     V151    10.0   .     S
Er123     V170    10.0   1_545     S
Er123     V152    10.0   .     S
Er123     V168    10.0   1_545     S
Er124     V207    10.0   .     S
Er124     V203    10.0   1_545     S
Er124     V208    10.0   .     S
Er124     V199    10.0   1_545     S
Er125     Er126    10.0   .     S
Er126     V153    10.0   .     S
Er126     V154    10.0   .     S
Er126     V174    10.0   .     S
Er126     V175    10.0   .     S
Er127     Er128    10.0   .     S
Er128     V167    10.0   .     S
Er128     V169    10.0   .     S
Er128     V148    10.0   .     S
Er128     V147    10.0   .     S
Er129     Er130    10.0   .     S
Er130     V155    10.0   .     S
Er130     V157    10.0   .     S
Er130     V136    10.0   .     S
Er130     V135    10.0   .     S
V131     V136    10.0   .     S
V131     V132    10.0   .     S
V131     V173    10.001   1_556     S
V131     Er121    10.0   1_556     S
V132     V133    10.0   .     S
V132     V178    10.001   1_556     S
V132     Er121    10.0   1_556     S
V133     V134    10.0   .     S
V133     Er182    10.0   .     S
V133     V142    10.001   1_545     S
V134     V135    10.0   .     S
V134     Er182    10.0   .     S
V134     V140    10.001   1_545     S
V135     V155    10.001   .     S
V135     V136    10.0   .     S
V136     V157    10.001   .     S
V137     V141    10.0   .     S
V137     V139    10.0   .     S
V137     V146    10.001   1_556     S
V137     Er62    10.0   1_556     S
V138     V166    10.001   .     S
V138     V139    10.0   .     S
V138     V140    10.0   .     S
V139     V165    10.001   .     S
V140     V142    10.0   .     S
V140     V134    10.001   1_565     S
V140     Er182    10.0   1_565     S
V141     V142    10.0   .     S
V141     V145    10.001   1_556     S
V141     Er62    10.0   1_556     S
V142     V133    10.001   1_565     S
V142     Er182    10.0   1_565     S
V143     V148    10.0   .     S
V143     V144    10.0   .     S
V143     V176    10.001   1_565     S
V143     Er184    10.0   1_565     S
V144     V145    10.0   .     S
V144     V177    10.001   1_565     S
V144     Er184    10.0   1_565     S
V145     V146    10.0   .     S
V145     V141    10.001   1_554     S
V146     V147    10.0   .     S
V146     V137    10.001   1_554     S
V147     V167    10.001   .     S
V147     V148    10.0   .     S
V148     V169    10.001   .     S
V149     V150    10.0   .     S
V149     V152    10.0   .     S
V149     V158    10.001   1_554     S
V150     V153    10.0   .     S
V150     V156    10.001   1_554     S
V151     V152    10.0   .     S
V151     V154    10.0   .     S
V151     V170    10.001   1_545     S
V152     V168    10.001   1_545     S
V153     V175    10.001   .     S
V153     V154    10.0   .     S
V154     V174    10.001   .     S
V155     V157    10.0   .     S
V155     V159    10.0   .     S
V156     V150    10.001   1_556     S
V156     V157    10.0   .     S
V156     V158    10.0   .     S
V156     Er119    10.0   1_556     S
V158     V160    10.0   .     S
V158     V149    10.001   1_556     S
V158     Er119    10.0   1_556     S
V159     V160    10.0   .     S
V159     V163    10.001   1_545     S
V160     V162    10.001   1_545     S
V161     V162    10.0   .     S
V161     V164    10.0   .     S
V161     V172    10.001   1_556     S
V161     Er1    10.0   1_556     S
V162     V160    10.001   1_565     S
V162     V163    10.0   .     S
V162     Er4    10.0   1_565     S
V163     V159    10.001   1_565     S
V163     V166    10.0   .     S
V163     Er4    10.0   1_565     S
V164     V165    10.0   .     S
V164     V171    10.001   1_556     S
V164     Er1    10.0   1_556     S
V165     V166    10.0   .     S
V167     V169    10.0   .     S
V167     V171    10.0   .     S
V168     V172    10.0   .     S
V168     V170    10.0   .     S
V168     V152    10.001   1_565     S
V168     Er123    10.0   1_565     S
V169     V170    10.0   .     S
V170     V151    10.001   1_565     S
V170     Er123    10.0   1_565     S
V171     V172    10.0   .     S
V171     V164    10.001   1_554     S
V172     V161    10.001   1_554     S
V173     V178    10.0   .     S
V173     V175    10.0   .     S
V173     V131    10.001   1_554     S
V174     V175    10.0   .     S
V174     V176    10.0   .     S
V176     V177    10.0   .     S
V176     Er184    10.0   .     S
V176     V143    10.001   1_545     S
V177     V178    10.0   .     S
V177     Er184    10.0   .     S
V177     V144    10.001   1_545     S
V178     V132    10.001   1_554     S
Er179     Er180    10.0   .     S
Er179     V213    10.0   .     S
Er179     V232    10.0   1_455     S
Er179     V214    10.0   .     S
Er179     V230    10.0   1_455     S
Er180     V82    10.0   1_455     S
Er180     V77    10.0   1_455     S
Er181     Er182    10.0   .     S
Er181     V212    10.0   .     S
Er181     V218    10.0   1_545     S
Er181     V211    10.0   .     S
Er181     V220    10.0   1_545     S
Er182     V142    10.0   1_545     S
Er182     V140    10.0   1_545     S
Er183     Er184    10.0   .     S
Er183     V235    10.0   .     S
Er183     V193    10.0   1_545     S
Er183     V240    10.0   .     S
Er183     V194    10.0   1_545     S
Er184     V143    10.0   1_545     S
Er184     V144    10.0   1_545     S
Er185     Er186    10.0   .     S
Er185     V238    10.0   .     S
Er185     V205    10.0   1_455     S
Er185     V239    10.0   .     S
Er185     V206    10.0   1_455     S
Er186     V83    10.0   1_455     S
Er186     V84    10.0   1_455     S
Er187     Er188    10.0   .     S
Er188     V229    10.0   .     S
Er188     V231    10.0   .     S
Er188     V210    10.0   .     S
Er188     V209    10.0   .     S
Er189     Er190    10.0   .     S
Er190     V215    10.0   .     S
Er190     V216    10.0   .     S
Er190     V236    10.0   .     S
Er190     V237    10.0   .     S
Er191     Er192    10.0   .     S
Er192     V217    10.0   .     S
Er192     V219    10.0   .     S
Er192     V198    10.0   .     S
Er192     V197    10.0   .     S
V193     V198    10.0   .     S
V193     V194    10.0   .     S
V193     V235    10.001   1_565     S
V193     Er183    10.0   1_565     S
V194     V195    10.0   .     S
V194     V240    10.001   1_565     S
V194     Er183    10.0   1_565     S
V195     V196    10.0   .     S
V195     V204    10.001   1_455     S
V196     V197    10.0   .     S
V196     V202    10.001   1_455     S
V197     V217    10.001   .     S
V197     V198    10.0   .     S
V198     V219    10.001   .     S
V199     V203    10.0   .     S
V199     V201    10.0   .     S
V199     V208    10.001   1_565     S
V199     Er124    10.0   1_565     S
V200     V228    10.001   .     S
V200     V201    10.0   .     S
V200     V202    10.0   .     S
V201     V227    10.001   .     S
V202     V204    10.0   .     S
V202     V196    10.001   1_655     S
V202     Er64    10.0   1_655     S
V203     V204    10.0   .     S
V203     V207    10.001   1_565     S
V203     Er124    10.0   1_565     S
V204     V195    10.001   1_655     S
V204     Er64    10.0   1_655     S
V205     V210    10.0   .     S
V205     V206    10.0   .     S
V205     V238    10.001   1_655     S
V205     Er185    10.0   1_655     S
V206     V207    10.0   .     S
V206     V239    10.001   1_655     S
V206     Er185    10.0   1_655     S
V207     V208    10.0   .     S
V207     V203    10.001   1_545     S
V208     V209    10.0   .     S
V208     V199    10.001   1_545     S
V209     V229    10.001   .     S
V209     V210    10.0   .     S
V210     V231    10.001   .     S
V211     V212    10.0   .     S
V211     V214    10.0   .     S
V211     V220    10.001   1_545     S
V212     V215    10.0   .     S
V212     V218    10.001   1_545     S
V213     V214    10.0   .     S
V213     V216    10.0   .     S
V213     V232    10.001   1_455     S
V214     V230    10.001   1_455     S
V215     V237    10.001   .     S
V215     V216    10.0   .     S
V216     V236    10.001   .     S
V217     V219    10.0   .     S
V217     V221    10.0   .     S
V218     V212    10.001   1_565     S
V218     V219    10.0   .     S
V218     V220    10.0   .     S
V218     Er181    10.0   1_565     S
V220     V222    10.0   .     S
V220     V211    10.001   1_565     S
V220     Er181    10.0   1_565     S
V221     V222    10.0   .     S
V221     V225    10.001   1_455     S
V222     V224    10.001   1_455     S
V223     V224    10.0   .     S
V223     V226    10.0   .     S
V223     V234    10.001   1_565     S
V223     Er3    10.0   1_565     S
V224     V222    10.001   1_655     S
V224     V225    10.0   .     S
V224     Er5    10.0   1_655     S
V225     V221    10.001   1_655     S
V225     V228    10.0   .     S
V225     Er5    10.0   1_655     S
V226     V227    10.0   .     S
V226     V233    10.001   1_565     S
V226     Er3    10.0   1_565     S
V227     V228    10.0   .     S
V229     V231    10.0   .     S
V229     V233    10.0   .     S
V230     V234    10.0   .     S
V230     V232    10.0   .     S
V230     V214    10.001   1_655     S
V230     Er179    10.0   1_655     S
V231     V232    10.0   .     S
V232     V213    10.001   1_655     S
V232     Er179    10.0   1_655     S
V233     V234    10.0   .     S
V233     V226    10.001   1_545     S
V234     V223    10.001   1_545     S
V235     V240    10.0   .     S
V235     V237    10.0   .     S
V235     V193    10.001   1_545     S
V236     V237    10.0   .     S
V236     V238    10.0   .     S
V238     V239    10.0   .     S
V238     V205    10.001   1_455     S
V239     V240    10.0   .     S
V239     V206    10.001   1_455     S
V240     V194    10.001   1_545     S
