data_ucp
_audit_creation_date              2020-02-04
_audit_creation_method            'Pymatgen'
_symmetry_space_group_name_H-M    'P1'
_symmetry_Int_Tables_number       1
loop_
_symmetry_equiv_pos_as_xyz
  x,y,z
_cell_length_a                    44.641
_cell_length_b                    44.641
_cell_length_c                    44.641
_cell_angle_alpha                 90.0
_cell_angle_beta                 90.0
_cell_angle_gamma                 90.0
loop_
_atom_site_label
_atom_site_type_symbol
_atom_site_fract_x
_atom_site_fract_y
_atom_site_fract_z
Er1     Er     0.7587   0.5   0.7587
Er2     Er     0.5   0.7587   0.7587
Er3     Er     0.7587   0.7587   0.5
V4     V     0.3706   0.888   0.3706
V5     V     0.3706   0.112   0.3706
Er6     Er     0.5   0.2413   0.2413
V7     V     0.6294   0.888   0.3706
V8     V     0.6294   0.112   0.3706
Er9     Er     0.7587   0.2413   0.5
V10     V     0.6294   0.888   0.6294
V11     V     0.6294   0.112   0.6294
V12     V     0.3706   0.888   0.6294
V13     V     0.3706   0.112   0.6294
Er14     Er     0.5   0.2413   0.7587
Er15     Er     0.2413   0.2413   0.5
V16     V     0.6294   0.3706   0.888
V17     V     0.6294   0.3706   0.112
Er18     Er     0.7587   0.5   0.2413
V19     V     0.6294   0.6294   0.888
V20     V     0.6294   0.6294   0.112
V21     V     0.3706   0.6294   0.888
V22     V     0.3706   0.6294   0.112
Er23     Er     0.5   0.7587   0.2413
V24     V     0.3706   0.3706   0.888
V25     V     0.3706   0.3706   0.112
V26     V     0.888   0.3706   0.6294
V27     V     0.112   0.3706   0.6294
Er28     Er     0.2413   0.5   0.7587
V29     V     0.888   0.6294   0.6294
V30     V     0.112   0.6294   0.6294
Er31     Er     0.2413   0.7587   0.5
V32     V     0.888   0.6294   0.3706
V33     V     0.112   0.6294   0.3706
V34     V     0.888   0.3706   0.3706
V35     V     0.112   0.3706   0.3706
Er36     Er     0.2413   0.5   0.2413
loop_
_geom_bond_atom_site_label_1
_geom_bond_atom_site_label_2
_geom_bond_distance
_geom_bond_site_symmetry_2
_ccdc_geom_bond_type
Er1     V29    10.0   .     S
Er1     V16    10.0   .     S
Er1     V26    10.0   .     S
Er1     V19    10.0   .     S
Er2     V12    10.0   .     S
Er2     V19    10.0   .     S
Er2     V10    10.0   .     S
Er2     V21    10.0   .     S
Er3     V32    10.0   .     S
Er3     V10    10.0   .     S
Er3     V29    10.0   .     S
Er3     V7    10.0   .     S
V4     V5    10.0   1_565     S
V4     Er23    10.0   .     S
V4     Er31    10.0   .     S
V5     V4    10.0   1_545     S
V5     Er6    10.0   .     S
V5     Er15    10.0   .     S
Er6     V8    10.0   .     S
Er6     V17    10.0   .     S
Er6     V25    10.0   .     S
V7     V8    10.0   1_565     S
V7     Er23    10.0   .     S
V8     V7    10.0   1_545     S
V8     Er9    10.0   .     S
Er9     V11    10.0   .     S
Er9     V26    10.0   .     S
Er9     V34    10.0   .     S
V10     V11    10.0   1_565     S
V11     V10    10.0   1_545     S
V11     Er14    10.0   .     S
V12     V13    10.0   1_565     S
V12     Er31    10.0   .     S
V13     V12    10.0   1_545     S
V13     Er14    10.0   .     S
V13     Er15    10.0   .     S
Er14     V24    10.0   .     S
Er14     V16    10.0   .     S
Er15     V35    10.0   .     S
Er15     V27    10.0   .     S
V16     V17    10.0   1_556     S
V17     V16    10.0   1_554     S
V17     Er18    10.0   .     S
Er18     V20    10.0   .     S
Er18     V34    10.0   .     S
Er18     V32    10.0   .     S
V19     V20    10.0   1_556     S
V20     V19    10.0   1_554     S
V20     Er23    10.0   .     S
V21     V22    10.0   1_556     S
V21     Er28    10.0   .     S
V22     V21    10.0   1_554     S
V22     Er23    10.0   .     S
V22     Er36    10.0   .     S
V24     V25    10.0   1_556     S
V24     Er28    10.0   .     S
V25     V24    10.0   1_554     S
V25     Er36    10.0   .     S
V26     V27    10.0   1_655     S
V27     V26    10.0   1_455     S
V27     Er28    10.0   .     S
Er28     V30    10.0   .     S
V29     V30    10.0   1_655     S
V30     V29    10.0   1_455     S
V30     Er31    10.0   .     S
Er31     V33    10.0   .     S
V32     V33    10.0   1_655     S
V33     V32    10.0   1_455     S
V33     Er36    10.0   .     S
V34     V35    10.0   1_655     S
V35     V34    10.0   1_455     S
V35     Er36    10.0   .     S
