data_ucpa
_audit_creation_date              2020-02-04
_audit_creation_method            'Pymatgen'
_symmetry_space_group_name_H-M    'P1'
_symmetry_Int_Tables_number       1
loop_
_symmetry_equiv_pos_as_xyz
  x,y,z
_cell_length_a                    100.2481
_cell_length_b                    100.2481
_cell_length_c                    100.2481
_cell_angle_alpha                 90.0
_cell_angle_beta                 90.0
_cell_angle_gamma                 90.0
loop_
_atom_site_label
_atom_site_type_symbol
_atom_site_fract_x
_atom_site_fract_y
_atom_site_fract_z
Er1     Er     0.3225   0.1363   0.393
Er2     Er     0.393   0.1363   0.3225
Ti3     Ti     0.3576   0.0499   0.3576
Er4     Er     0.6775   0.1363   0.393
Er5     Er     0.607   0.1363   0.3225
Ti6     Ti     0.6424   0.0499   0.3576
Er7     Er     0.6775   0.393   0.1363
Er8     Er     0.607   0.3225   0.1363
Ti9     Ti     0.6424   0.3576   0.0499
V10     V     0.4501   0.1938   0.2643
V11     V     0.5499   0.1938   0.2643
V12     V     0.4501   0.2643   0.1938
V13     V     0.5499   0.2643   0.1938
Er14     Er     0.393   0.3225   0.1363
Er15     Er     0.3225   0.393   0.1363
Ti16     Ti     0.3576   0.3576   0.0499
Er17     Er     0.393   0.6775   0.1363
Er18     Er     0.3225   0.607   0.1363
Ti19     Ti     0.3576   0.6424   0.0499
Er20     Er     0.1363   0.6775   0.393
Er21     Er     0.1363   0.607   0.3225
Ti22     Ti     0.0499   0.6424   0.3576
V23     V     0.2643   0.4501   0.1938
V24     V     0.2643   0.5499   0.1938
V25     V     0.1938   0.4501   0.2643
V26     V     0.1938   0.5499   0.2643
Er27     Er     0.1363   0.393   0.3225
Er28     Er     0.1363   0.3225   0.393
Ti29     Ti     0.0499   0.3576   0.3576
Er30     Er     0.1363   0.393   0.6775
Er31     Er     0.1363   0.3225   0.607
Ti32     Ti     0.0499   0.3576   0.6424
Er33     Er     0.393   0.1363   0.6775
Er34     Er     0.3225   0.1363   0.607
Ti35     Ti     0.3576   0.0499   0.6424
V36     V     0.2643   0.1938   0.4501
V37     V     0.2643   0.1938   0.5499
V38     V     0.1938   0.2643   0.4501
V39     V     0.1938   0.2643   0.5499
Er40     Er     0.8637   0.6775   0.607
Er41     Er     0.8637   0.607   0.6775
Ti42     Ti     0.9501   0.6424   0.6424
V43     V     0.8062   0.4501   0.7357
V44     V     0.8062   0.5499   0.7357
V45     V     0.7357   0.4501   0.8062
V46     V     0.7357   0.5499   0.8062
Er47     Er     0.6775   0.607   0.8637
Er48     Er     0.607   0.6775   0.8637
Ti49     Ti     0.6424   0.6424   0.9501
V50     V     0.4501   0.7357   0.8062
V51     V     0.5499   0.7357   0.8062
V52     V     0.4501   0.8062   0.7357
V53     V     0.5499   0.8062   0.7357
Er54     Er     0.607   0.8637   0.6775
Er55     Er     0.6775   0.8637   0.607
Ti56     Ti     0.6424   0.9501   0.6424
V57     V     0.7357   0.8062   0.4501
V58     V     0.7357   0.8062   0.5499
V59     V     0.8062   0.7357   0.4501
V60     V     0.8062   0.7357   0.5499
Er61     Er     0.6775   0.1363   0.607
Er62     Er     0.607   0.1363   0.6775
Ti63     Ti     0.6424   0.0499   0.6424
Er64     Er     0.6775   0.393   0.8637
Er65     Er     0.607   0.3225   0.8637
Ti66     Ti     0.6424   0.3576   0.9501
V67     V     0.4501   0.1938   0.7357
V68     V     0.5499   0.1938   0.7357
V69     V     0.4501   0.2643   0.8062
V70     V     0.5499   0.2643   0.8062
Er71     Er     0.393   0.3225   0.8637
Er72     Er     0.3225   0.393   0.8637
Ti73     Ti     0.3576   0.3576   0.9501
Er74     Er     0.393   0.6775   0.8637
Er75     Er     0.3225   0.607   0.8637
Ti76     Ti     0.3576   0.6424   0.9501
V77     V     0.2643   0.4501   0.8062
V78     V     0.2643   0.5499   0.8062
V79     V     0.1938   0.4501   0.7357
V80     V     0.1938   0.5499   0.7357
Er81     Er     0.1363   0.607   0.6775
Er82     Er     0.1363   0.6775   0.607
Ti83     Ti     0.0499   0.6424   0.6424
Er84     Er     0.393   0.8637   0.6775
Er85     Er     0.3225   0.8637   0.607
Ti86     Ti     0.3576   0.9501   0.6424
V87     V     0.1938   0.7357   0.4501
V88     V     0.1938   0.7357   0.5499
V89     V     0.2643   0.8062   0.4501
V90     V     0.2643   0.8062   0.5499
Er91     Er     0.3225   0.8637   0.393
Er92     Er     0.393   0.8637   0.3225
Ti93     Ti     0.3576   0.9501   0.3576
Er94     Er     0.6775   0.8637   0.393
Er95     Er     0.607   0.8637   0.3225
Ti96     Ti     0.6424   0.9501   0.3576
V97     V     0.4501   0.8062   0.2643
V98     V     0.5499   0.8062   0.2643
V99     V     0.4501   0.7357   0.1938
V100     V     0.5499   0.7357   0.1938
Er101     Er     0.607   0.6775   0.1363
Er102     Er     0.6775   0.607   0.1363
Ti103     Ti     0.6424   0.6424   0.0499
Er104     Er     0.8637   0.6775   0.393
Er105     Er     0.8637   0.607   0.3225
Ti106     Ti     0.9501   0.6424   0.3576
V107     V     0.7357   0.4501   0.1938
V108     V     0.7357   0.5499   0.1938
V109     V     0.8062   0.4501   0.2643
V110     V     0.8062   0.5499   0.2643
Er111     Er     0.8637   0.393   0.3225
Er112     Er     0.8637   0.3225   0.393
Ti113     Ti     0.9501   0.3576   0.3576
Er114     Er     0.8637   0.393   0.6775
Er115     Er     0.8637   0.3225   0.607
Ti116     Ti     0.9501   0.3576   0.6424
V117     V     0.8062   0.2643   0.4501
V118     V     0.8062   0.2643   0.5499
V119     V     0.7357   0.1938   0.4501
V120     V     0.7357   0.1938   0.5499
loop_
_geom_bond_atom_site_label_1
_geom_bond_atom_site_label_2
_geom_bond_distance
_geom_bond_site_symmetry_2
_ccdc_geom_bond_type
Er1     Ti3    9.999   .     S
Er1     Er2    9.999   .     S
Er1     V36    10.001   .     S
Er2     Ti3    9.999   .     S
Er2     V10    10.001   .     S
Ti3     Ti93    10.003   1_545     S
Er4     Ti6    9.999   .     S
Er4     Er5    9.999   .     S
Er4     V119    10.001   .     S
Er5     Ti6    9.999   .     S
Er5     V11    10.001   .     S
Ti6     Ti96    10.003   1_545     S
Er7     Ti9    9.999   .     S
Er7     Er8    9.999   .     S
Er7     V107    10.001   .     S
Er8     Ti9    9.999   .     S
Er8     V13    10.001   .     S
Ti9     Ti66    10.003   1_554     S
V10     V11    9.999   .     S
V10     V12    10.001   .     S
V11     V13    10.001   .     S
V12     V13    9.999   .     S
V12     Er14    10.001   .     S
Er14     Ti16    9.999   .     S
Er14     Er15    9.999   .     S
Er15     Ti16    9.999   .     S
Er15     V23    10.001   .     S
Ti16     Ti73    10.003   1_554     S
Er17     Ti19    9.999   .     S
Er17     Er18    9.999   .     S
Er17     V99    10.001   .     S
Er18     Ti19    9.999   .     S
Er18     V24    10.001   .     S
Ti19     Ti76    10.003   1_554     S
Er20     Ti22    9.999   .     S
Er20     Er21    9.999   .     S
Er20     V87    10.001   .     S
Er21     Ti22    9.999   .     S
Er21     V26    10.001   .     S
Ti22     Ti106    10.003   1_455     S
V23     V24    9.999   .     S
V23     V25    10.001   .     S
V24     V26    10.001   .     S
V25     V26    9.999   .     S
V25     Er27    10.001   .     S
Er27     Ti29    9.999   .     S
Er27     Er28    9.999   .     S
Er28     Ti29    9.999   .     S
Er28     V38    10.001   .     S
Ti29     Ti113    10.003   1_455     S
Er30     Ti32    9.999   .     S
Er30     Er31    9.999   .     S
Er30     V79    10.001   .     S
Er31     Ti32    9.999   .     S
Er31     V39    10.001   .     S
Ti32     Ti116    10.003   1_455     S
Er33     Ti35    9.999   .     S
Er33     Er34    9.999   .     S
Er33     V67    10.001   .     S
Er34     Ti35    9.999   .     S
Er34     V37    10.001   .     S
Ti35     Ti86    10.003   1_545     S
V36     V37    9.999   .     S
V36     V38    10.001   .     S
V37     V39    10.001   .     S
V38     V39    9.999   .     S
Er40     Ti42    9.999   .     S
Er40     Er41    9.999   .     S
Er40     V60    10.001   .     S
Er41     Ti42    9.999   .     S
Er41     V44    10.001   .     S
Ti42     Ti83    10.003   1_655     S
V43     V44    9.999   .     S
V43     V45    10.001   .     S
V43     Er114    10.001   .     S
V44     V46    10.001   .     S
V45     V46    9.999   .     S
V45     Er64    10.001   .     S
V46     Er47    10.001   .     S
Er47     Ti49    9.999   .     S
Er47     Er48    9.999   .     S
Er48     Ti49    9.999   .     S
Er48     V51    10.001   .     S
Ti49     Ti103    10.003   1_556     S
V50     V51    9.999   .     S
V50     V52    10.001   .     S
V50     Er74    10.001   .     S
V51     V53    10.001   .     S
V52     V53    9.999   .     S
V52     Er84    10.001   .     S
V53     Er54    10.001   .     S
Er54     Ti56    9.999   .     S
Er54     Er55    9.999   .     S
Er55     Ti56    9.999   .     S
Er55     V58    10.001   .     S
Ti56     Ti63    10.003   1_565     S
V57     V58    9.999   .     S
V57     V59    10.001   .     S
V57     Er94    10.001   .     S
V58     V60    10.001   .     S
V59     V60    9.999   .     S
V59     Er104    10.001   .     S
Er61     Ti63    9.999   .     S
Er61     Er62    9.999   .     S
Er61     V120    10.001   .     S
Er62     Ti63    9.999   .     S
Er62     V68    10.001   .     S
Ti63     Ti56    10.003   1_545     S
Er64     Ti66    9.999   .     S
Er64     Er65    9.999   .     S
Er65     Ti66    9.999   .     S
Er65     V70    10.001   .     S
Ti66     Ti9    10.003   1_556     S
V67     V68    9.999   .     S
V67     V69    10.001   .     S
V68     V70    10.001   .     S
V69     V70    9.999   .     S
V69     Er71    10.001   .     S
Er71     Ti73    9.999   .     S
Er71     Er72    9.999   .     S
Er72     Ti73    9.999   .     S
Er72     V77    10.001   .     S
Ti73     Ti16    10.003   1_556     S
Er74     Ti76    9.999   .     S
Er74     Er75    9.999   .     S
Er75     Ti76    9.999   .     S
Er75     V78    10.001   .     S
Ti76     Ti19    10.003   1_556     S
V77     V78    9.999   .     S
V77     V79    10.001   .     S
V78     V80    10.001   .     S
V79     V80    9.999   .     S
V80     Er81    10.001   .     S
Er81     Ti83    9.999   .     S
Er81     Er82    9.999   .     S
Er82     Ti83    9.999   .     S
Er82     V88    10.001   .     S
Ti83     Ti42    10.003   1_455     S
Er84     Ti86    9.999   .     S
Er84     Er85    9.999   .     S
Er85     Ti86    9.999   .     S
Er85     V90    10.001   .     S
Ti86     Ti35    10.003   1_565     S
V87     V88    9.999   .     S
V87     V89    10.001   .     S
V88     V90    10.001   .     S
V89     V90    9.999   .     S
V89     Er91    10.001   .     S
Er91     Ti93    9.999   .     S
Er91     Er92    9.999   .     S
Er92     Ti93    9.999   .     S
Er92     V97    10.001   .     S
Ti93     Ti3    10.003   1_565     S
Er94     Ti96    9.999   .     S
Er94     Er95    9.999   .     S
Er95     Ti96    9.999   .     S
Er95     V98    10.001   .     S
Ti96     Ti6    10.003   1_565     S
V97     V98    9.999   .     S
V97     V99    10.001   .     S
V98     V100    10.001   .     S
V99     V100    9.999   .     S
V100     Er101    10.001   .     S
Er101     Ti103    9.999   .     S
Er101     Er102    9.999   .     S
Er102     Ti103    9.999   .     S
Er102     V108    10.001   .     S
Ti103     Ti49    10.003   1_554     S
Er104     Ti106    9.999   .     S
Er104     Er105    9.999   .     S
Er105     Ti106    9.999   .     S
Er105     V110    10.001   .     S
Ti106     Ti22    10.003   1_655     S
V107     V108    9.999   .     S
V107     V109    10.001   .     S
V108     V110    10.001   .     S
V109     V110    9.999   .     S
V109     Er111    10.001   .     S
Er111     Ti113    9.999   .     S
Er111     Er112    9.999   .     S
Er112     Ti113    9.999   .     S
Er112     V117    10.001   .     S
Ti113     Ti29    10.003   1_655     S
Er114     Ti116    9.999   .     S
Er114     Er115    9.999   .     S
Er115     Ti116    9.999   .     S
Er115     V118    10.001   .     S
Ti116     Ti32    10.003   1_655     S
V117     V118    9.999   .     S
V117     V119    10.001   .     S
V118     V120    10.001   .     S
V119     V120    9.999   .     S
