data_ukj
_audit_creation_date              2020-02-04
_audit_creation_method            'Pymatgen'
_symmetry_space_group_name_H-M    'P1'
_symmetry_Int_Tables_number       1
loop_
_symmetry_equiv_pos_as_xyz
  x,y,z
_cell_length_a                    19.8483
_cell_length_b                    51.7942
_cell_length_c                    36.7418
_cell_angle_alpha                 90.0
_cell_angle_beta                 90.0
_cell_angle_gamma                 90.0
loop_
_atom_site_label
_atom_site_type_symbol
_atom_site_fract_x
_atom_site_fract_y
_atom_site_fract_z
V1     V     0.9115   0.1762   0.5097
V2     V     0.3385   0.0738   0.5097
V3     V     0.8385   0.1762   0.2404
V4     V     0.4115   0.0738   0.2404
V5     V     0.4115   0.1762   0.0096
V6     V     0.8385   0.0738   0.0096
V7     V     0.9115   0.0738   0.7404
V8     V     0.3385   0.1762   0.7404
V9     V     0.1615   0.9262   0.9904
V10     V     0.5885   0.8238   0.9904
V11     V     0.0885   0.9262   0.2596
V12     V     0.6615   0.8238   0.2596
V13     V     0.6615   0.9262   0.4904
V14     V     0.0885   0.8238   0.4904
V15     V     0.5885   0.9262   0.7597
V16     V     0.1615   0.8238   0.7597
V17     V     0.0885   0.3238   0.9904
V18     V     0.6615   0.4262   0.9904
V19     V     0.1615   0.3238   0.2596
V20     V     0.5885   0.4262   0.2596
V21     V     0.1615   0.4262   0.4904
V22     V     0.5885   0.3238   0.4904
V23     V     0.0885   0.4262   0.7597
V24     V     0.6615   0.3238   0.7597
V25     V     0.3385   0.5738   0.0096
V26     V     0.9115   0.6762   0.0096
V27     V     0.4115   0.5738   0.7404
V28     V     0.8385   0.6762   0.7404
V29     V     0.8385   0.5738   0.5097
V30     V     0.4115   0.6762   0.5097
V31     V     0.9115   0.5738   0.2404
V32     V     0.3385   0.6762   0.2404
loop_
_geom_bond_atom_site_label_1
_geom_bond_atom_site_label_2
_geom_bond_distance
_geom_bond_site_symmetry_2
_ccdc_geom_bond_type
V1     V2    10.0   1_655     S
V1     V3    10.0   .     S
V1     V7    10.0   .     S
V1     V22    10.0   .     S
V2     V1    10.0   1_455     S
V2     V4    10.0   .     S
V2     V8    10.0   .     S
V2     V13    10.0   1_545     S
V3     V4    10.0   .     S
V3     V6    10.0   .     S
V3     V19    10.0   1_655     S
V4     V5    10.0   .     S
V4     V11    10.0   1_545     S
V5     V6    10.0   .     S
V5     V8    10.0   1_554     S
V5     V17    10.0   1_554     S
V6     V7    10.0   1_554     S
V6     V9    10.0   1_644     S
V7     V8    10.0   1_655     S
V7     V6    10.0   1_556     S
V7     V15    10.0   1_545     S
V8     V7    10.0   1_455     S
V8     V5    10.0   1_556     S
V8     V24    10.0   .     S
V9     V10    10.0   .     S
V9     V11    10.0   1_556     S
V9     V16    10.0   .     S
V9     V6    10.0   1_466     S
V10     V12    10.0   1_556     S
V10     V15    10.0   .     S
V10     V26    10.0   1_556     S
V11     V12    10.0   1_455     S
V11     V9    10.0   1_554     S
V11     V14    10.0   .     S
V11     V4    10.0   1_565     S
V12     V11    10.0   1_655     S
V12     V10    10.0   1_554     S
V12     V13    10.0   .     S
V12     V32    10.0   .     S
V13     V14    10.0   1_655     S
V13     V15    10.0   .     S
V13     V2    10.0   1_565     S
V14     V13    10.0   1_455     S
V14     V16    10.0   .     S
V14     V30    10.0   .     S
V15     V16    10.0   .     S
V15     V7    10.0   1_565     S
V16     V28    10.0   1_455     S
V17     V18    10.0   1_455     S
V17     V19    10.0   1_556     S
V17     V23    10.0   .     S
V17     V5    10.0   1_556     S
V18     V17    10.0   1_655     S
V18     V20    10.0   1_556     S
V18     V24    10.0   .     S
V18     V25    10.0   1_556     S
V19     V20    10.0   .     S
V19     V17    10.0   1_554     S
V19     V21    10.0   .     S
V19     V3    10.0   1_455     S
V20     V18    10.0   1_554     S
V20     V22    10.0   .     S
V20     V31    10.0   .     S
V21     V22    10.0   .     S
V21     V23    10.0   .     S
V21     V29    10.0   1_455     S
V22     V24    10.0   .     S
V23     V24    10.0   1_455     S
V23     V27    10.0   .     S
V24     V23    10.0   1_655     S
V25     V26    10.0   1_455     S
V25     V27    10.0   1_554     S
V25     V32    10.0   .     S
V25     V18    10.0   1_554     S
V26     V10    10.0   1_554     S
V26     V25    10.0   1_655     S
V26     V28    10.0   1_554     S
V26     V31    10.0   .     S
V27     V28    10.0   .     S
V27     V25    10.0   1_556     S
V27     V30    10.0   .     S
V28     V16    10.0   1_655     S
V28     V26    10.0   1_556     S
V28     V29    10.0   .     S
V29     V30    10.0   .     S
V29     V31    10.0   .     S
V29     V21    10.0   1_655     S
V30     V32    10.0   .     S
V31     V32    10.0   1_655     S
V32     V31    10.0   1_455     S
