data_ukp
_audit_creation_date              2020-02-04
_audit_creation_method            'Pymatgen'
_symmetry_space_group_name_H-M    'P1'
_symmetry_Int_Tables_number       1
loop_
_symmetry_equiv_pos_as_xyz
  x,y,z
_cell_length_a                    42.8603
_cell_length_b                    42.8603
_cell_length_c                    42.8603
_cell_angle_alpha                 90.0
_cell_angle_beta                 90.0
_cell_angle_gamma                 90.0
loop_
_atom_site_label
_atom_site_type_symbol
_atom_site_fract_x
_atom_site_fract_y
_atom_site_fract_z
V1     V     0.6235   0.3132   0.2664
V2     V     0.8132   0.2336   0.3765
V3     V     0.7336   0.1235   0.1868
V4     V     0.8735   0.0164   0.4368
V5     V     0.0632   0.1265   0.5164
V6     V     0.9836   0.9368   0.6265
V7     V     0.7664   0.8765   0.6868
V8     V     0.6868   0.7664   0.8765
V9     V     0.8765   0.6868   0.7664
V10     V     0.5164   0.0632   0.1265
V11     V     0.6265   0.9836   0.9368
V12     V     0.4368   0.8735   0.0164
V13     V     0.3132   0.2664   0.6235
V14     V     0.2336   0.3765   0.8132
V15     V     0.1235   0.1868   0.7336
V16     V     0.3735   0.4836   0.5632
V17     V     0.4836   0.5632   0.3735
V18     V     0.5632   0.3735   0.4836
V19     V     0.1868   0.7336   0.1235
V20     V     0.3765   0.8132   0.2336
V21     V     0.2664   0.6235   0.3132
V22     V     0.1265   0.5164   0.0632
V23     V     0.9368   0.6265   0.9836
V24     V     0.0164   0.4368   0.8735
V25     V     0.8735   0.9836   0.0632
V26     V     0.9836   0.0632   0.8735
V27     V     0.0632   0.8735   0.9836
V28     V     0.2664   0.3765   0.1868
V29     V     0.1868   0.2664   0.3765
V30     V     0.3765   0.1868   0.2664
V31     V     0.1235   0.8132   0.7664
V32     V     0.3132   0.7336   0.8765
V33     V     0.2336   0.6235   0.6868
V34     V     0.9368   0.3735   0.5164
V35     V     0.0164   0.5632   0.6265
V36     V     0.1265   0.4836   0.4368
V37     V     0.3735   0.5164   0.9368
V38     V     0.5632   0.6265   0.0164
V39     V     0.4836   0.4368   0.1265
V40     V     0.8132   0.7664   0.1235
V41     V     0.7336   0.8765   0.3132
V42     V     0.6235   0.6868   0.2336
V43     V     0.7664   0.1235   0.8132
V44     V     0.8765   0.3132   0.7336
V45     V     0.6868   0.2336   0.6235
V46     V     0.5164   0.9368   0.3735
V47     V     0.6265   0.0164   0.5632
V48     V     0.4368   0.1265   0.4836
loop_
_geom_bond_atom_site_label_1
_geom_bond_atom_site_label_2
_geom_bond_distance
_geom_bond_site_symmetry_2
_ccdc_geom_bond_type
V1     V3    10.0   .     S
V1     V2    10.0   .     S
V1     V18    10.0   .     S
V1     V39    10.0   .     S
V2     V3    10.0   .     S
V2     V4    10.0   .     S
V2     V34    10.0   .     S
V3     V10    10.0   .     S
V3     V25    10.0   1_545     S
V4     V6    10.0   1_545     S
V4     V5    10.0   1_655     S
V4     V41    10.0   1_545     S
V5     V4    10.0   1_455     S
V5     V6    10.0   1_445     S
V5     V15    10.0   .     S
V5     V29    10.0   .     S
V6     V4    10.0   1_565     S
V6     V5    10.0   1_665     S
V6     V7    10.0   .     S
V6     V31    10.0   1_655     S
V7     V8    10.0   .     S
V7     V9    10.0   .     S
V7     V47    10.0   1_565     S
V8     V9    10.0   .     S
V8     V11    10.0   .     S
V8     V38    10.0   1_556     S
V9     V23    10.0   .     S
V9     V35    10.0   1_655     S
V10     V12    10.0   1_545     S
V10     V11    10.0   1_544     S
V10     V30    10.0   .     S
V11     V10    10.0   1_566     S
V11     V12    10.0   1_556     S
V11     V43    10.0   1_565     S
V12     V10    10.0   1_565     S
V12     V11    10.0   1_554     S
V12     V20    10.0   .     S
V12     V32    10.0   1_554     S
V13     V15    10.0   .     S
V13     V14    10.0   .     S
V13     V16    10.0   .     S
V13     V48    10.0   .     S
V14     V15    10.0   .     S
V14     V24    10.0   .     S
V14     V37    10.0   .     S
V15     V26    10.0   1_455     S
V16     V17    10.0   .     S
V16     V18    10.0   .     S
V16     V33    10.0   .     S
V17     V18    10.0   .     S
V17     V21    10.0   .     S
V17     V42    10.0   .     S
V18     V45    10.0   .     S
V19     V20    10.0   .     S
V19     V21    10.0   .     S
V19     V22    10.0   .     S
V19     V27    10.0   1_554     S
V20     V21    10.0   .     S
V20     V46    10.0   .     S
V21     V36    10.0   .     S
V22     V24    10.0   1_554     S
V22     V23    10.0   1_454     S
V22     V28    10.0   .     S
V23     V22    10.0   1_656     S
V23     V24    10.0   1_655     S
V23     V40    10.0   1_556     S
V24     V22    10.0   1_556     S
V24     V23    10.0   1_455     S
V24     V44    10.0   1_455     S
V25     V26    10.0   1_564     S
V25     V27    10.0   1_654     S
V25     V40    10.0   .     S
V25     V3    10.0   1_565     S
V26     V25    10.0   1_546     S
V26     V27    10.0   1_645     S
V26     V43    10.0   .     S
V26     V15    10.0   1_655     S
V27     V26    10.0   1_465     S
V27     V25    10.0   1_456     S
V27     V31    10.0   .     S
V27     V19    10.0   1_556     S
V28     V29    10.0   .     S
V28     V30    10.0   .     S
V28     V39    10.0   .     S
V29     V30    10.0   .     S
V29     V36    10.0   .     S
V30     V48    10.0   .     S
V31     V6    10.0   1_455     S
V31     V33    10.0   .     S
V31     V32    10.0   .     S
V32     V33    10.0   .     S
V32     V37    10.0   .     S
V32     V12    10.0   1_556     S
V33     V35    10.0   .     S
V34     V36    10.0   1_655     S
V34     V35    10.0   1_655     S
V34     V44    10.0   .     S
V35     V34    10.0   1_455     S
V35     V36    10.0   .     S
V35     V9    10.0   1_455     S
V36     V34    10.0   1_455     S
V37     V39    10.0   1_556     S
V37     V38    10.0   1_556     S
V38     V37    10.0   1_554     S
V38     V39    10.0   .     S
V38     V42    10.0   .     S
V38     V8    10.0   1_554     S
V39     V37    10.0   1_554     S
V40     V42    10.0   .     S
V40     V41    10.0   .     S
V40     V23    10.0   1_554     S
V41     V42    10.0   .     S
V41     V46    10.0   .     S
V41     V4    10.0   1_565     S
V43     V45    10.0   .     S
V43     V44    10.0   .     S
V43     V11    10.0   1_545     S
V44     V45    10.0   .     S
V44     V24    10.0   1_655     S
V45     V47    10.0   .     S
V46     V48    10.0   1_565     S
V46     V47    10.0   1_565     S
V47     V46    10.0   1_545     S
V47     V48    10.0   .     S
V47     V7    10.0   1_545     S
V48     V46    10.0   1_545     S
