data_ukw
_audit_creation_date              2020-02-04
_audit_creation_method            'Pymatgen'
_symmetry_space_group_name_H-M    'P1'
_symmetry_Int_Tables_number       1
loop_
_symmetry_equiv_pos_as_xyz
  x,y,z
_cell_length_a                    51.7617
_cell_length_b                    51.7617
_cell_length_c                    51.7617
_cell_angle_alpha                 90.0
_cell_angle_beta                 90.0
_cell_angle_gamma                 90.0
loop_
_atom_site_label
_atom_site_type_symbol
_atom_site_fract_x
_atom_site_fract_y
_atom_site_fract_z
V1     V     0.891   0.8563   0.4716
V2     V     0.859   0.7216   0.6063
V3     V     0.8563   0.5284   0.609
V4     V     0.7216   0.3937   0.641
V5     V     0.3937   0.359   0.7784
V6     V     0.5284   0.391   0.6437
V7     V     0.0284   0.891   0.1437
V8     V     0.8937   0.859   0.2784
V9     V     0.391   0.3563   0.9716
V10     V     0.359   0.2216   0.1063
V11     V     0.3563   0.0284   0.109
V12     V     0.2216   0.8937   0.141
V13     V     0.859   0.7784   0.1063
V14     V     0.891   0.6437   0.9716
V15     V     0.8937   0.641   0.7784
V16     V     0.0284   0.609   0.6437
V17     V     0.8563   0.9716   0.109
V18     V     0.7216   0.1063   0.141
V19     V     0.3937   0.141   0.2784
V20     V     0.5284   0.109   0.1437
V21     V     0.2216   0.6063   0.641
V22     V     0.3563   0.4716   0.609
V23     V     0.391   0.1437   0.4716
V24     V     0.359   0.2784   0.6063
V25     V     0.4716   0.891   0.8563
V26     V     0.6063   0.859   0.7216
V27     V     0.609   0.8563   0.5284
V28     V     0.641   0.7216   0.3937
V29     V     0.7784   0.3937   0.359
V30     V     0.6437   0.5284   0.391
V31     V     0.1063   0.359   0.2216
V32     V     0.9716   0.391   0.3563
V33     V     0.1437   0.0284   0.891
V34     V     0.2784   0.8937   0.859
V35     V     0.109   0.3563   0.0284
V36     V     0.141   0.2216   0.8937
V37     V     0.0284   0.391   0.8563
V38     V     0.8937   0.359   0.7216
V39     V     0.859   0.2216   0.3937
V40     V     0.891   0.3563   0.5284
V41     V     0.2216   0.3937   0.859
V42     V     0.3563   0.5284   0.891
V43     V     0.391   0.8563   0.0284
V44     V     0.359   0.7216   0.8937
V45     V     0.8563   0.0284   0.391
V46     V     0.7216   0.8937   0.359
V47     V     0.3937   0.859   0.2216
V48     V     0.5284   0.891   0.3563
V49     V     0.859   0.2784   0.8937
V50     V     0.891   0.1437   0.0284
V51     V     0.8563   0.4716   0.891
V52     V     0.7216   0.6063   0.859
V53     V     0.5284   0.609   0.8563
V54     V     0.3937   0.641   0.7216
V55     V     0.359   0.7784   0.3937
V56     V     0.391   0.6437   0.5284
V57     V     0.3563   0.9716   0.391
V58     V     0.2216   0.1063   0.359
V59     V     0.0284   0.109   0.3563
V60     V     0.8937   0.141   0.2216
V61     V     0.1063   0.859   0.7784
V62     V     0.9716   0.891   0.6437
V63     V     0.6437   0.0284   0.609
V64     V     0.7784   0.8937   0.641
V65     V     0.641   0.2216   0.6063
V66     V     0.609   0.3563   0.4716
V67     V     0.4716   0.391   0.1437
V68     V     0.6063   0.359   0.2784
V69     V     0.109   0.8563   0.9716
V70     V     0.141   0.7216   0.1063
V71     V     0.1437   0.5284   0.109
V72     V     0.2784   0.3937   0.141
V73     V     0.7784   0.1063   0.859
V74     V     0.6437   0.9716   0.891
V75     V     0.641   0.7784   0.8937
V76     V     0.609   0.6437   0.0284
V77     V     0.6063   0.641   0.2216
V78     V     0.4716   0.609   0.3563
V79     V     0.1437   0.4716   0.391
V80     V     0.2784   0.6063   0.359
V81     V     0.9716   0.109   0.8563
V82     V     0.1063   0.141   0.7216
V83     V     0.141   0.2784   0.3937
V84     V     0.109   0.1437   0.5284
V85     V     0.7784   0.6063   0.141
V86     V     0.6437   0.4716   0.109
V87     V     0.641   0.2784   0.1063
V88     V     0.609   0.1437   0.9716
V89     V     0.9716   0.609   0.1437
V90     V     0.1063   0.641   0.2784
V91     V     0.141   0.7784   0.6063
V92     V     0.109   0.6437   0.4716
V93     V     0.1437   0.9716   0.609
V94     V     0.2784   0.1063   0.641
V95     V     0.6063   0.141   0.7784
V96     V     0.4716   0.109   0.6437
loop_
_geom_bond_atom_site_label_1
_geom_bond_atom_site_label_2
_geom_bond_distance
_geom_bond_site_symmetry_2
_ccdc_geom_bond_type
V1     V2    10.0   .     S
V1     V62    10.0   .     S
V1     V8    10.0   .     S
V1     V45    10.0   1_565     S
V2     V64    10.0   .     S
V2     V3    10.0   .     S
V2     V15    10.0   .     S
V3     V4    10.0   .     S
V3     V40    10.0   .     S
V3     V16    10.0   1_655     S
V4     V38    10.0   .     S
V4     V6    10.0   .     S
V4     V65    10.0   .     S
V5     V6    10.0   .     S
V5     V24    10.0   .     S
V5     V9    10.0   .     S
V5     V41    10.0   .     S
V6     V22    10.0   .     S
V6     V66    10.0   .     S
V7     V8    10.0   1_455     S
V7     V17    10.0   1_455     S
V7     V12    10.0   .     S
V7     V69    10.0   1_554     S
V8     V7    10.0   1_655     S
V8     V13    10.0   .     S
V8     V46    10.0   .     S
V9     V10    10.0   1_556     S
V9     V67    10.0   1_556     S
V9     V42    10.0   .     S
V10     V9    10.0   1_554     S
V10     V72    10.0   .     S
V10     V11    10.0   .     S
V10     V19    10.0   .     S
V11     V12    10.0   1_545     S
V11     V43    10.0   1_545     S
V11     V20    10.0   .     S
V12     V11    10.0   1_565     S
V12     V47    10.0   .     S
V12     V70    10.0   .     S
V13     V14    10.0   1_554     S
V13     V85    10.0   .     S
V13     V17    10.0   .     S
V14     V13    10.0   1_556     S
V14     V89    10.0   1_556     S
V14     V15    10.0   .     S
V14     V51    10.0   .     S
V15     V16    10.0   1_655     S
V15     V52    10.0   .     S
V16     V15    10.0   1_455     S
V16     V3    10.0   1_455     S
V16     V21    10.0   .     S
V16     V92    10.0   .     S
V17     V7    10.0   1_655     S
V17     V18    10.0   1_565     S
V17     V50    10.0   1_565     S
V18     V17    10.0   1_545     S
V18     V60    10.0   .     S
V18     V20    10.0   .     S
V18     V87    10.0   .     S
V19     V20    10.0   .     S
V19     V23    10.0   .     S
V19     V58    10.0   .     S
V20     V88    10.0   1_554     S
V21     V22    10.0   .     S
V21     V54    10.0   .     S
V21     V91    10.0   .     S
V22     V56    10.0   .     S
V22     V24    10.0   .     S
V23     V24    10.0   .     S
V23     V96    10.0   .     S
V23     V57    10.0   1_545     S
V24     V94    10.0   .     S
V25     V26    10.0   .     S
V25     V74    10.0   .     S
V25     V34    10.0   .     S
V25     V43    10.0   1_556     S
V26     V75    10.0   .     S
V26     V27    10.0   .     S
V26     V64    10.0   .     S
V27     V28    10.0   .     S
V27     V48    10.0   .     S
V27     V63    10.0   1_565     S
V28     V46    10.0   .     S
V28     V30    10.0   .     S
V28     V77    10.0   .     S
V29     V30    10.0   .     S
V29     V68    10.0   .     S
V29     V32    10.0   .     S
V29     V39    10.0   .     S
V30     V66    10.0   .     S
V30     V78    10.0   .     S
V31     V32    10.0   1_455     S
V31     V83    10.0   .     S
V31     V35    10.0   .     S
V31     V72    10.0   .     S
V32     V31    10.0   1_655     S
V32     V79    10.0   1_655     S
V32     V40    10.0   .     S
V33     V34    10.0   1_545     S
V33     V69    10.0   1_545     S
V33     V36    10.0   .     S
V33     V81    10.0   1_455     S
V34     V33    10.0   1_565     S
V34     V61    10.0   .     S
V34     V44    10.0   .     S
V35     V36    10.0   1_554     S
V35     V37    10.0   1_554     S
V35     V71    10.0   .     S
V36     V35    10.0   1_556     S
V36     V41    10.0   .     S
V36     V82    10.0   .     S
V37     V35    10.0   1_556     S
V37     V38    10.0   1_455     S
V37     V51    10.0   1_455     S
V37     V41    10.0   .     S
V38     V37    10.0   1_655     S
V38     V49    10.0   .     S
V38     V40    10.0   .     S
V39     V40    10.0   .     S
V39     V45    10.0   .     S
V39     V60    10.0   .     S
V41     V42    10.0   .     S
V42     V44    10.0   .     S
V42     V53    10.0   .     S
V43     V11    10.0   1_565     S
V43     V44    10.0   1_554     S
V43     V25    10.0   1_554     S
V43     V47    10.0   .     S
V44     V43    10.0   1_556     S
V44     V54    10.0   .     S
V45     V46    10.0   1_545     S
V45     V1    10.0   1_545     S
V45     V59    10.0   1_655     S
V46     V45    10.0   1_565     S
V46     V48    10.0   .     S
V47     V48    10.0   .     S
V47     V55    10.0   .     S
V48     V57    10.0   .     S
V49     V50    10.0   1_556     S
V49     V73    10.0   .     S
V49     V51    10.0   .     S
V50     V17    10.0   1_545     S
V50     V49    10.0   1_554     S
V50     V81    10.0   1_554     S
V50     V60    10.0   .     S
V51     V37    10.0   1_655     S
V51     V52    10.0   .     S
V52     V53    10.0   .     S
V52     V75    10.0   .     S
V53     V54    10.0   .     S
V53     V76    10.0   1_556     S
V54     V56    10.0   .     S
V55     V56    10.0   .     S
V55     V80    10.0   .     S
V55     V57    10.0   .     S
V56     V78    10.0   .     S
V57     V58    10.0   1_565     S
V57     V23    10.0   1_565     S
V58     V57    10.0   1_545     S
V58     V59    10.0   .     S
V58     V83    10.0   .     S
V59     V60    10.0   1_455     S
V59     V45    10.0   1_455     S
V59     V84    10.0   .     S
V60     V59    10.0   1_655     S
V61     V62    10.0   1_455     S
V61     V91    10.0   .     S
V61     V69    10.0   .     S
V62     V61    10.0   1_655     S
V62     V93    10.0   1_655     S
V62     V64    10.0   .     S
V63     V64    10.0   1_545     S
V63     V27    10.0   1_545     S
V63     V65    10.0   .     S
V63     V96    10.0   .     S
V64     V63    10.0   1_565     S
V65     V66    10.0   .     S
V65     V95    10.0   .     S
V66     V68    10.0   .     S
V67     V9    10.0   1_554     S
V67     V68    10.0   .     S
V67     V86    10.0   .     S
V67     V72    10.0   .     S
V68     V87    10.0   .     S
V69     V33    10.0   1_565     S
V69     V70    10.0   1_556     S
V69     V7    10.0   1_556     S
V70     V69    10.0   1_554     S
V70     V71    10.0   .     S
V70     V90    10.0   .     S
V71     V72    10.0   .     S
V71     V89    10.0   1_455     S
V73     V74    10.0   1_545     S
V73     V95    10.0   .     S
V73     V81    10.0   .     S
V74     V73    10.0   1_565     S
V74     V88    10.0   1_565     S
V74     V75    10.0   .     S
V75     V76    10.0   1_556     S
V76     V75    10.0   1_554     S
V76     V53    10.0   1_554     S
V76     V77    10.0   .     S
V76     V86    10.0   .     S
V77     V78    10.0   .     S
V77     V85    10.0   .     S
V78     V80    10.0   .     S
V79     V32    10.0   1_455     S
V79     V80    10.0   .     S
V79     V92    10.0   .     S
V79     V83    10.0   .     S
V80     V90    10.0   .     S
V81     V50    10.0   1_556     S
V81     V82    10.0   1_655     S
V81     V33    10.0   1_655     S
V82     V81    10.0   1_455     S
V82     V84    10.0   .     S
V82     V94    10.0   .     S
V83     V84    10.0   .     S
V84     V93    10.0   1_545     S
V85     V86    10.0   .     S
V85     V89    10.0   .     S
V86     V87    10.0   .     S
V87     V88    10.0   1_554     S
V88     V74    10.0   1_545     S
V88     V87    10.0   1_556     S
V88     V20    10.0   1_556     S
V88     V95    10.0   .     S
V89     V14    10.0   1_554     S
V89     V90    10.0   1_655     S
V89     V71    10.0   1_655     S
V90     V89    10.0   1_455     S
V90     V92    10.0   .     S
V91     V92    10.0   .     S
V91     V93    10.0   .     S
V93     V62    10.0   1_455     S
V93     V94    10.0   1_565     S
V93     V84    10.0   1_565     S
V94     V93    10.0   1_545     S
V94     V96    10.0   .     S
V95     V96    10.0   .     S
