data_ulf
_audit_creation_date              2020-02-04
_audit_creation_method            'Pymatgen'
_symmetry_space_group_name_H-M    'P1'
_symmetry_Int_Tables_number       1
loop_
_symmetry_equiv_pos_as_xyz
  x,y,z
_cell_length_a                    16.5219
_cell_length_b                    16.5219
_cell_length_c                    16.5219
_cell_angle_alpha                 90.0
_cell_angle_beta                 90.0
_cell_angle_gamma                 90.0
loop_
_atom_site_label
_atom_site_type_symbol
_atom_site_fract_x
_atom_site_fract_y
_atom_site_fract_z
V1     V     0.9988   0.187   0.8259
V2     V     0.0012   0.3131   0.8259
V3     V     0.9241   0.5631   0.7512
V4     V     0.9241   0.437   0.7488
V5     V     0.9988   0.8131   0.6741
V6     V     0.0012   0.6869   0.6741
V7     V     0.0759   0.937   0.7512
V8     V     0.0759   0.063   0.7488
V9     V     0.4241   0.063   0.2512
V10     V     0.4241   0.937   0.2488
V11     V     0.5012   0.8131   0.3259
V12     V     0.4988   0.6869   0.3259
V13     V     0.5012   0.187   0.1741
V14     V     0.4988   0.3131   0.1741
V15     V     0.5759   0.437   0.2512
V16     V     0.5759   0.5631   0.2488
V17     V     0.6869   0.6741   0.0012
V18     V     0.8131   0.6741   0.9988
V19     V     0.063   0.7488   0.0759
V20     V     0.937   0.7512   0.0759
V21     V     0.313   0.8259   0.0012
V22     V     0.187   0.8259   0.9988
V23     V     0.437   0.7488   0.9241
V24     V     0.5631   0.7512   0.9241
V25     V     0.187   0.1741   0.5012
V26     V     0.313   0.1741   0.4988
V27     V     0.437   0.2512   0.5759
V28     V     0.5631   0.2488   0.5759
V29     V     0.063   0.2512   0.4241
V30     V     0.937   0.2488   0.4241
V31     V     0.8131   0.3259   0.5012
V32     V     0.6869   0.3259   0.4988
V33     V     0.7512   0.0759   0.937
V34     V     0.7488   0.0759   0.0631
V35     V     0.6741   0.0012   0.6869
V36     V     0.6741   0.9988   0.8131
V37     V     0.7488   0.9241   0.437
V38     V     0.7512   0.9241   0.5631
V39     V     0.8259   0.9988   0.187
V40     V     0.8259   0.0012   0.3131
V41     V     0.2512   0.4241   0.063
V42     V     0.2488   0.4241   0.937
V43     V     0.3259   0.5012   0.8131
V44     V     0.3259   0.4988   0.6869
V45     V     0.1741   0.5012   0.187
V46     V     0.1741   0.4988   0.313
V47     V     0.2488   0.5759   0.5631
V48     V     0.2512   0.5759   0.437
loop_
_geom_bond_atom_site_label_1
_geom_bond_atom_site_label_2
_geom_bond_distance
_geom_bond_site_symmetry_2
_ccdc_geom_bond_type
V1     V17    9.985   1_556     S
V1     V46    9.985   1_656     S
V1     V29    9.996   1_656     S
V1     V13    10.033   1_556     S
V2     V21    9.985   1_546     S
V2     V30    9.996   1_456     S
V2     V40    9.985   1_456     S
V2     V14    10.033   1_556     S
V3     V34    9.985   1_556     S
V3     V44    9.996   .     S
V3     V27    9.985   .     S
V3     V16    10.033   1_556     S
V4     V37    9.985   .     S
V4     V23    9.985   .     S
V4     V43    9.996   .     S
V4     V15    10.033   .     S
V5     V32    9.985   .     S
V5     V19    9.996   1_655     S
V5     V45    9.985   1_655     S
V5     V11    10.033   .     S
V6     V26    9.985   1_565     S
V6     V39    9.985   1_455     S
V6     V20    9.996   1_455     S
V6     V12    10.033   .     S
V7     V41    9.985   1_566     S
V7     V28    9.985   1_565     S
V7     V35    9.996   1_565     S
V7     V10    10.033   1_556     S
V8     V48    9.985   1_545     S
V8     V36    9.996   1_545     S
V8     V24    9.985   1_545     S
V8     V9    10.033   .     S
V9     V47    9.985   1_545     S
V9     V39    9.996   1_445     S
V9     V20    9.985   1_445     S
V10     V42    9.985   1_564     S
V10     V30    9.985   1_465     S
V10     V40    9.996   1_465     S
V10     V7    10.033   1_554     S
V11     V31    9.985   .     S
V11     V43    9.985   .     S
V11     V23    9.996   .     S
V12     V25    9.985   1_565     S
V12     V24    9.996   .     S
V12     V36    9.985   .     S
V13     V18    9.985   1_554     S
V13     V27    9.996   1_554     S
V13     V44    9.985   1_554     S
V13     V1    10.033   1_554     S
V14     V22    9.985   1_544     S
V14     V35    9.985   1_554     S
V14     V28    9.996   1_554     S
V14     V2    10.033   1_554     S
V15     V38    9.985   .     S
V15     V19    9.985   1_655     S
V15     V45    9.996   1_655     S
V16     V33    9.985   1_554     S
V16     V46    9.996   1_655     S
V16     V29    9.985   1_655     S
V16     V3    10.033   1_554     S
V17     V1    9.985   1_554     S
V17     V33    9.996   1_554     S
V17     V46    9.985   1_655     S
V17     V32    10.033   .     S
V18     V34    9.996   1_556     S
V18     V13    9.985   1_556     S
V18     V44    9.985   .     S
V18     V31    10.033   .     S
V19     V15    9.985   1_455     S
V19     V38    9.985   1_455     S
V19     V5    9.996   1_455     S
V19     V29    10.033   .     S
V20     V9    9.985   1_665     S
V20     V6    9.996   1_655     S
V20     V47    9.985   1_655     S
V20     V30    10.033   1_565     S
V21     V2    9.985   1_564     S
V21     V42    9.996   1_564     S
V21     V40    9.985   1_465     S
V21     V26    10.033   1_565     S
V22     V41    9.996   1_566     S
V22     V14    9.985   1_566     S
V22     V35    9.985   1_565     S
V22     V25    10.033   1_565     S
V23     V37    9.985   .     S
V23     V27    10.033   .     S
V24     V8    9.985   1_565     S
V24     V48    9.985   .     S
V24     V28    10.033   1_565     S
V25     V48    9.996   1_545     S
V25     V12    9.985   1_545     S
V25     V36    9.985   1_545     S
V25     V22    10.033   1_545     S
V26     V6    9.985   1_545     S
V26     V47    9.996   1_545     S
V26     V39    9.985   1_445     S
V26     V21    10.033   1_545     S
V27     V34    9.985   1_556     S
V27     V13    9.996   1_556     S
V28     V7    9.985   1_545     S
V28     V14    9.996   1_556     S
V28     V41    9.985   1_556     S
V28     V24    10.033   1_545     S
V29     V16    9.985   1_455     S
V29     V1    9.996   1_454     S
V29     V33    9.985   1_454     S
V30     V10    9.985   1_645     S
V30     V42    9.985   1_654     S
V30     V2    9.996   1_654     S
V30     V20    10.033   1_545     S
V31     V37    9.996   .     S
V31     V43    9.985   .     S
V32     V38    9.996   .     S
V32     V45    9.985   1_655     S
V33     V17    9.996   1_556     S
V33     V16    9.985   1_556     S
V33     V29    9.985   1_656     S
V33     V42    10.033   1_655     S
V34     V3    9.985   1_554     S
V34     V18    9.996   1_554     S
V34     V27    9.985   1_554     S
V34     V41    10.033   .     S
V35     V7    9.996   1_545     S
V35     V22    9.985   1_545     S
V35     V14    9.985   1_556     S
V35     V44    10.033   .     S
V36     V25    9.985   1_565     S
V36     V8    9.996   1_565     S
V36     V43    10.033   .     S
V37     V48    10.033   .     S
V38     V19    9.985   1_655     S
V38     V47    10.033   1_655     S
V39     V26    9.985   1_665     S
V39     V9    9.996   1_665     S
V39     V6    9.985   1_655     S
V39     V45    10.033   1_655     S
V40     V10    9.996   1_645     S
V40     V21    9.985   1_645     S
V40     V2    9.985   1_654     S
V40     V46    10.033   1_655     S
V41     V7    9.985   1_544     S
V41     V22    9.996   1_544     S
V41     V28    9.985   1_554     S
V42     V21    9.996   1_546     S
V42     V10    9.985   1_546     S
V42     V30    9.985   1_456     S
V42     V33    10.033   1_455     S
V44     V13    9.985   1_556     S
V45     V15    9.996   1_455     S
V45     V32    9.985   1_455     S
V45     V5    9.985   1_455     S
V45     V39    10.033   1_455     S
V46     V17    9.985   1_455     S
V46     V16    9.996   1_455     S
V46     V1    9.985   1_454     S
V46     V40    10.033   1_455     S
V47     V26    9.996   1_565     S
V47     V9    9.985   1_565     S
V47     V20    9.985   1_455     S
V47     V38    10.033   1_455     S
V48     V8    9.985   1_565     S
V48     V25    9.996   1_565     S
