data_ulh
_audit_creation_date              2020-02-04
_audit_creation_method            'Pymatgen'
_symmetry_space_group_name_H-M    'P1'
_symmetry_Int_Tables_number       1
loop_
_symmetry_equiv_pos_as_xyz
  x,y,z
_cell_length_a                    57.8487
_cell_length_b                    57.8487
_cell_length_c                    57.8487
_cell_angle_alpha                 90.0
_cell_angle_beta                 90.0
_cell_angle_gamma                 90.0
loop_
_atom_site_label
_atom_site_type_symbol
_atom_site_fract_x
_atom_site_fract_y
_atom_site_fract_z
V1     V     0.8506   0.586   0.0085
V2     V     0.8506   0.414   0.9915
V3     V     0.7585   0.836   0.8994
V4     V     0.7415   0.664   0.8994
V5     V     0.6494   0.914   0.0085
V6     V     0.6494   0.086   0.9915
V7     V     0.7585   0.164   0.1006
V8     V     0.7415   0.336   0.1006
V9     V     0.836   0.3994   0.2585
V10     V     0.664   0.3994   0.2415
V11     V     0.586   0.5085   0.3506
V12     V     0.414   0.4915   0.3506
V13     V     0.914   0.5085   0.1494
V14     V     0.086   0.4915   0.1494
V15     V     0.336   0.6006   0.2415
V16     V     0.164   0.6006   0.2585
V17     V     0.0085   0.8506   0.586
V18     V     0.9915   0.8506   0.414
V19     V     0.8994   0.7585   0.836
V20     V     0.8994   0.7415   0.664
V21     V     0.0085   0.6494   0.914
V22     V     0.9915   0.6494   0.086
V23     V     0.1006   0.7585   0.164
V24     V     0.1006   0.7415   0.336
V25     V     0.3506   0.586   0.5085
V26     V     0.3506   0.414   0.4915
V27     V     0.1494   0.914   0.5085
V28     V     0.1494   0.086   0.4915
V29     V     0.2585   0.836   0.3994
V30     V     0.2415   0.664   0.3994
V31     V     0.2585   0.164   0.6006
V32     V     0.2415   0.336   0.6006
V33     V     0.4915   0.6494   0.586
V34     V     0.5085   0.6494   0.414
V35     V     0.6006   0.7415   0.836
V36     V     0.6006   0.7585   0.664
V37     V     0.3994   0.7585   0.336
V38     V     0.3994   0.7415   0.164
V39     V     0.4915   0.8506   0.914
V40     V     0.5085   0.8506   0.086
V41     V     0.2415   0.836   0.1006
V42     V     0.2585   0.664   0.1006
V43     V     0.3506   0.914   0.9915
V44     V     0.3506   0.086   0.0085
V45     V     0.2415   0.164   0.8994
V46     V     0.2585   0.336   0.8994
V47     V     0.1494   0.586   0.9915
V48     V     0.1494   0.414   0.0085
V49     V     0.914   0.0085   0.6494
V50     V     0.086   0.9915   0.6494
V51     V     0.836   0.8994   0.7585
V52     V     0.664   0.8994   0.7415
V53     V     0.586   0.0085   0.8506
V54     V     0.414   0.9915   0.8506
V55     V     0.336   0.1006   0.7415
V56     V     0.164   0.1006   0.7585
V57     V     0.7415   0.836   0.6006
V58     V     0.7585   0.664   0.6006
V59     V     0.6494   0.586   0.4915
V60     V     0.6494   0.414   0.5085
V61     V     0.8506   0.914   0.4915
V62     V     0.8506   0.086   0.5085
V63     V     0.7415   0.164   0.3994
V64     V     0.7585   0.336   0.3994
V65     V     0.836   0.1006   0.2415
V66     V     0.664   0.1006   0.2585
V67     V     0.586   0.9915   0.1494
V68     V     0.414   0.0085   0.1494
V69     V     0.164   0.8994   0.2415
V70     V     0.336   0.8994   0.2585
V71     V     0.914   0.9915   0.3506
V72     V     0.086   0.0085   0.3506
V73     V     0.5085   0.1494   0.914
V74     V     0.4915   0.1494   0.086
V75     V     0.3994   0.2585   0.836
V76     V     0.3994   0.2415   0.664
V77     V     0.5085   0.3506   0.586
V78     V     0.4915   0.3506   0.414
V79     V     0.6006   0.2585   0.164
V80     V     0.6006   0.2415   0.336
V81     V     0.8994   0.2585   0.336
V82     V     0.8994   0.2415   0.164
V83     V     0.1006   0.2415   0.836
V84     V     0.1006   0.2585   0.664
V85     V     0.9915   0.3506   0.914
V86     V     0.0085   0.3506   0.086
V87     V     0.9915   0.1494   0.586
V88     V     0.0085   0.1494   0.414
V89     V     0.836   0.6006   0.7415
V90     V     0.664   0.6006   0.7585
V91     V     0.586   0.4915   0.6494
V92     V     0.414   0.5085   0.6494
V93     V     0.914   0.4915   0.8506
V94     V     0.086   0.5085   0.8506
V95     V     0.164   0.3994   0.7415
V96     V     0.336   0.3994   0.7585
loop_
_geom_bond_atom_site_label_1
_geom_bond_atom_site_label_2
_geom_bond_distance
_geom_bond_site_symmetry_2
_ccdc_geom_bond_type
V1     V13    10.0   .     S
V1     V2    10.0   1_554     S
V1     V4    10.0   1_554     S
V1     V22    10.0   .     S
V2     V93    10.0   .     S
V2     V1    10.0   1_556     S
V2     V8    10.0   1_556     S
V2     V85    10.0   .     S
V3     V19    10.0   .     S
V3     V4    10.0   .     S
V3     V5    10.0   1_556     S
V3     V51    10.0   .     S
V4     V35    10.0   .     S
V4     V1    10.0   1_556     S
V4     V90    10.0   .     S
V5     V67    10.0   .     S
V5     V6    10.0   1_564     S
V5     V3    10.0   1_554     S
V5     V40    10.0   .     S
V6     V53    10.0   .     S
V6     V5    10.0   1_546     S
V6     V7    10.0   1_556     S
V6     V73    10.0   .     S
V7     V82    10.0   .     S
V7     V8    10.0   .     S
V7     V6    10.0   1_554     S
V7     V65    10.0   .     S
V8     V79    10.0   .     S
V8     V2    10.0   1_554     S
V8     V10    10.0   .     S
V9     V64    10.0   .     S
V9     V10    10.0   .     S
V9     V13    10.0   .     S
V9     V81    10.0   .     S
V10     V11    10.0   .     S
V10     V79    10.0   .     S
V11     V34    10.0   .     S
V11     V12    10.0   .     S
V11     V59    10.0   .     S
V12     V78    10.0   .     S
V12     V15    10.0   .     S
V12     V26    10.0   .     S
V13     V22    10.0   .     S
V13     V14    10.0   1_655     S
V14     V86    10.0   .     S
V14     V13    10.0   1_455     S
V14     V16    10.0   .     S
V14     V48    10.0   .     S
V15     V42    10.0   .     S
V15     V16    10.0   .     S
V15     V38    10.0   .     S
V16     V30    10.0   .     S
V16     V24    10.0   .     S
V17     V27    10.0   .     S
V17     V18    10.0   1_455     S
V17     V20    10.0   1_455     S
V17     V50    10.0   .     S
V18     V61    10.0   .     S
V18     V17    10.0   1_655     S
V18     V24    10.0   1_655     S
V18     V71    10.0   .     S
V19     V51    10.0   .     S
V19     V20    10.0   .     S
V19     V21    10.0   1_655     S
V20     V89    10.0   .     S
V20     V17    10.0   1_655     S
V20     V58    10.0   .     S
V21     V47    10.0   .     S
V21     V22    10.0   1_456     S
V21     V19    10.0   1_455     S
V21     V94    10.0   .     S
V22     V21    10.0   1_654     S
V22     V23    10.0   1_655     S
V23     V69    10.0   .     S
V23     V24    10.0   .     S
V23     V22    10.0   1_455     S
V23     V41    10.0   .     S
V24     V18    10.0   1_455     S
V24     V30    10.0   .     S
V25     V92    10.0   .     S
V25     V26    10.0   .     S
V25     V30    10.0   .     S
V25     V33    10.0   .     S
V26     V32    10.0   .     S
V26     V78    10.0   .     S
V27     V50    10.0   .     S
V27     V28    10.0   1_565     S
V27     V29    10.0   .     S
V28     V72    10.0   .     S
V28     V27    10.0   1_545     S
V28     V31    10.0   .     S
V28     V88    10.0   .     S
V29     V37    10.0   .     S
V29     V30    10.0   .     S
V29     V70    10.0   .     S
V31     V76    10.0   .     S
V31     V32    10.0   .     S
V31     V55    10.0   .     S
V32     V84    10.0   .     S
V32     V95    10.0   .     S
V33     V34    10.0   .     S
V33     V36    10.0   .     S
V33     V92    10.0   .     S
V34     V59    10.0   .     S
V34     V37    10.0   .     S
V35     V90    10.0   .     S
V35     V36    10.0   .     S
V35     V39    10.0   .     S
V36     V52    10.0   .     S
V36     V57    10.0   .     S
V37     V70    10.0   .     S
V37     V38    10.0   .     S
V38     V40    10.0   .     S
V38     V42    10.0   .     S
V39     V43    10.0   .     S
V39     V40    10.0   1_556     S
V39     V54    10.0   .     S
V40     V39    10.0   1_554     S
V40     V67    10.0   .     S
V41     V42    10.0   .     S
V41     V43    10.0   1_554     S
V41     V69    10.0   .     S
V42     V47    10.0   1_554     S
V43     V54    10.0   .     S
V43     V44    10.0   1_566     S
V43     V41    10.0   1_556     S
V44     V68    10.0   .     S
V44     V43    10.0   1_544     S
V44     V45    10.0   1_554     S
V44     V74    10.0   .     S
V45     V44    10.0   1_556     S
V45     V83    10.0   .     S
V45     V46    10.0   .     S
V45     V56    10.0   .     S
V46     V75    10.0   .     S
V46     V48    10.0   1_556     S
V46     V96    10.0   .     S
V47     V94    10.0   .     S
V47     V48    10.0   1_556     S
V47     V42    10.0   1_556     S
V48     V47    10.0   1_554     S
V48     V46    10.0   1_554     S
V48     V86    10.0   .     S
V49     V87    10.0   .     S
V49     V50    10.0   1_645     S
V49     V51    10.0   1_545     S
V49     V62    10.0   .     S
V50     V49    10.0   1_465     S
V50     V56    10.0   1_565     S
V51     V52    10.0   .     S
V51     V49    10.0   1_565     S
V52     V57    10.0   .     S
V52     V53    10.0   1_565     S
V53     V73    10.0   .     S
V53     V54    10.0   1_545     S
V53     V52    10.0   1_545     S
V54     V53    10.0   1_565     S
V54     V55    10.0   1_565     S
V55     V56    10.0   .     S
V55     V54    10.0   1_545     S
V55     V76    10.0   .     S
V56     V50    10.0   1_545     S
V56     V83    10.0   .     S
V57     V58    10.0   .     S
V57     V61    10.0   .     S
V58     V59    10.0   .     S
V58     V89    10.0   .     S
V59     V60    10.0   .     S
V60     V91    10.0   .     S
V60     V64    10.0   .     S
V60     V77    10.0   .     S
V61     V71    10.0   .     S
V61     V62    10.0   1_565     S
V62     V61    10.0   1_545     S
V62     V63    10.0   .     S
V62     V87    10.0   .     S
V63     V80    10.0   .     S
V63     V64    10.0   .     S
V63     V66    10.0   .     S
V64     V81    10.0   .     S
V65     V66    10.0   .     S
V65     V71    10.0   1_545     S
V65     V82    10.0   .     S
V66     V67    10.0   1_545     S
V66     V80    10.0   .     S
V67     V68    10.0   1_565     S
V67     V66    10.0   1_565     S
V68     V74    10.0   .     S
V68     V67    10.0   1_545     S
V68     V70    10.0   1_545     S
V69     V70    10.0   .     S
V69     V72    10.0   1_565     S
V70     V68    10.0   1_565     S
V71     V72    10.0   1_665     S
V71     V65    10.0   1_565     S
V72     V88    10.0   .     S
V72     V71    10.0   1_445     S
V72     V69    10.0   1_545     S
V73     V74    10.0   1_556     S
V73     V75    10.0   .     S
V74     V73    10.0   1_554     S
V74     V79    10.0   .     S
V75     V96    10.0   .     S
V75     V76    10.0   .     S
V76     V77    10.0   .     S
V77     V78    10.0   .     S
V77     V91    10.0   .     S
V78     V80    10.0   .     S
V79     V80    10.0   .     S
V81     V82    10.0   .     S
V81     V88    10.0   1_655     S
V82     V86    10.0   1_655     S
V83     V84    10.0   .     S
V83     V85    10.0   1_455     S
V84     V95    10.0   .     S
V84     V87    10.0   1_455     S
V85     V86    10.0   1_656     S
V85     V83    10.0   1_655     S
V85     V93    10.0   .     S
V86     V85    10.0   1_454     S
V86     V82    10.0   1_455     S
V87     V88    10.0   1_655     S
V87     V84    10.0   1_655     S
V88     V87    10.0   1_455     S
V88     V81    10.0   1_455     S
V89     V90    10.0   .     S
V89     V93    10.0   .     S
V90     V91    10.0   .     S
V91     V92    10.0   .     S
V92     V96    10.0   .     S
V93     V94    10.0   1_655     S
V94     V93    10.0   1_455     S
V94     V95    10.0   .     S
V95     V96    10.0   .     S
