data_uli
_audit_creation_date              2020-02-04
_audit_creation_method            'Pymatgen'
_symmetry_space_group_name_H-M    'P1'
_symmetry_Int_Tables_number       1
loop_
_symmetry_equiv_pos_as_xyz
  x,y,z
_cell_length_a                    48.8248
_cell_length_b                    48.8248
_cell_length_c                    48.8248
_cell_angle_alpha                 90.0
_cell_angle_beta                 90.0
_cell_angle_gamma                 90.0
loop_
_atom_site_label
_atom_site_type_symbol
_atom_site_fract_x
_atom_site_fract_y
_atom_site_fract_z
V1     V     0.2557   0.8988   0.234
V2     V     0.234   0.1013   0.2557
V3     V     0.2557   0.766   0.8988
V4     V     0.234   0.7443   0.1013
V5     V     0.8988   0.766   0.7443
V6     V     0.1013   0.7443   0.766
V7     V     0.2557   0.1013   0.766
V8     V     0.234   0.8988   0.7443
V9     V     0.1013   0.2557   0.234
V10     V     0.8988   0.234   0.2557
V11     V     0.766   0.8988   0.2557
V12     V     0.7443   0.1013   0.234
V13     V     0.234   0.2557   0.8988
V14     V     0.2557   0.234   0.1013
V15     V     0.8988   0.2557   0.766
V16     V     0.1013   0.234   0.7443
V17     V     0.766   0.2557   0.1013
V18     V     0.7443   0.234   0.8988
V19     V     0.7443   0.8988   0.766
V20     V     0.766   0.1013   0.7443
V21     V     0.1013   0.766   0.2557
V22     V     0.8988   0.7443   0.234
V23     V     0.7443   0.766   0.1013
V24     V     0.766   0.7443   0.8988
V25     V     0.2443   0.266   0.6012
V26     V     0.266   0.2443   0.3988
V27     V     0.2443   0.6012   0.734
V28     V     0.266   0.3988   0.7557
V29     V     0.6012   0.2443   0.266
V30     V     0.3988   0.266   0.2443
V31     V     0.734   0.2443   0.6012
V32     V     0.7557   0.266   0.3988
V33     V     0.266   0.7557   0.6012
V34     V     0.2443   0.734   0.3988
V35     V     0.6012   0.266   0.7557
V36     V     0.3988   0.2443   0.734
V37     V     0.734   0.6012   0.7557
V38     V     0.7557   0.3988   0.734
V39     V     0.6012   0.7557   0.734
V40     V     0.3988   0.734   0.7557
V41     V     0.7557   0.6012   0.266
V42     V     0.734   0.3988   0.2443
V43     V     0.7557   0.734   0.6012
V44     V     0.734   0.7557   0.3988
V45     V     0.266   0.6012   0.2443
V46     V     0.2443   0.3988   0.266
V47     V     0.6012   0.734   0.2443
V48     V     0.3988   0.7557   0.266
loop_
_geom_bond_atom_site_label_1
_geom_bond_atom_site_label_2
_geom_bond_distance
_geom_bond_site_symmetry_2
_ccdc_geom_bond_type
V1     V2    10.0   1_565     S
V1     V4    10.0   .     S
V1     V21    10.0   .     S
V1     V48    10.001   .     S
V2     V1    10.0   1_545     S
V2     V9    10.0   .     S
V2     V14    10.0   .     S
V2     V26    10.001   .     S
V3     V4    10.0   1_556     S
V3     V8    10.0   .     S
V3     V6    10.0   .     S
V3     V40    10.001   .     S
V4     V3    10.0   1_554     S
V4     V21    10.0   .     S
V4     V45    10.001   .     S
V5     V6    10.0   1_655     S
V5     V19    10.0   .     S
V5     V24    10.0   .     S
V5     V43    10.001   .     S
V6     V5    10.0   1_455     S
V6     V8    10.0   .     S
V6     V27    10.001   .     S
V7     V8    10.0   1_545     S
V7     V13    10.0   .     S
V7     V16    10.0   .     S
V7     V36    10.001   .     S
V8     V7    10.0   1_565     S
V8     V33    10.001   .     S
V9     V10    10.0   1_455     S
V9     V14    10.0   .     S
V9     V46    10.001   .     S
V10     V9    10.0   1_655     S
V10     V12    10.0   .     S
V10     V17    10.0   .     S
V10     V32    10.001   .     S
V11     V12    10.0   1_565     S
V11     V22    10.0   .     S
V11     V23    10.0   .     S
V11     V44    10.001   .     S
V12     V11    10.0   1_545     S
V12     V17    10.0   .     S
V12     V29    10.001   .     S
V13     V14    10.0   1_556     S
V13     V16    10.0   .     S
V13     V28    10.001   .     S
V14     V13    10.0   1_554     S
V14     V30    10.001   .     S
V15     V16    10.0   1_655     S
V15     V18    10.0   .     S
V15     V20    10.0   .     S
V15     V38    10.001   .     S
V16     V15    10.0   1_455     S
V16     V25    10.001   .     S
V17     V18    10.0   1_554     S
V17     V42    10.001   .     S
V18     V17    10.0   1_556     S
V18     V20    10.0   .     S
V18     V35    10.001   .     S
V19     V20    10.0   1_565     S
V19     V24    10.0   .     S
V19     V39    10.001   .     S
V20     V19    10.0   1_545     S
V20     V31    10.001   .     S
V21     V22    10.0   1_455     S
V21     V34    10.001   .     S
V22     V21    10.0   1_655     S
V22     V23    10.0   .     S
V22     V41    10.001   .     S
V23     V24    10.0   1_554     S
V23     V47    10.001   .     S
V24     V23    10.0   1_556     S
V24     V37    10.001   .     S
V25     V26    10.0   .     S
V25     V28    10.0   .     S
V25     V36    10.0   .     S
V26     V30    10.0   .     S
V26     V46    10.0   .     S
V27     V28    10.0   .     S
V27     V33    10.0   .     S
V27     V40    10.0   .     S
V28     V36    10.0   .     S
V29     V30    10.0   .     S
V29     V32    10.0   .     S
V29     V42    10.0   .     S
V30     V46    10.0   .     S
V31     V32    10.0   .     S
V31     V35    10.0   .     S
V31     V38    10.0   .     S
V32     V42    10.0   .     S
V33     V34    10.0   .     S
V33     V40    10.0   .     S
V34     V45    10.0   .     S
V34     V48    10.0   .     S
V35     V36    10.0   .     S
V35     V38    10.0   .     S
V37     V38    10.0   .     S
V37     V39    10.0   .     S
V37     V43    10.0   .     S
V39     V40    10.0   .     S
V39     V43    10.0   .     S
V41     V42    10.0   .     S
V41     V44    10.0   .     S
V41     V47    10.0   .     S
V43     V44    10.0   .     S
V44     V47    10.0   .     S
V45     V46    10.0   .     S
V45     V48    10.0   .     S
V47     V48    10.0   .     S
