data_ulj
_audit_creation_date              2020-02-04
_audit_creation_method            'Pymatgen'
_symmetry_space_group_name_H-M    'P1'
_symmetry_Int_Tables_number       1
loop_
_symmetry_equiv_pos_as_xyz
  x,y,z
_cell_length_a                    44.6895
_cell_length_b                    44.6895
_cell_length_c                    44.6895
_cell_angle_alpha                 90.0
_cell_angle_beta                 90.0
_cell_angle_gamma                 90.0
loop_
_atom_site_label
_atom_site_type_symbol
_atom_site_fract_x
_atom_site_fract_y
_atom_site_fract_z
V1     V     0.9877   0.8829   0.0649
V2     V     0.8829   0.0649   0.9877
V3     V     0.0649   0.9877   0.8829
V4     V     0.2623   0.3149   0.8671
V5     V     0.1851   0.1329   0.7623
V6     V     0.3671   0.2377   0.6851
V7     V     0.3149   0.8671   0.2623
V8     V     0.2377   0.6851   0.3671
V9     V     0.1329   0.7623   0.1851
V10     V     0.9877   0.1171   0.4351
V11     V     0.8829   0.9351   0.5123
V12     V     0.0649   0.0123   0.6171
V13     V     0.1851   0.8671   0.7377
V14     V     0.2623   0.6851   0.6329
V15     V     0.3671   0.7623   0.8149
V16     V     0.4351   0.9877   0.1171
V17     V     0.6171   0.0649   0.0123
V18     V     0.5123   0.8829   0.9351
V19     V     0.7377   0.1851   0.8671
V20     V     0.6329   0.2623   0.6851
V21     V     0.8149   0.3671   0.7623
V22     V     0.0123   0.6171   0.0649
V23     V     0.1171   0.4351   0.9877
V24     V     0.9351   0.5123   0.8829
V25     V     0.6329   0.7377   0.8149
V26     V     0.8149   0.6329   0.7377
V27     V     0.7377   0.8149   0.6329
V28     V     0.5649   0.5123   0.1171
V29     V     0.4877   0.6171   0.9351
V30     V     0.3829   0.4351   0.0123
V31     V     0.8671   0.7377   0.1851
V32     V     0.6851   0.6329   0.2623
V33     V     0.7623   0.8149   0.3671
V34     V     0.5123   0.1171   0.5649
V35     V     0.6171   0.9351   0.4877
V36     V     0.4351   0.0123   0.3829
V37     V     0.1329   0.2377   0.3149
V38     V     0.3149   0.1329   0.2377
V39     V     0.2377   0.3149   0.1329
V40     V     0.1171   0.5649   0.5123
V41     V     0.0123   0.3829   0.4351
V42     V     0.9351   0.4877   0.6171
V43     V     0.3829   0.5649   0.4877
V44     V     0.4877   0.3829   0.5649
V45     V     0.5649   0.4877   0.3829
V46     V     0.7623   0.1851   0.1329
V47     V     0.8671   0.2623   0.3149
V48     V     0.6851   0.3671   0.2377
loop_
_geom_bond_atom_site_label_1
_geom_bond_atom_site_label_2
_geom_bond_distance
_geom_bond_site_symmetry_2
_ccdc_geom_bond_type
V1     V3    10.0   1_654     S
V1     V2    10.0   1_564     S
V1     V9    10.0   1_655     S
V1     V31    10.0   .     S
V2     V1    10.0   1_546     S
V2     V3    10.0   1_645     S
V2     V19    10.0   .     S
V2     V46    10.0   1_556     S
V3     V1    10.0   1_456     S
V3     V2    10.0   1_465     S
V3     V5    10.0   1_565     S
V3     V13    10.0   .     S
V4     V6    10.0   .     S
V4     V5    10.0   .     S
V4     V23    10.0   .     S
V4     V30    10.0   1_556     S
V5     V3    10.0   1_545     S
V5     V6    10.0   .     S
V5     V12    10.0   .     S
V6     V34    10.0   .     S
V6     V44    10.0   .     S
V7     V9    10.0   .     S
V7     V8    10.0   .     S
V7     V16    10.0   .     S
V7     V36    10.0   1_565     S
V8     V9    10.0   .     S
V8     V40    10.0   .     S
V8     V43    10.0   .     S
V9     V1    10.0   1_455     S
V9     V22    10.0   .     S
V10     V11    10.0   1_545     S
V10     V12    10.0   1_655     S
V10     V47    10.0   .     S
V10     V37    10.0   1_655     S
V11     V12    10.0   1_665     S
V11     V10    10.0   1_565     S
V11     V33    10.0   .     S
V11     V27    10.0   .     S
V12     V11    10.0   1_445     S
V12     V10    10.0   1_455     S
V12     V13    10.0   1_545     S
V13     V14    10.0   .     S
V13     V15    10.0   .     S
V13     V12    10.0   1_565     S
V14     V15    10.0   .     S
V14     V40    10.0   .     S
V14     V43    10.0   .     S
V15     V29    10.0   .     S
V15     V18    10.0   .     S
V16     V18    10.0   1_554     S
V16     V17    10.0   1_565     S
V16     V38    10.0   1_565     S
V17     V16    10.0   1_545     S
V17     V18    10.0   1_544     S
V17     V19    10.0   1_554     S
V17     V46    10.0   .     S
V18     V16    10.0   1_556     S
V18     V17    10.0   1_566     S
V18     V25    10.0   .     S
V19     V20    10.0   .     S
V19     V21    10.0   .     S
V19     V17    10.0   1_556     S
V20     V21    10.0   .     S
V20     V34    10.0   .     S
V20     V44    10.0   .     S
V21     V42    10.0   .     S
V21     V24    10.0   .     S
V22     V23    10.0   1_554     S
V22     V24    10.0   1_454     S
V22     V31    10.0   1_455     S
V23     V22    10.0   1_556     S
V23     V24    10.0   1_455     S
V23     V39    10.0   1_556     S
V24     V23    10.0   1_655     S
V24     V22    10.0   1_656     S
V24     V26    10.0   .     S
V25     V27    10.0   .     S
V25     V26    10.0   .     S
V25     V29    10.0   .     S
V26     V27    10.0   .     S
V26     V42    10.0   .     S
V27     V35    10.0   .     S
V28     V29    10.0   1_554     S
V28     V30    10.0   .     S
V28     V32    10.0   .     S
V28     V48    10.0   .     S
V29     V28    10.0   1_556     S
V29     V30    10.0   1_556     S
V30     V29    10.0   1_554     S
V30     V4    10.0   1_554     S
V30     V39    10.0   .     S
V31     V33    10.0   .     S
V31     V32    10.0   .     S
V31     V22    10.0   1_655     S
V32     V33    10.0   .     S
V32     V45    10.0   .     S
V33     V35    10.0   .     S
V34     V35    10.0   1_545     S
V34     V36    10.0   .     S
V35     V34    10.0   1_565     S
V35     V36    10.0   1_565     S
V36     V35    10.0   1_545     S
V36     V38    10.0   .     S
V36     V7    10.0   1_545     S
V37     V39    10.0   .     S
V37     V38    10.0   .     S
V37     V41    10.0   .     S
V37     V10    10.0   1_455     S
V38     V39    10.0   .     S
V38     V16    10.0   1_545     S
V39     V23    10.0   1_554     S
V40     V42    10.0   1_455     S
V40     V41    10.0   .     S
V41     V42    10.0   1_455     S
V41     V47    10.0   1_455     S
V42     V40    10.0   1_655     S
V42     V41    10.0   1_655     S
V43     V45    10.0   .     S
V43     V44    10.0   .     S
V44     V45    10.0   .     S
V45     V48    10.0   .     S
V46     V2    10.0   1_554     S
V46     V47    10.0   .     S
V46     V48    10.0   .     S
V47     V48    10.0   .     S
V47     V41    10.0   1_655     S
