data_umk
_audit_creation_date              2020-02-04
_audit_creation_method            'Pymatgen'
_symmetry_space_group_name_H-M    'P1'
_symmetry_Int_Tables_number       1
loop_
_symmetry_equiv_pos_as_xyz
  x,y,z
_cell_length_a                    44.0816
_cell_length_b                    44.0816
_cell_length_c                    29.0393
_cell_angle_alpha                 90.0
_cell_angle_beta                 90.0
_cell_angle_gamma                 120.0
loop_
_atom_site_label
_atom_site_type_symbol
_atom_site_fract_x
_atom_site_fract_y
_atom_site_fract_z
V1     V     0.3333   0.869   0.5778
V2     V     0.131   0.6667   0.4222
V3     V     0.3333   0.869   0.9222
V4     V     0.131   0.6667   0.0778
V5     V     0.131   0.4643   0.5778
V6     V     0.3333   0.4643   0.4222
V7     V     0.131   0.4643   0.9222
V8     V     0.3333   0.4643   0.0778
V9     V     0.5357   0.869   0.4222
V10     V     0.5357   0.6667   0.5778
V11     V     0.5357   0.869   0.0778
V12     V     0.5357   0.6667   0.9222
V13     V     0.869   0.3333   0.9222
V14     V     0.6667   0.131   0.0778
V15     V     0.869   0.3333   0.5778
V16     V     0.6667   0.131   0.4222
V17     V     0.4643   0.131   0.9222
V18     V     0.4643   0.3333   0.0778
V19     V     0.4643   0.131   0.5778
V20     V     0.4643   0.3333   0.4222
V21     V     0.6667   0.5357   0.9222
V22     V     0.869   0.5357   0.0778
V23     V     0.6667   0.5357   0.5778
V24     V     0.869   0.5357   0.4222
loop_
_geom_bond_atom_site_label_1
_geom_bond_atom_site_label_2
_geom_bond_distance
_geom_bond_site_symmetry_2
_ccdc_geom_bond_type
V1     V2    10.0   .     S
V1     V3    10.0   .     S
V1     V9    10.0   .     S
V1     V19    10.001   1_565     S
V2     V4    10.0   .     S
V2     V5    10.0   .     S
V2     V24    10.001   1_455     S
V3     V4    10.0   1_556     S
V3     V11    10.0   1_556     S
V3     V17    10.001   1_565     S
V4     V3    10.0   1_554     S
V4     V7    10.0   1_554     S
V4     V22    10.001   1_455     S
V5     V6    10.0   .     S
V5     V7    10.0   .     S
V5     V15    10.001   1_455     S
V6     V8    10.0   .     S
V6     V10    10.0   .     S
V6     V20    10.001   .     S
V7     V4    10.0   1_556     S
V7     V8    10.0   1_556     S
V7     V13    10.001   1_455     S
V8     V7    10.0   1_554     S
V8     V12    10.0   1_554     S
V8     V18    10.001   .     S
V9     V10    10.0   .     S
V9     V11    10.0   .     S
V9     V16    10.001   1_565     S
V10     V12    10.0   .     S
V10     V23    10.001   .     S
V11     V3    10.0   1_554     S
V11     V12    10.0   1_554     S
V11     V14    10.001   1_565     S
V12     V11    10.0   1_556     S
V12     V8    10.0   1_556     S
V12     V21    10.001   .     S
V13     V14    10.0   1_556     S
V13     V15    10.0   .     S
V13     V22    10.0   1_556     S
V13     V7    10.001   1_655     S
V14     V13    10.0   1_554     S
V14     V16    10.0   .     S
V14     V17    10.0   1_554     S
V14     V11    10.001   1_545     S
V15     V16    10.0   .     S
V15     V24    10.0   .     S
V15     V5    10.001   1_655     S
V16     V19    10.0   .     S
V16     V9    10.001   1_545     S
V17     V14    10.0   1_556     S
V17     V18    10.0   1_556     S
V17     V19    10.0   .     S
V17     V3    10.001   1_545     S
V18     V17    10.0   1_554     S
V18     V20    10.0   .     S
V18     V21    10.0   1_554     S
V19     V20    10.0   .     S
V19     V1    10.001   1_545     S
V20     V23    10.0   .     S
V21     V22    10.0   1_556     S
V21     V23    10.0   .     S
V21     V18    10.0   1_556     S
V22     V13    10.0   1_554     S
V22     V21    10.0   1_554     S
V22     V24    10.0   .     S
V22     V4    10.001   1_655     S
V23     V24    10.0   .     S
V24     V2    10.001   1_655     S
