data_uml
_audit_creation_date              2020-02-04
_audit_creation_method            'Pymatgen'
_symmetry_space_group_name_H-M    'P1'
_symmetry_Int_Tables_number       1
loop_
_symmetry_equiv_pos_as_xyz
  x,y,z
_cell_length_a                    66.3798
_cell_length_b                    66.3798
_cell_length_c                    19.2522
_cell_angle_alpha                 90.0
_cell_angle_beta                 90.0
_cell_angle_gamma                 120.0
loop_
_atom_site_label
_atom_site_type_symbol
_atom_site_fract_x
_atom_site_fract_y
_atom_site_fract_z
V1     V     0.0236   0.4393   0.5
V2     V     0.9764   0.5607   0.5
V3     V     0.9764   0.4157   1.0
V4     V     0.0236   0.5843   0.0
V5     V     0.3569   0.251   0.6667
V6     V     0.3098   0.0824   0.6667
V7     V     0.3569   0.1059   0.1667
V8     V     0.3098   0.2274   0.1667
V9     V     0.251   0.8941   0.3333
V10     V     0.0824   0.7726   0.3333
V11     V     0.1059   0.749   0.8333
V12     V     0.2274   0.9176   0.8333
V13     V     0.1059   0.3569   0.3333
V14     V     0.2274   0.3098   0.3333
V15     V     0.251   0.3569   0.8333
V16     V     0.0824   0.3098   0.8333
V17     V     0.4393   0.4157   0.5
V18     V     0.5607   0.5843   0.5
V19     V     0.5843   0.5607   1.0
V20     V     0.4157   0.4393   0.0
V21     V     0.4393   0.0236   1.0
V22     V     0.5607   0.9764   0.0
V23     V     0.5843   0.0236   0.5
V24     V     0.4157   0.9764   0.5
V25     V     0.749   0.1059   0.6667
V26     V     0.9176   0.2274   0.6667
V27     V     0.8941   0.251   0.1667
V28     V     0.7726   0.0824   0.1667
V29     V     0.9176   0.6902   0.1667
V30     V     0.749   0.6431   0.1667
V31     V     0.7726   0.6902   0.6667
V32     V     0.8941   0.6431   0.6667
V33     V     0.6902   0.7726   0.8333
V34     V     0.6431   0.8941   0.8333
V35     V     0.6431   0.749   0.3333
V36     V     0.6902   0.9176   0.3333
loop_
_geom_bond_atom_site_label_1
_geom_bond_atom_site_label_2
_geom_bond_distance
_geom_bond_site_symmetry_2
_ccdc_geom_bond_type
V1     V3    10.0   1_454     S
V1     V2    10.0   1_455     S
V1     V3    10.0   1_455     S
V1     V13    10.001   .     S
V2     V32    10.001   .     S
V2     V4    10.0   1_656     S
V2     V4    10.0   1_655     S
V2     V1    10.0   1_655     S
V3     V27    10.001   1_556     S
V3     V1    10.0   1_656     S
V3     V1    10.0   1_655     S
V3     V4    10.0   1_656     S
V4     V2    10.0   1_454     S
V4     V2    10.0   1_455     S
V4     V3    10.0   1_454     S
V4     V11    10.001   1_554     S
V5     V8    10.0   .     S
V5     V6    10.0   .     S
V5     V8    10.0   1_556     S
V5     V17    10.001   .     S
V6     V12    10.001   1_545     S
V6     V7    10.0   1_556     S
V6     V7    10.0   .     S
V7     V21    10.001   1_554     S
V7     V6    10.0   1_554     S
V7     V8    10.0   .     S
V8     V5    10.0   1_554     S
V8     V14    10.001   .     S
V9     V12    10.0   .     S
V9     V10    10.0   .     S
V9     V12    10.0   1_554     S
V9     V24    10.001   .     S
V10     V29    10.001   1_455     S
V10     V11    10.0   1_554     S
V10     V11    10.0   .     S
V11     V4    10.001   1_556     S
V11     V10    10.0   1_556     S
V11     V12    10.0   .     S
V12     V6    10.001   1_565     S
V12     V9    10.0   1_556     S
V13     V16    10.0   .     S
V13     V16    10.0   1_554     S
V13     V14    10.0   .     S
V14     V15    10.0   1_554     S
V14     V15    10.0   .     S
V15     V14    10.0   1_556     S
V15     V16    10.0   .     S
V15     V20    10.001   1_556     S
V16     V26    10.001   1_455     S
V16     V13    10.0   1_556     S
V17     V20    10.0   1_556     S
V17     V20    10.0   .     S
V17     V18    10.0   .     S
V18     V19    10.0   1_554     S
V18     V19    10.0   .     S
V18     V35    10.001   .     S
V19     V30    10.001   1_556     S
V19     V18    10.0   1_556     S
V19     V20    10.0   1_556     S
V20     V15    10.001   1_554     S
V20     V17    10.0   1_554     S
V20     V19    10.0   1_554     S
V21     V7    10.001   1_556     S
V21     V24    10.0   1_546     S
V21     V24    10.0   1_545     S
V21     V22    10.0   1_546     S
V22     V34    10.001   1_554     S
V22     V23    10.0   1_564     S
V22     V21    10.0   1_564     S
V22     V23    10.0   1_565     S
V23     V22    10.0   1_546     S
V23     V22    10.0   1_545     S
V23     V24    10.0   1_545     S
V23     V25    10.001   .     S
V24     V21    10.0   1_564     S
V24     V21    10.0   1_565     S
V24     V23    10.0   1_565     S
V25     V28    10.0   .     S
V25     V26    10.0   .     S
V25     V28    10.0   1_556     S
V26     V16    10.001   1_655     S
V26     V27    10.0   1_556     S
V26     V27    10.0   .     S
V27     V3    10.001   1_554     S
V27     V26    10.0   1_554     S
V27     V28    10.0   .     S
V28     V36    10.001   1_545     S
V28     V25    10.0   1_554     S
V29     V10    10.001   1_655     S
V29     V32    10.0   .     S
V29     V32    10.0   1_554     S
V29     V30    10.0   .     S
V30     V19    10.001   1_554     S
V30     V31    10.0   1_554     S
V30     V31    10.0   .     S
V31     V30    10.0   1_556     S
V31     V32    10.0   .     S
V31     V33    10.001   .     S
V32     V29    10.0   1_556     S
V33     V35    10.0   .     S
V33     V34    10.0   .     S
V33     V35    10.0   1_556     S
V34     V22    10.001   1_556     S
V34     V36    10.0   1_556     S
V34     V36    10.0   .     S
V35     V33    10.0   1_554     S
V35     V36    10.0   .     S
V36     V28    10.001   1_565     S
V36     V34    10.0   1_554     S
