data_umm
_audit_creation_date              2020-02-04
_audit_creation_method            'Pymatgen'
_symmetry_space_group_name_H-M    'P1'
_symmetry_Int_Tables_number       1
loop_
_symmetry_equiv_pos_as_xyz
  x,y,z
_cell_length_a                    38.3194
_cell_length_b                    38.3194
_cell_length_c                    19.2569
_cell_angle_alpha                 90.0
_cell_angle_beta                 90.0
_cell_angle_gamma                 120.0
loop_
_atom_site_label
_atom_site_type_symbol
_atom_site_fract_x
_atom_site_fract_y
_atom_site_fract_z
V1     V     0.1451   0.6078   0.4167
V2     V     0.8549   0.3922   0.4167
V3     V     0.3922   0.8549   0.25
V4     V     0.6078   0.1451   0.25
V5     V     0.4627   0.8549   0.75
V6     V     0.5373   0.1451   0.75
V7     V     0.4627   0.6078   0.5833
V8     V     0.5373   0.3922   0.5833
V9     V     0.1451   0.5373   0.9167
V10     V     0.8549   0.4627   0.9167
V11     V     0.3922   0.5373   0.0833
V12     V     0.6078   0.4627   0.0833
loop_
_geom_bond_atom_site_label_1
_geom_bond_atom_site_label_2
_geom_bond_distance
_geom_bond_site_symmetry_2
_ccdc_geom_bond_type
V1     V3    10.0   .     S
V1     V2    9.999   1_455     S
V1     V9    10.0   1_554     S
V1     V9    10.0   .     S
V2     V1    9.999   1_655     S
V2     V4    10.0   .     S
V2     V10    10.0   1_554     S
V2     V10    10.0   .     S
V3     V5    10.0   1_554     S
V3     V4    9.999   1_565     S
V3     V5    10.0   .     S
V4     V6    10.0   1_554     S
V4     V3    9.999   1_545     S
V4     V6    10.0   .     S
V5     V3    10.0   1_556     S
V5     V6    9.999   1_565     S
V5     V7    10.0   .     S
V6     V4    10.0   1_556     S
V6     V8    10.0   .     S
V6     V5    9.999   1_545     S
V7     V8    9.999   .     S
V7     V11    10.0   1_556     S
V7     V11    10.0   .     S
V8     V12    10.0   1_556     S
V8     V12    10.0   .     S
V9     V11    10.0   1_556     S
V9     V10    9.999   1_455     S
V9     V1    10.0   1_556     S
V10     V9    9.999   1_655     S
V10     V2    10.0   1_556     S
V10     V12    10.0   1_556     S
V11     V7    10.0   1_554     S
V11     V9    10.0   1_554     S
V11     V12    9.999   .     S
V12     V8    10.0   1_554     S
V12     V10    10.0   1_554     S
