data_umq
_audit_creation_date              2020-02-04
_audit_creation_method            'Pymatgen'
_symmetry_space_group_name_H-M    'P1'
_symmetry_Int_Tables_number       1
loop_
_symmetry_equiv_pos_as_xyz
  x,y,z
_cell_length_a                    45.0382
_cell_length_b                    45.0382
_cell_length_c                    28.5114
_cell_angle_alpha                 90.0
_cell_angle_beta                 90.0
_cell_angle_gamma                 90.0
loop_
_atom_site_label
_atom_site_type_symbol
_atom_site_fract_x
_atom_site_fract_y
_atom_site_fract_z
V1     V     0.3995   0.7425   0.3246
V2     V     0.6005   0.7425   0.1754
V3     V     0.7575   0.1005   0.3246
V4     V     0.7575   0.8995   0.1754
V5     V     0.6005   0.2575   0.3246
V6     V     0.3995   0.2575   0.1754
V7     V     0.2425   0.8995   0.3246
V8     V     0.2425   0.1005   0.1754
V9     V     0.3995   0.7425   0.6754
V10     V     0.6005   0.7425   0.8246
V11     V     0.7575   0.1005   0.6754
V12     V     0.7575   0.8995   0.8246
V13     V     0.6005   0.2575   0.6754
V14     V     0.3995   0.2575   0.8246
V15     V     0.2425   0.8995   0.6754
V16     V     0.2425   0.1005   0.8246
V17     V     0.7425   0.6005   0.3246
V18     V     0.7425   0.3995   0.1754
V19     V     0.8995   0.7575   0.3246
V20     V     0.1005   0.7575   0.1754
V21     V     0.1005   0.2425   0.3246
V22     V     0.8995   0.2425   0.1754
V23     V     0.2575   0.3995   0.3246
V24     V     0.2575   0.6005   0.1754
V25     V     0.7425   0.6005   0.6754
V26     V     0.7425   0.3995   0.8246
V27     V     0.8995   0.7575   0.6754
V28     V     0.1005   0.7575   0.8246
V29     V     0.2575   0.3995   0.6754
V30     V     0.2575   0.6005   0.8246
V31     V     0.1005   0.2425   0.6754
V32     V     0.8995   0.2425   0.8246
loop_
_geom_bond_atom_site_label_1
_geom_bond_atom_site_label_2
_geom_bond_distance
_geom_bond_site_symmetry_2
_ccdc_geom_bond_type
V1     V2    10.0   .     S
V1     V7    10.0   .     S
V1     V9    10.0   .     S
V1     V24    10.0   .     S
V2     V4    10.0   .     S
V2     V10    10.0   1_554     S
V2     V17    10.0   .     S
V3     V4    10.0   1_545     S
V3     V5    10.0   .     S
V3     V11    10.0   .     S
V3     V22    10.0   .     S
V4     V3    10.0   1_565     S
V4     V12    10.0   1_554     S
V4     V19    10.0   .     S
V5     V6    10.0   .     S
V5     V13    10.0   .     S
V5     V18    10.0   .     S
V6     V8    10.0   .     S
V6     V14    10.0   1_554     S
V6     V23    10.0   .     S
V7     V8    10.0   1_565     S
V7     V15    10.0   .     S
V7     V20    10.0   .     S
V8     V7    10.0   1_545     S
V8     V16    10.0   1_554     S
V8     V21    10.0   .     S
V9     V10    10.0   .     S
V9     V15    10.0   .     S
V9     V30    10.0   .     S
V10     V12    10.0   .     S
V10     V2    10.0   1_556     S
V10     V25    10.0   .     S
V11     V12    10.0   1_545     S
V11     V13    10.0   .     S
V11     V32    10.0   .     S
V12     V11    10.0   1_565     S
V12     V4    10.0   1_556     S
V12     V27    10.0   .     S
V13     V14    10.0   .     S
V13     V26    10.0   .     S
V14     V16    10.0   .     S
V14     V6    10.0   1_556     S
V14     V29    10.0   .     S
V15     V16    10.0   1_565     S
V15     V28    10.0   .     S
V16     V15    10.0   1_545     S
V16     V8    10.0   1_556     S
V16     V31    10.0   .     S
V17     V18    10.0   .     S
V17     V19    10.0   .     S
V17     V25    10.0   .     S
V18     V22    10.0   .     S
V18     V26    10.0   1_554     S
V19     V20    10.0   1_655     S
V19     V27    10.0   .     S
V20     V19    10.0   1_455     S
V20     V24    10.0   .     S
V20     V28    10.0   1_554     S
V21     V22    10.0   1_455     S
V21     V23    10.0   .     S
V21     V31    10.0   .     S
V22     V21    10.0   1_655     S
V22     V32    10.0   1_554     S
V23     V24    10.0   .     S
V23     V29    10.0   .     S
V24     V30    10.0   1_554     S
V25     V26    10.0   .     S
V25     V27    10.0   .     S
V26     V32    10.0   .     S
V26     V18    10.0   1_556     S
V27     V28    10.0   1_655     S
V28     V27    10.0   1_455     S
V28     V30    10.0   .     S
V28     V20    10.0   1_556     S
V29     V30    10.0   .     S
V29     V31    10.0   .     S
V30     V24    10.0   1_556     S
V31     V32    10.0   1_455     S
V32     V31    10.0   1_655     S
V32     V22    10.0   1_556     S
