data_ums
_audit_creation_date              2020-02-04
_audit_creation_method            'Pymatgen'
_symmetry_space_group_name_H-M    'P1'
_symmetry_Int_Tables_number       1
loop_
_symmetry_equiv_pos_as_xyz
  x,y,z
_cell_length_a                    68.5444
_cell_length_b                    68.5444
_cell_length_c                    15.8788
_cell_angle_alpha                 90.0
_cell_angle_beta                 90.0
_cell_angle_gamma                 120.0
loop_
_atom_site_label
_atom_site_type_symbol
_atom_site_fract_x
_atom_site_fract_y
_atom_site_fract_z
V1     V     0.7455   0.9171   0.1939
V2     V     0.8284   0.0829   0.3061
V3     V     0.0829   0.2545   0.6939
V4     V     0.9171   0.1716   0.8061
V5     V     0.1716   0.9171   0.6939
V6     V     0.2545   0.0829   0.8061
V7     V     0.2545   0.1716   0.3061
V8     V     0.1716   0.2545   0.1939
V9     V     0.0829   0.8284   0.1939
V10     V     0.9171   0.7455   0.3061
V11     V     0.8284   0.7455   0.8061
V12     V     0.7455   0.8284   0.6939
V13     V     0.7495   0.1618   0.5272
V14     V     0.5838   0.0789   0.6395
V15     V     0.4951   0.0789   0.1395
V16     V     0.4122   0.1618   0.0272
V17     V     0.4122   0.2505   0.5272
V18     V     0.4951   0.4162   0.6395
V19     V     0.5838   0.5049   0.1395
V20     V     0.7495   0.5878   0.0272
V21     V     0.8382   0.5878   0.5272
V22     V     0.9211   0.5049   0.6395
V23     V     0.8382   0.2505   0.0272
V24     V     0.9211   0.4162   0.1395
V25     V     0.0789   0.5838   0.8605
V26     V     0.1618   0.7495   0.9728
V27     V     0.1618   0.4122   0.4728
V28     V     0.0789   0.4951   0.3605
V29     V     0.2505   0.8382   0.4728
V30     V     0.4162   0.9211   0.3605
V31     V     0.5878   0.8382   0.9728
V32     V     0.5049   0.9211   0.8605
V33     V     0.2505   0.4122   0.9728
V34     V     0.4162   0.4951   0.8605
V35     V     0.5049   0.5838   0.3605
V36     V     0.5878   0.7495   0.4728
loop_
_geom_bond_atom_site_label_1
_geom_bond_atom_site_label_2
_geom_bond_distance
_geom_bond_site_symmetry_2
_ccdc_geom_bond_type
V1     V31    10.0   1_554     S
V1     V2    10.0   1_565     S
V1     V12    10.0   .     S
V1     V12    10.0   1_554     S
V2     V13    10.0   .     S
V2     V1    10.0   1_545     S
V2     V4    10.0   1_554     S
V2     V4    10.0   .     S
V3     V4    10.0   1_455     S
V3     V8    10.0   .     S
V3     V8    10.0   1_556     S
V3     V27    10.0   .     S
V4     V3    10.0   1_655     S
V4     V2    10.0   1_556     S
V4     V23    10.0   1_556     S
V5     V6    10.0   1_565     S
V5     V9    10.0   1_556     S
V5     V9    10.0   .     S
V5     V29    10.0   .     S
V6     V16    10.0   1_556     S
V6     V5    10.0   1_545     S
V6     V7    10.0   .     S
V6     V7    10.0   1_556     S
V7     V17    10.0   .     S
V7     V8    10.0   .     S
V7     V6    10.0   1_554     S
V8     V3    10.0   1_554     S
V8     V33    10.0   1_554     S
V9     V26    10.0   1_554     S
V9     V5    10.0   1_554     S
V9     V10    10.0   1_455     S
V10     V21    10.0   .     S
V10     V9    10.0   1_655     S
V10     V11    10.0   .     S
V10     V11    10.0   1_554     S
V11     V20    10.0   1_556     S
V11     V12    10.0   .     S
V11     V10    10.0   1_556     S
V12     V36    10.0   .     S
V12     V1    10.0   1_556     S
V13     V14    10.0   .     S
V13     V23    10.0   1_556     S
V13     V23    10.0   .     S
V14     V15    10.0   .     S
V14     V15    10.0   1_556     S
V14     V32    10.0   1_545     S
V15     V30    10.0   1_545     S
V15     V14    10.0   1_554     S
V15     V16    10.0   .     S
V16     V6    10.0   1_554     S
V16     V17    10.0   1_554     S
V16     V17    10.0   .     S
V17     V16    10.0   1_556     S
V17     V18    10.0   .     S
V18     V34    10.0   .     S
V18     V19    10.0   1_556     S
V18     V19    10.0   .     S
V19     V35    10.0   .     S
V19     V20    10.0   .     S
V19     V18    10.0   1_554     S
V20     V11    10.0   1_554     S
V20     V21    10.0   1_554     S
V20     V21    10.0   .     S
V21     V22    10.0   .     S
V21     V20    10.0   1_556     S
V22     V25    10.0   1_655     S
V22     V24    10.0   1_556     S
V22     V24    10.0   .     S
V23     V4    10.0   1_554     S
V23     V24    10.0   .     S
V23     V13    10.0   1_554     S
V24     V28    10.0   1_655     S
V24     V22    10.0   1_554     S
V25     V22    10.0   1_455     S
V25     V26    10.0   .     S
V25     V28    10.0   .     S
V25     V28    10.0   1_556     S
V26     V9    10.0   1_556     S
V26     V29    10.0   1_556     S
V26     V29    10.0   .     S
V27     V28    10.0   .     S
V27     V33    10.0   1_554     S
V27     V33    10.0   .     S
V28     V24    10.0   1_455     S
V28     V25    10.0   1_554     S
V29     V30    10.0   .     S
V29     V26    10.0   1_554     S
V30     V15    10.0   1_565     S
V30     V32    10.0   .     S
V30     V32    10.0   1_554     S
V31     V1    10.0   1_556     S
V31     V32    10.0   .     S
V31     V36    10.0   1_556     S
V31     V36    10.0   .     S
V32     V14    10.0   1_565     S
V32     V30    10.0   1_556     S
V33     V8    10.0   1_556     S
V33     V27    10.0   1_556     S
V33     V34    10.0   .     S
V34     V35    10.0   .     S
V34     V35    10.0   1_556     S
V35     V36    10.0   .     S
V35     V34    10.0   1_554     S
V36     V31    10.0   1_554     S
