data_umu
_audit_creation_date              2020-02-04
_audit_creation_method            'Pymatgen'
_symmetry_space_group_name_H-M    'P1'
_symmetry_Int_Tables_number       1
loop_
_symmetry_equiv_pos_as_xyz
  x,y,z
_cell_length_a                    57.2837
_cell_length_b                    57.2837
_cell_length_c                    16.3777
_cell_angle_alpha                 90.0
_cell_angle_beta                 90.0
_cell_angle_gamma                 90.0
loop_
_atom_site_label
_atom_site_type_symbol
_atom_site_fract_x
_atom_site_fract_y
_atom_site_fract_z
V1     V     0.0873   0.9499   0.25
V2     V     0.9127   0.9499   0.25
V3     V     0.8001   0.6627   0.0
V4     V     0.8001   0.8373   0.0
V5     V     0.0873   0.5501   0.25
V6     V     0.9127   0.5501   0.25
V7     V     0.1999   0.6627   0.0
V8     V     0.1999   0.8373   0.0
V9     V     0.1999   0.1627   0.0
V10     V     0.1999   0.3373   0.0
V11     V     0.0873   0.0501   0.75
V12     V     0.9127   0.0501   0.75
V13     V     0.0873   0.4499   0.75
V14     V     0.9127   0.4499   0.75
V15     V     0.8001   0.1627   0.0
V16     V     0.8001   0.3373   0.0
V17     V     0.3001   0.1627   0.5
V18     V     0.3001   0.3373   0.5
V19     V     0.6999   0.1627   0.5
V20     V     0.6999   0.3373   0.5
V21     V     0.4127   0.0501   0.75
V22     V     0.5873   0.0501   0.75
V23     V     0.5873   0.4499   0.75
V24     V     0.4127   0.4499   0.75
V25     V     0.6999   0.6627   0.5
V26     V     0.6999   0.8373   0.5
V27     V     0.4127   0.9499   0.25
V28     V     0.5873   0.9499   0.25
V29     V     0.4127   0.5501   0.25
V30     V     0.5873   0.5501   0.25
V31     V     0.3001   0.6627   0.5
V32     V     0.3001   0.8373   0.5
loop_
_geom_bond_atom_site_label_1
_geom_bond_atom_site_label_2
_geom_bond_distance
_geom_bond_site_symmetry_2
_ccdc_geom_bond_type
V1     V2    9.999   1_455     S
V1     V8    10.0   .     S
V1     V11    10.0   1_565     S
V1     V11    10.0   1_564     S
V2     V1    9.999   1_655     S
V2     V4    10.0   .     S
V2     V12    10.0   1_564     S
V2     V12    10.0   1_565     S
V3     V4    9.999   .     S
V3     V6    10.0   .     S
V3     V25    10.0   .     S
V3     V25    10.0   1_554     S
V4     V26    10.0   .     S
V4     V26    10.0   1_554     S
V5     V6    9.999   1_455     S
V5     V7    10.0   .     S
V5     V13    10.0   .     S
V5     V13    10.0   1_554     S
V6     V5    9.999   1_655     S
V6     V14    10.0   .     S
V6     V14    10.0   1_554     S
V7     V8    9.999   .     S
V7     V31    10.0   .     S
V7     V31    10.0   1_554     S
V8     V32    10.0   .     S
V8     V32    10.0   1_554     S
V9     V10    9.999   .     S
V9     V11    10.0   1_554     S
V9     V17    10.0   1_554     S
V9     V17    10.0   .     S
V10     V13    10.0   1_554     S
V10     V18    10.0   1_554     S
V10     V18    10.0   .     S
V11     V12    9.999   1_455     S
V11     V9    10.0   1_556     S
V11     V1    10.0   1_545     S
V11     V1    10.0   1_546     S
V12     V11    9.999   1_655     S
V12     V15    10.0   1_556     S
V12     V2    10.0   1_546     S
V12     V2    10.0   1_545     S
V13     V10    10.0   1_556     S
V13     V14    9.999   1_455     S
V13     V5    10.0   1_556     S
V14     V13    9.999   1_655     S
V14     V16    10.0   1_556     S
V14     V6    10.0   1_556     S
V15     V16    9.999   .     S
V15     V12    10.0   1_554     S
V15     V19    10.0   1_554     S
V15     V19    10.0   .     S
V16     V14    10.0   1_554     S
V16     V20    10.0   1_554     S
V16     V20    10.0   .     S
V17     V18    9.999   .     S
V17     V21    10.0   .     S
V17     V9    10.0   1_556     S
V18     V24    10.0   .     S
V18     V10    10.0   1_556     S
V19     V20    9.999   .     S
V19     V22    10.0   .     S
V19     V15    10.0   1_556     S
V20     V23    10.0   .     S
V20     V16    10.0   1_556     S
V21     V22    9.999   .     S
V21     V27    10.0   1_545     S
V21     V27    10.0   1_546     S
V22     V28    10.0   1_545     S
V22     V28    10.0   1_546     S
V23     V24    9.999   .     S
V23     V30    10.0   .     S
V23     V30    10.0   1_556     S
V24     V29    10.0   .     S
V24     V29    10.0   1_556     S
V25     V26    9.999   .     S
V25     V30    10.0   .     S
V25     V3    10.0   1_556     S
V26     V28    10.0   .     S
V26     V4    10.0   1_556     S
V27     V28    9.999   .     S
V27     V32    10.0   .     S
V27     V21    10.0   1_565     S
V27     V21    10.0   1_564     S
V28     V22    10.0   1_565     S
V28     V22    10.0   1_564     S
V29     V30    9.999   .     S
V29     V31    10.0   .     S
V29     V24    10.0   1_554     S
V30     V23    10.0   1_554     S
V31     V32    9.999   .     S
V31     V7    10.0   1_556     S
V32     V8    10.0   1_556     S
