data_umv
_audit_creation_date              2020-02-04
_audit_creation_method            'Pymatgen'
_symmetry_space_group_name_H-M    'P1'
_symmetry_Int_Tables_number       1
loop_
_symmetry_equiv_pos_as_xyz
  x,y,z
_cell_length_a                    63.1133
_cell_length_b                    16.2273
_cell_length_c                    51.7093
_cell_angle_alpha                 90.0
_cell_angle_beta                 90.0
_cell_angle_gamma                 90.0
loop_
_atom_site_label
_atom_site_type_symbol
_atom_site_fract_x
_atom_site_fract_y
_atom_site_fract_z
V1     V     0.9542   0.875   0.0685
V2     V     0.7958   0.875   0.0685
V3     V     0.9542   0.375   0.1815
V4     V     0.7958   0.375   0.1815
V5     V     0.5458   0.625   0.3185
V6     V     0.7042   0.625   0.3185
V7     V     0.5458   0.125   0.4315
V8     V     0.7042   0.125   0.4315
V9     V     0.9542   0.875   0.6815
V10     V     0.7958   0.875   0.6815
V11     V     0.9542   0.375   0.5685
V12     V     0.7958   0.375   0.5685
V13     V     0.5458   0.125   0.8185
V14     V     0.7042   0.125   0.8185
V15     V     0.5458   0.625   0.9315
V16     V     0.7042   0.625   0.9315
V17     V     0.0458   0.625   0.8185
V18     V     0.2042   0.625   0.8185
V19     V     0.0458   0.125   0.9315
V20     V     0.2042   0.125   0.9315
V21     V     0.4542   0.375   0.0685
V22     V     0.2958   0.375   0.0685
V23     V     0.4542   0.875   0.1815
V24     V     0.2958   0.875   0.1815
V25     V     0.4542   0.375   0.6815
V26     V     0.2958   0.375   0.6815
V27     V     0.4542   0.875   0.5685
V28     V     0.2958   0.875   0.5685
V29     V     0.0458   0.125   0.3185
V30     V     0.2042   0.125   0.3185
V31     V     0.0458   0.625   0.4315
V32     V     0.2042   0.625   0.4315
loop_
_geom_bond_atom_site_label_1
_geom_bond_atom_site_label_2
_geom_bond_distance
_geom_bond_site_symmetry_2
_ccdc_geom_bond_type
V1     V2    10.0   .     S
V1     V3    10.0   1_565     S
V1     V3    10.0   .     S
V1     V19    10.0   1_664     S
V2     V4    10.0   .     S
V2     V4    10.0   1_565     S
V2     V16    10.0   1_554     S
V3     V4    10.0   .     S
V3     V1    10.0   1_545     S
V3     V29    10.0   1_655     S
V4     V2    10.0   1_545     S
V4     V6    10.0   .     S
V5     V6    10.0   .     S
V5     V7    10.0   1_565     S
V5     V7    10.0   .     S
V5     V23    10.0   .     S
V6     V8    10.0   .     S
V6     V8    10.0   1_565     S
V7     V8    10.0   .     S
V7     V5    10.0   1_545     S
V7     V27    10.0   1_545     S
V8     V6    10.0   1_545     S
V8     V12    10.0   .     S
V9     V10    10.0   .     S
V9     V11    10.0   .     S
V9     V11    10.0   1_565     S
V9     V17    10.0   1_655     S
V10     V12    10.0   1_565     S
V10     V12    10.0   .     S
V10     V14    10.0   1_565     S
V11     V12    10.0   .     S
V11     V9    10.0   1_545     S
V11     V31    10.0   1_655     S
V12     V10    10.0   1_545     S
V13     V14    10.0   .     S
V13     V15    10.0   .     S
V13     V15    10.0   1_545     S
V13     V25    10.0   .     S
V14     V10    10.0   1_545     S
V14     V16    10.0   1_545     S
V14     V16    10.0   .     S
V15     V16    10.0   .     S
V15     V13    10.0   1_565     S
V15     V21    10.0   1_556     S
V16     V2    10.0   1_556     S
V16     V14    10.0   1_565     S
V17     V18    10.0   .     S
V17     V19    10.0   1_565     S
V17     V19    10.0   .     S
V17     V9    10.0   1_455     S
V18     V20    10.0   .     S
V18     V20    10.0   1_565     S
V18     V26    10.0   .     S
V19     V20    10.0   .     S
V19     V17    10.0   1_545     S
V19     V1    10.0   1_446     S
V20     V18    10.0   1_545     S
V20     V22    10.0   1_556     S
V21     V22    10.0   .     S
V21     V23    10.0   .     S
V21     V23    10.0   1_545     S
V21     V15    10.0   1_554     S
V22     V24    10.0   1_545     S
V22     V24    10.0   .     S
V22     V20    10.0   1_554     S
V23     V24    10.0   .     S
V23     V21    10.0   1_565     S
V24     V22    10.0   1_565     S
V24     V30    10.0   1_565     S
V25     V26    10.0   .     S
V25     V27    10.0   1_545     S
V25     V27    10.0   .     S
V26     V28    10.0   .     S
V26     V28    10.0   1_545     S
V27     V28    10.0   .     S
V27     V25    10.0   1_565     S
V27     V7    10.0   1_565     S
V28     V26    10.0   1_565     S
V28     V32    10.0   .     S
V29     V30    10.0   .     S
V29     V31    10.0   .     S
V29     V31    10.0   1_545     S
V29     V3    10.0   1_455     S
V30     V32    10.0   1_545     S
V30     V32    10.0   .     S
V30     V24    10.0   1_545     S
V31     V32    10.0   .     S
V31     V29    10.0   1_565     S
V31     V11    10.0   1_455     S
V32     V30    10.0   1_565     S
