data_unl
_audit_creation_date              2020-02-04
_audit_creation_method            'Pymatgen'
_symmetry_space_group_name_H-M    'P1'
_symmetry_Int_Tables_number       1
loop_
_symmetry_equiv_pos_as_xyz
  x,y,z
_cell_length_a                    43.7978
_cell_length_b                    43.7978
_cell_length_c                    27.4713
_cell_angle_alpha                 90.0
_cell_angle_beta                 90.0
_cell_angle_gamma                 120.0
loop_
_atom_site_label
_atom_site_type_symbol
_atom_site_fract_x
_atom_site_fract_y
_atom_site_fract_z
V1     V     0.4108   0.5293   0.0639
V2     V     0.5892   0.4707   0.9361
V3     V     0.9225   0.7851   0.1027
V4     V     0.7441   0.5482   0.2306
V5     V     0.2559   0.8041   0.2694
V6     V     0.0775   0.8626   0.3973
V7     V     0.5892   0.1185   0.4361
V8     V     0.4108   0.8815   0.5639
V9     V     0.9225   0.1374   0.6027
V10     V     0.7441   0.1959   0.7306
V11     V     0.2559   0.4518   0.7694
V12     V     0.0775   0.2149   0.8973
V13     V     0.8626   0.7851   0.6027
V14     V     0.8041   0.5482   0.7306
V15     V     0.2149   0.1374   0.1027
V16     V     0.4518   0.1959   0.2306
V17     V     0.8815   0.4707   0.4361
V18     V     0.1185   0.5293   0.5639
V19     V     0.1374   0.2149   0.3973
V20     V     0.1959   0.4518   0.2694
V21     V     0.4707   0.8815   0.0639
V22     V     0.5293   0.1185   0.9361
V23     V     0.7851   0.8626   0.8973
V24     V     0.5482   0.8041   0.7694
V25     V     0.1185   0.5892   0.0639
V26     V     0.8815   0.4108   0.9361
V27     V     0.2149   0.0775   0.6027
V28     V     0.4518   0.2559   0.7306
V29     V     0.1959   0.7441   0.7694
V30     V     0.1374   0.9225   0.8973
V31     V     0.5293   0.4108   0.4361
V32     V     0.4707   0.5892   0.5639
V33     V     0.8626   0.0775   0.1027
V34     V     0.8041   0.2559   0.2306
V35     V     0.7851   0.9225   0.3973
V36     V     0.5482   0.7441   0.2694
loop_
_geom_bond_atom_site_label_1
_geom_bond_atom_site_label_2
_geom_bond_distance
_geom_bond_site_symmetry_2
_ccdc_geom_bond_type
V1     V2    10.0   1_554     S
V1     V11    10.0   1_554     S
V1     V36    10.0   .     S
V1     V20    10.0   .     S
V2     V1    10.0   1_556     S
V2     V4    10.0   1_556     S
V2     V28    10.0   .     S
V2     V14    10.0   .     S
V3     V4    10.0   .     S
V3     V6    10.0   1_655     S
V3     V23    10.0   1_554     S
V3     V30    10.0   1_654     S
V4     V2    10.0   1_554     S
V4     V17    10.0   .     S
V4     V31    10.0   .     S
V5     V6    10.0   .     S
V5     V8    10.0   .     S
V5     V25    10.0   .     S
V5     V21    10.0   .     S
V6     V3    10.0   1_455     S
V6     V27    10.0   1_565     S
V6     V13    10.0   1_455     S
V7     V8    10.0   1_545     S
V7     V10    10.0   .     S
V7     V16    10.0   .     S
V7     V34    10.0   .     S
V8     V7    10.0   1_565     S
V8     V24    10.0   .     S
V8     V29    10.0   .     S
V9     V10    10.0   .     S
V9     V12    10.0   1_655     S
V9     V35    10.0   1_545     S
V9     V19    10.0   1_655     S
V10     V26    10.0   .     S
V10     V22    10.0   .     S
V11     V12    10.0   .     S
V11     V1    10.0   1_556     S
V11     V18    10.0   .     S
V11     V32    10.0   .     S
V12     V9    10.0   1_455     S
V12     V15    10.0   1_556     S
V12     V33    10.0   1_456     S
V13     V14    10.0   .     S
V13     V23    10.0   .     S
V13     V6    10.0   1_655     S
V13     V35    10.0   .     S
V14     V17    10.0   .     S
V14     V26    10.0   .     S
V15     V12    10.0   1_554     S
V15     V16    10.0   .     S
V15     V19    10.0   .     S
V15     V30    10.0   1_544     S
V16     V22    10.0   1_554     S
V16     V31    10.0   .     S
V17     V18    10.0   1_655     S
V17     V34    10.0   .     S
V18     V17    10.0   1_455     S
V18     V20    10.0   .     S
V18     V29    10.0   .     S
V19     V20    10.0   .     S
V19     V9    10.0   1_455     S
V19     V27    10.0   .     S
V20     V25    10.0   .     S
V21     V22    10.0   1_564     S
V21     V24    10.0   1_554     S
V21     V36    10.0   .     S
V22     V16    10.0   1_556     S
V22     V21    10.0   1_546     S
V22     V28    10.0   .     S
V23     V3    10.0   1_556     S
V23     V24    10.0   .     S
V23     V33    10.0   1_566     S
V24     V21    10.0   1_556     S
V24     V32    10.0   .     S
V25     V26    10.0   1_454     S
V25     V29    10.0   1_554     S
V26     V25    10.0   1_656     S
V26     V34    10.0   1_556     S
V27     V6    10.0   1_545     S
V27     V28    10.0   .     S
V27     V30    10.0   1_545     S
V28     V31    10.0   .     S
V29     V30    10.0   .     S
V29     V25    10.0   1_556     S
V30     V15    10.0   1_566     S
V30     V27    10.0   1_565     S
V30     V3    10.0   1_456     S
V31     V32    10.0   .     S
V32     V36    10.0   .     S
V33     V23    10.0   1_544     S
V33     V34    10.0   .     S
V33     V35    10.0   1_545     S
V33     V12    10.0   1_654     S
V34     V26    10.0   1_554     S
V35     V9    10.0   1_565     S
V35     V36    10.0   .     S
V35     V33    10.0   1_565     S
