data_unt
_audit_creation_date              2020-02-04
_audit_creation_method            'Pymatgen'
_symmetry_space_group_name_H-M    'P1'
_symmetry_Int_Tables_number       1
loop_
_symmetry_equiv_pos_as_xyz
  x,y,z
_cell_length_a                    70.6514
_cell_length_b                    70.6514
_cell_length_c                    70.6514
_cell_angle_alpha                 90.0
_cell_angle_beta                 90.0
_cell_angle_gamma                 90.0
loop_
_atom_site_label
_atom_site_type_symbol
_atom_site_fract_x
_atom_site_fract_y
_atom_site_fract_z
V1     V     0.8964   0.0708   0.8169
V2     V     0.8169   0.1036   0.9292
V3     V     0.9292   0.1831   0.8964
V4     V     0.8169   0.8964   0.0708
V5     V     0.8964   0.9292   0.1831
V6     V     0.9292   0.8169   0.1036
V7     V     0.9292   0.8169   0.8964
V8     V     0.8964   0.9292   0.8169
V9     V     0.8169   0.8964   0.9292
V10     V     0.0708   0.8169   0.8964
V11     V     0.1831   0.8964   0.9292
V12     V     0.1036   0.9292   0.8169
V13     V     0.0708   0.1831   0.8964
V14     V     0.1036   0.0708   0.8169
V15     V     0.1831   0.1036   0.9292
V16     V     0.1831   0.8964   0.0708
V17     V     0.0708   0.8169   0.1036
V18     V     0.1036   0.9292   0.1831
V19     V     0.8964   0.0708   0.1831
V20     V     0.8169   0.1036   0.0708
V21     V     0.9292   0.1831   0.1036
V22     V     0.1831   0.1036   0.0708
V23     V     0.0708   0.1831   0.1036
V24     V     0.1036   0.0708   0.1831
V25     V     0.6036   0.8169   0.0708
V26     V     0.5708   0.8964   0.1831
V27     V     0.6831   0.9292   0.1036
V28     V     0.4292   0.1036   0.8169
V29     V     0.3965   0.1831   0.9292
V30     V     0.3169   0.0708   0.8964
V31     V     0.5708   0.1036   0.8169
V32     V     0.6831   0.0708   0.8964
V33     V     0.6036   0.1831   0.9292
V34     V     0.5708   0.8964   0.8169
V35     V     0.6831   0.9292   0.8964
V36     V     0.6036   0.8169   0.9292
V37     V     0.4292   0.8964   0.8169
V38     V     0.3965   0.8169   0.9292
V39     V     0.3169   0.9292   0.8964
V40     V     0.5708   0.1036   0.1831
V41     V     0.6036   0.1831   0.0708
V42     V     0.6831   0.0708   0.1036
V43     V     0.4292   0.8964   0.1831
V44     V     0.3965   0.8169   0.0708
V45     V     0.3169   0.9292   0.1036
V46     V     0.3169   0.0708   0.1036
V47     V     0.4292   0.1036   0.1831
V48     V     0.3965   0.1831   0.0708
V49     V     0.6036   0.4292   0.8169
V50     V     0.6831   0.3965   0.9292
V51     V     0.5708   0.3169   0.8964
V52     V     0.3965   0.4292   0.8169
V53     V     0.4292   0.3169   0.8964
V54     V     0.3169   0.3965   0.9292
V55     V     0.6036   0.5708   0.8169
V56     V     0.5708   0.6831   0.8964
V57     V     0.6831   0.6036   0.9292
V58     V     0.4292   0.6831   0.8964
V59     V     0.3965   0.5708   0.8169
V60     V     0.3169   0.6036   0.9292
V61     V     0.5708   0.6831   0.1036
V62     V     0.6831   0.6036   0.0708
V63     V     0.6036   0.5708   0.1831
V64     V     0.6036   0.4292   0.1831
V65     V     0.6831   0.3965   0.0708
V66     V     0.5708   0.3169   0.1036
V67     V     0.3965   0.4292   0.1831
V68     V     0.4292   0.3169   0.1036
V69     V     0.3169   0.3965   0.0708
V70     V     0.4292   0.6831   0.1036
V71     V     0.3965   0.5708   0.1831
V72     V     0.3169   0.6036   0.0708
V73     V     0.8169   0.0708   0.6036
V74     V     0.9292   0.1036   0.6831
V75     V     0.8964   0.1831   0.5708
V76     V     0.8964   0.1831   0.4292
V77     V     0.8169   0.0708   0.3965
V78     V     0.9292   0.1036   0.3169
V79     V     0.8964   0.8169   0.4292
V80     V     0.8169   0.9292   0.3965
V81     V     0.9292   0.8964   0.3169
V82     V     0.8964   0.8169   0.5708
V83     V     0.9292   0.8964   0.6831
V84     V     0.8169   0.9292   0.6036
V85     V     0.1036   0.8169   0.4292
V86     V     0.1831   0.9292   0.3965
V87     V     0.0708   0.8964   0.3169
V88     V     0.1036   0.8169   0.5708
V89     V     0.0708   0.8964   0.6831
V90     V     0.1831   0.9292   0.6036
V91     V     0.1036   0.1831   0.5708
V92     V     0.1831   0.0708   0.6036
V93     V     0.0708   0.1036   0.6831
V94     V     0.0708   0.1036   0.3169
V95     V     0.1036   0.1831   0.4292
V96     V     0.1831   0.0708   0.3965
V97     V     0.3965   0.3169   0.4292
V98     V     0.3169   0.4292   0.3965
V99     V     0.4292   0.3965   0.3169
V100     V     0.6831   0.4292   0.6036
V101     V     0.5708   0.3965   0.6831
V102     V     0.6036   0.3169   0.5708
V103     V     0.6831   0.4292   0.3965
V104     V     0.6036   0.3169   0.4292
V105     V     0.5708   0.3965   0.3169
V106     V     0.6036   0.6831   0.4292
V107     V     0.6831   0.5708   0.3965
V108     V     0.5708   0.6036   0.3169
V109     V     0.6831   0.5708   0.6036
V110     V     0.6036   0.6831   0.5708
V111     V     0.5708   0.6036   0.6831
V112     V     0.3965   0.6831   0.4292
V113     V     0.3169   0.5708   0.3965
V114     V     0.4292   0.6036   0.3169
V115     V     0.4292   0.6036   0.6831
V116     V     0.3965   0.6831   0.5708
V117     V     0.3169   0.5708   0.6036
V118     V     0.4292   0.3965   0.6831
V119     V     0.3169   0.4292   0.6036
V120     V     0.3965   0.3169   0.5708
V121     V     0.5708   0.1831   0.6036
V122     V     0.6036   0.0708   0.6831
V123     V     0.6831   0.1036   0.5708
V124     V     0.4292   0.8169   0.3965
V125     V     0.3169   0.8964   0.4292
V126     V     0.3965   0.9292   0.3169
V127     V     0.6831   0.8964   0.4292
V128     V     0.5708   0.8169   0.3965
V129     V     0.6036   0.9292   0.3169
V130     V     0.5708   0.8169   0.6036
V131     V     0.6831   0.8964   0.5708
V132     V     0.6036   0.9292   0.6831
V133     V     0.4292   0.8169   0.6036
V134     V     0.3965   0.9292   0.6831
V135     V     0.3169   0.8964   0.5708
V136     V     0.6831   0.1036   0.4292
V137     V     0.5708   0.1831   0.3965
V138     V     0.6036   0.0708   0.3169
V139     V     0.4292   0.1831   0.6036
V140     V     0.3965   0.0708   0.6831
V141     V     0.3169   0.1036   0.5708
V142     V     0.3965   0.0708   0.3169
V143     V     0.4292   0.1831   0.3965
V144     V     0.3169   0.1036   0.4292
V145     V     0.1831   0.4292   0.8964
V146     V     0.0708   0.3965   0.8169
V147     V     0.1036   0.3169   0.9292
V148     V     0.8169   0.4292   0.8964
V149     V     0.9292   0.3965   0.8169
V150     V     0.8964   0.3169   0.9292
V151     V     0.8169   0.5708   0.8964
V152     V     0.9292   0.6036   0.8169
V153     V     0.8964   0.6831   0.9292
V154     V     0.0708   0.6036   0.8169
V155     V     0.1036   0.6831   0.9292
V156     V     0.1831   0.5708   0.8964
V157     V     0.8169   0.5708   0.1036
V158     V     0.8964   0.6831   0.0708
V159     V     0.9292   0.6036   0.1831
V160     V     0.8169   0.4292   0.1036
V161     V     0.9292   0.3965   0.1831
V162     V     0.8964   0.3169   0.0708
V163     V     0.1831   0.5708   0.1036
V164     V     0.0708   0.6036   0.1831
V165     V     0.1036   0.6831   0.0708
V166     V     0.1831   0.4292   0.1036
V167     V     0.0708   0.3965   0.1831
V168     V     0.1036   0.3169   0.0708
V169     V     0.8964   0.4292   0.6831
V170     V     0.8169   0.3965   0.5708
V171     V     0.9292   0.3169   0.6036
V172     V     0.1831   0.6036   0.4292
V173     V     0.0708   0.6831   0.3965
V174     V     0.1036   0.5708   0.3169
V175     V     0.8169   0.6036   0.4292
V176     V     0.9292   0.6831   0.3965
V177     V     0.8964   0.5708   0.3169
V178     V     0.8169   0.6036   0.5708
V179     V     0.8964   0.5708   0.6831
V180     V     0.9292   0.6831   0.6036
V181     V     0.1831   0.6036   0.5708
V182     V     0.0708   0.6831   0.6036
V183     V     0.1036   0.5708   0.6831
V184     V     0.8169   0.3965   0.4292
V185     V     0.8964   0.4292   0.3169
V186     V     0.9292   0.3169   0.3965
V187     V     0.1036   0.4292   0.6831
V188     V     0.1831   0.3965   0.5708
V189     V     0.0708   0.3169   0.6036
V190     V     0.1831   0.3965   0.4292
V191     V     0.1036   0.4292   0.3169
V192     V     0.0708   0.3169   0.3965
loop_
_geom_bond_atom_site_label_1
_geom_bond_atom_site_label_2
_geom_bond_distance
_geom_bond_site_symmetry_2
_ccdc_geom_bond_type
V1     V3    10.0   .     S
V1     V2    10.0   .     S
V1     V8    10.0   1_545     S
V1     V74    10.0   .     S
V2     V3    10.0   .     S
V2     V20    10.0   1_556     S
V2     V32    10.0   .     S
V3     V13    10.0   1_655     S
V3     V150    10.0   .     S
V4     V5    10.0   .     S
V4     V6    10.0   .     S
V4     V9    10.0   1_554     S
V4     V27    10.0   .     S
V5     V6    10.0   .     S
V5     V19    10.0   1_565     S
V5     V81    10.0   .     S
V6     V17    10.0   1_655     S
V6     V158    10.0   .     S
V7     V8    10.0   .     S
V7     V9    10.0   .     S
V7     V10    10.0   1_655     S
V7     V153    10.0   .     S
V8     V9    10.0   .     S
V8     V1    10.0   1_565     S
V8     V83    10.0   .     S
V9     V4    10.0   1_556     S
V9     V35    10.0   .     S
V10     V11    10.0   .     S
V10     V12    10.0   .     S
V10     V7    10.0   1_455     S
V10     V155    10.0   .     S
V11     V12    10.0   .     S
V11     V16    10.0   1_556     S
V11     V39    10.0   .     S
V12     V14    10.0   1_565     S
V12     V89    10.0   .     S
V13     V14    10.0   .     S
V13     V15    10.0   .     S
V13     V3    10.0   1_455     S
V13     V147    10.0   .     S
V14     V15    10.0   .     S
V14     V12    10.0   1_545     S
V14     V93    10.0   .     S
V15     V22    10.0   1_556     S
V15     V30    10.0   .     S
V16     V17    10.0   .     S
V16     V18    10.0   .     S
V16     V11    10.0   1_554     S
V16     V45    10.0   .     S
V17     V18    10.0   .     S
V17     V6    10.0   1_455     S
V17     V165    10.0   .     S
V18     V24    10.0   1_565     S
V18     V87    10.0   .     S
V19     V20    10.0   .     S
V19     V21    10.0   .     S
V19     V5    10.0   1_545     S
V19     V78    10.0   .     S
V20     V21    10.0   .     S
V20     V2    10.0   1_554     S
V20     V42    10.0   .     S
V21     V23    10.0   1_655     S
V21     V162    10.0   .     S
V22     V23    10.0   .     S
V22     V24    10.0   .     S
V22     V15    10.0   1_554     S
V22     V46    10.0   .     S
V23     V24    10.0   .     S
V23     V21    10.0   1_455     S
V23     V168    10.0   .     S
V24     V18    10.0   1_545     S
V24     V94    10.0   .     S
V25     V27    10.0   .     S
V25     V26    10.0   .     S
V25     V36    10.0   1_554     S
V25     V61    10.0   .     S
V26     V27    10.0   .     S
V26     V43    10.0   .     S
V26     V129    10.0   .     S
V27     V42    10.0   1_565     S
V28     V29    10.0   .     S
V28     V30    10.0   .     S
V28     V31    10.0   .     S
V28     V140    10.0   .     S
V29     V30    10.0   .     S
V29     V48    10.0   1_556     S
V29     V53    10.0   .     S
V30     V39    10.0   1_545     S
V31     V33    10.0   .     S
V31     V32    10.0   .     S
V31     V122    10.0   .     S
V32     V33    10.0   .     S
V32     V35    10.0   1_545     S
V33     V41    10.0   1_556     S
V33     V51    10.0   .     S
V34     V36    10.0   .     S
V34     V35    10.0   .     S
V34     V37    10.0   .     S
V34     V132    10.0   .     S
V35     V36    10.0   .     S
V35     V32    10.0   1_565     S
V36     V25    10.0   1_556     S
V36     V56    10.0   .     S
V37     V39    10.0   .     S
V37     V38    10.0   .     S
V37     V134    10.0   .     S
V38     V39    10.0   .     S
V38     V44    10.0   1_556     S
V38     V58    10.0   .     S
V39     V30    10.0   1_565     S
V40     V41    10.0   .     S
V40     V42    10.0   .     S
V40     V47    10.0   .     S
V40     V138    10.0   .     S
V41     V42    10.0   .     S
V41     V33    10.0   1_554     S
V41     V66    10.0   .     S
V42     V27    10.0   1_545     S
V43     V45    10.0   .     S
V43     V44    10.0   .     S
V43     V126    10.0   .     S
V44     V45    10.0   .     S
V44     V38    10.0   1_554     S
V44     V70    10.0   .     S
V45     V46    10.0   1_565     S
V46     V48    10.0   .     S
V46     V47    10.0   .     S
V46     V45    10.0   1_545     S
V47     V48    10.0   .     S
V47     V142    10.0   .     S
V48     V29    10.0   1_554     S
V48     V68    10.0   .     S
V49     V50    10.0   .     S
V49     V51    10.0   .     S
V49     V55    10.0   .     S
V49     V101    10.0   .     S
V50     V51    10.0   .     S
V50     V65    10.0   1_556     S
V50     V148    10.0   .     S
V51     V53    10.0   .     S
V52     V53    10.0   .     S
V52     V54    10.0   .     S
V52     V59    10.0   .     S
V52     V118    10.0   .     S
V53     V54    10.0   .     S
V54     V69    10.0   1_556     S
V54     V145    10.0   .     S
V55     V57    10.0   .     S
V55     V56    10.0   .     S
V55     V111    10.0   .     S
V56     V57    10.0   .     S
V56     V58    10.0   .     S
V57     V62    10.0   1_556     S
V57     V151    10.0   .     S
V58     V59    10.0   .     S
V58     V60    10.0   .     S
V59     V60    10.0   .     S
V59     V115    10.0   .     S
V60     V72    10.0   1_556     S
V60     V156    10.0   .     S
V61     V63    10.0   .     S
V61     V62    10.0   .     S
V61     V70    10.0   .     S
V62     V63    10.0   .     S
V62     V57    10.0   1_554     S
V62     V157    10.0   .     S
V63     V64    10.0   .     S
V63     V108    10.0   .     S
V64     V65    10.0   .     S
V64     V66    10.0   .     S
V64     V105    10.0   .     S
V65     V66    10.0   .     S
V65     V50    10.0   1_554     S
V65     V160    10.0   .     S
V66     V68    10.0   .     S
V67     V68    10.0   .     S
V67     V69    10.0   .     S
V67     V71    10.0   .     S
V67     V99    10.0   .     S
V68     V69    10.0   .     S
V69     V54    10.0   1_554     S
V69     V166    10.0   .     S
V70     V71    10.0   .     S
V70     V72    10.0   .     S
V71     V72    10.0   .     S
V71     V114    10.0   .     S
V72     V60    10.0   1_554     S
V72     V163    10.0   .     S
V73     V75    10.0   .     S
V73     V74    10.0   .     S
V73     V84    10.0   1_545     S
V73     V123    10.0   .     S
V74     V75    10.0   .     S
V74     V93    10.0   1_655     S
V75     V76    10.0   .     S
V75     V171    10.0   .     S
V76     V77    10.0   .     S
V76     V78    10.0   .     S
V76     V186    10.0   .     S
V77     V78    10.0   .     S
V77     V80    10.0   1_545     S
V77     V136    10.0   .     S
V78     V94    10.0   1_655     S
V79     V81    10.0   .     S
V79     V80    10.0   .     S
V79     V82    10.0   .     S
V79     V176    10.0   .     S
V80     V81    10.0   .     S
V80     V77    10.0   1_565     S
V80     V127    10.0   .     S
V81     V87    10.0   1_655     S
V82     V84    10.0   .     S
V82     V83    10.0   .     S
V82     V180    10.0   .     S
V83     V84    10.0   .     S
V83     V89    10.0   1_655     S
V84     V73    10.0   1_565     S
V84     V131    10.0   .     S
V85     V87    10.0   .     S
V85     V86    10.0   .     S
V85     V88    10.0   .     S
V85     V173    10.0   .     S
V86     V87    10.0   .     S
V86     V96    10.0   1_565     S
V86     V125    10.0   .     S
V87     V81    10.0   1_455     S
V88     V90    10.0   .     S
V88     V89    10.0   .     S
V88     V182    10.0   .     S
V89     V90    10.0   .     S
V89     V83    10.0   1_455     S
V90     V92    10.0   1_565     S
V90     V135    10.0   .     S
V91     V92    10.0   .     S
V91     V93    10.0   .     S
V91     V95    10.0   .     S
V91     V189    10.0   .     S
V92     V93    10.0   .     S
V92     V90    10.0   1_545     S
V92     V141    10.0   .     S
V93     V74    10.0   1_455     S
V94     V96    10.0   .     S
V94     V95    10.0   .     S
V94     V78    10.0   1_455     S
V95     V96    10.0   .     S
V95     V192    10.0   .     S
V96     V86    10.0   1_545     S
V96     V144    10.0   .     S
V97     V99    10.0   .     S
V97     V98    10.0   .     S
V97     V120    10.0   .     S
V97     V143    10.0   .     S
V98     V99    10.0   .     S
V98     V113    10.0   .     S
V98     V190    10.0   .     S
V99     V105    10.0   .     S
V100     V101    10.0   .     S
V100     V102    10.0   .     S
V100     V109    10.0   .     S
V100     V170    10.0   .     S
V101     V102    10.0   .     S
V101     V118    10.0   .     S
V102     V104    10.0   .     S
V102     V121    10.0   .     S
V103     V104    10.0   .     S
V103     V105    10.0   .     S
V103     V107    10.0   .     S
V103     V184    10.0   .     S
V104     V105    10.0   .     S
V104     V137    10.0   .     S
V106     V107    10.0   .     S
V106     V108    10.0   .     S
V106     V110    10.0   .     S
V106     V128    10.0   .     S
V107     V108    10.0   .     S
V107     V175    10.0   .     S
V108     V114    10.0   .     S
V109     V111    10.0   .     S
V109     V110    10.0   .     S
V109     V178    10.0   .     S
V110     V111    10.0   .     S
V110     V130    10.0   .     S
V111     V115    10.0   .     S
V112     V114    10.0   .     S
V112     V113    10.0   .     S
V112     V116    10.0   .     S
V112     V124    10.0   .     S
V113     V114    10.0   .     S
V113     V172    10.0   .     S
V115     V116    10.0   .     S
V115     V117    10.0   .     S
V116     V117    10.0   .     S
V116     V133    10.0   .     S
V117     V119    10.0   .     S
V117     V181    10.0   .     S
V118     V119    10.0   .     S
V118     V120    10.0   .     S
V119     V120    10.0   .     S
V119     V188    10.0   .     S
V120     V139    10.0   .     S
V121     V122    10.0   .     S
V121     V123    10.0   .     S
V121     V139    10.0   .     S
V122     V123    10.0   .     S
V122     V132    10.0   1_545     S
V123     V136    10.0   .     S
V124     V125    10.0   .     S
V124     V126    10.0   .     S
V124     V128    10.0   .     S
V125     V126    10.0   .     S
V125     V135    10.0   .     S
V126     V142    10.0   1_565     S
V127     V129    10.0   .     S
V127     V128    10.0   .     S
V127     V131    10.0   .     S
V128     V129    10.0   .     S
V129     V138    10.0   1_565     S
V130     V132    10.0   .     S
V130     V131    10.0   .     S
V130     V133    10.0   .     S
V131     V132    10.0   .     S
V132     V122    10.0   1_565     S
V133     V134    10.0   .     S
V133     V135    10.0   .     S
V134     V135    10.0   .     S
V134     V140    10.0   1_565     S
V136     V137    10.0   .     S
V136     V138    10.0   .     S
V137     V138    10.0   .     S
V137     V143    10.0   .     S
V138     V129    10.0   1_545     S
V139     V140    10.0   .     S
V139     V141    10.0   .     S
V140     V141    10.0   .     S
V140     V134    10.0   1_545     S
V141     V144    10.0   .     S
V142     V143    10.0   .     S
V142     V144    10.0   .     S
V142     V126    10.0   1_545     S
V143     V144    10.0   .     S
V145     V147    10.0   .     S
V145     V146    10.0   .     S
V145     V156    10.0   .     S
V146     V147    10.0   .     S
V146     V149    10.0   1_455     S
V146     V187    10.0   .     S
V147     V168    10.0   1_556     S
V148     V149    10.0   .     S
V148     V150    10.0   .     S
V148     V151    10.0   .     S
V149     V150    10.0   .     S
V149     V146    10.0   1_655     S
V149     V169    10.0   .     S
V150     V162    10.0   1_556     S
V151     V152    10.0   .     S
V151     V153    10.0   .     S
V152     V153    10.0   .     S
V152     V154    10.0   1_655     S
V152     V179    10.0   .     S
V153     V158    10.0   1_556     S
V154     V156    10.0   .     S
V154     V155    10.0   .     S
V154     V152    10.0   1_455     S
V154     V183    10.0   .     S
V155     V156    10.0   .     S
V155     V165    10.0   1_556     S
V157     V159    10.0   .     S
V157     V158    10.0   .     S
V157     V160    10.0   .     S
V158     V159    10.0   .     S
V158     V153    10.0   1_554     S
V159     V164    10.0   1_655     S
V159     V177    10.0   .     S
V160     V161    10.0   .     S
V160     V162    10.0   .     S
V161     V162    10.0   .     S
V161     V167    10.0   1_655     S
V161     V185    10.0   .     S
V162     V150    10.0   1_554     S
V163     V164    10.0   .     S
V163     V165    10.0   .     S
V163     V166    10.0   .     S
V164     V165    10.0   .     S
V164     V159    10.0   1_455     S
V164     V174    10.0   .     S
V165     V155    10.0   1_554     S
V166     V167    10.0   .     S
V166     V168    10.0   .     S
V167     V168    10.0   .     S
V167     V161    10.0   1_455     S
V167     V191    10.0   .     S
V168     V147    10.0   1_554     S
V169     V171    10.0   .     S
V169     V170    10.0   .     S
V169     V179    10.0   .     S
V170     V171    10.0   .     S
V170     V184    10.0   .     S
V171     V189    10.0   1_655     S
V172     V173    10.0   .     S
V172     V174    10.0   .     S
V172     V181    10.0   .     S
V173     V174    10.0   .     S
V173     V176    10.0   1_455     S
V174     V191    10.0   .     S
V175     V176    10.0   .     S
V175     V177    10.0   .     S
V175     V178    10.0   .     S
V176     V177    10.0   .     S
V176     V173    10.0   1_655     S
V177     V185    10.0   .     S
V178     V180    10.0   .     S
V178     V179    10.0   .     S
V179     V180    10.0   .     S
V180     V182    10.0   1_655     S
V181     V182    10.0   .     S
V181     V183    10.0   .     S
V182     V183    10.0   .     S
V182     V180    10.0   1_455     S
V183     V187    10.0   .     S
V184     V185    10.0   .     S
V184     V186    10.0   .     S
V185     V186    10.0   .     S
V186     V192    10.0   1_655     S
V187     V188    10.0   .     S
V187     V189    10.0   .     S
V188     V189    10.0   .     S
V188     V190    10.0   .     S
V189     V171    10.0   1_455     S
V190     V192    10.0   .     S
V190     V191    10.0   .     S
V191     V192    10.0   .     S
V192     V186    10.0   1_455     S
