data_unu
_audit_creation_date              2020-02-04
_audit_creation_method            'Pymatgen'
_symmetry_space_group_name_H-M    'P1'
_symmetry_Int_Tables_number       1
loop_
_symmetry_equiv_pos_as_xyz
  x,y,z
_cell_length_a                    28.0476
_cell_length_b                    28.0476
_cell_length_c                    85.5538
_cell_angle_alpha                 90.0
_cell_angle_beta                 90.0
_cell_angle_gamma                 120.0
loop_
_atom_site_label
_atom_site_type_symbol
_atom_site_fract_x
_atom_site_fract_y
_atom_site_fract_z
V1     V     0.7757   0.8197   0.3776
V2     V     0.6227   0.5137   0.4558
V3     V     0.8909   0.3773   0.4558
V4     V     0.0439   0.2243   0.3776
V5     V     0.1803   0.9561   0.3776
V6     V     0.4863   0.1091   0.4558
V7     V     0.1091   0.4863   0.0442
V8     V     0.9561   0.1803   0.1224
V9     V     0.3773   0.8909   0.0442
V10     V     0.2243   0.0439   0.1224
V11     V     0.5137   0.6227   0.0442
V12     V     0.8197   0.7757   0.1224
V13     V     0.4424   0.2894   0.2109
V14     V     0.2894   0.4424   0.2891
V15     V     0.847   0.5576   0.2109
V16     V     0.153   0.7106   0.2891
V17     V     0.7106   0.153   0.2109
V18     V     0.5576   0.847   0.2891
V19     V     0.6227   0.1091   0.9558
V20     V     0.7757   0.9561   0.8776
V21     V     0.4863   0.3773   0.9558
V22     V     0.1803   0.2243   0.8776
V23     V     0.8909   0.5137   0.9558
V24     V     0.0439   0.8197   0.8776
V25     V     0.2894   0.847   0.7891
V26     V     0.4424   0.153   0.7109
V27     V     0.5576   0.7106   0.7891
V28     V     0.7106   0.5576   0.7109
V29     V     0.153   0.4424   0.7891
V30     V     0.847   0.2894   0.7109
V31     V     0.1091   0.6227   0.5442
V32     V     0.9561   0.7757   0.6224
V33     V     0.5137   0.8909   0.5442
V34     V     0.8197   0.0439   0.6224
V35     V     0.3773   0.4863   0.5442
V36     V     0.2243   0.1803   0.6224
loop_
_geom_bond_atom_site_label_1
_geom_bond_atom_site_label_2
_geom_bond_distance
_geom_bond_site_symmetry_2
_ccdc_geom_bond_type
V1     V18    10.001   .     S
V1     V2    10.0   .     S
V1     V4    10.0   1_665     S
V1     V5    10.0   1_655     S
V2     V35    10.001   .     S
V2     V6    10.0   .     S
V2     V3    10.0   .     S
V3     V31    10.001   1_655     S
V3     V6    10.0   .     S
V3     V4    10.0   1_655     S
V4     V14    10.001   .     S
V4     V3    10.0   1_455     S
V4     V5    10.0   1_545     S
V4     V1    10.0   1_445     S
V5     V6    10.0   1_565     S
V5     V4    10.0   1_565     S
V5     V1    10.0   1_455     S
V5     V16    10.001   .     S
V6     V33    10.001   1_545     S
V6     V5    10.0   1_545     S
V7     V8    10.0   1_455     S
V7     V9    10.0   .     S
V7     V11    10.0   .     S
V7     V23    10.001   1_454     S
V8     V7    10.0   1_655     S
V8     V10    10.0   1_655     S
V8     V12    10.0   1_545     S
V8     V17    10.001   .     S
V9     V19    10.001   1_564     S
V9     V10    10.0   1_565     S
V9     V11    10.0   .     S
V10     V13    10.001   .     S
V10     V9    10.0   1_545     S
V10     V8    10.0   1_455     S
V10     V12    10.0   1_445     S
V11     V21    10.001   1_554     S
V11     V12    10.0   .     S
V12     V15    10.001   .     S
V12     V8    10.0   1_565     S
V12     V10    10.0   1_665     S
V13     V14    10.0   .     S
V13     V15    10.0   .     S
V13     V17    10.0   .     S
V14     V16    10.0   .     S
V14     V18    10.0   .     S
V15     V16    10.0   1_655     S
V15     V17    10.0   .     S
V16     V15    10.0   1_455     S
V16     V18    10.0   .     S
V17     V18    10.0   1_545     S
V18     V17    10.0   1_565     S
V19     V9    10.001   1_546     S
V19     V20    10.0   1_545     S
V19     V21    10.0   .     S
V19     V23    10.0   .     S
V20     V27    10.001   .     S
V20     V19    10.0   1_565     S
V20     V24    10.0   1_655     S
V20     V22    10.0   1_665     S
V21     V11    10.001   1_556     S
V21     V22    10.0   .     S
V21     V23    10.0   .     S
V22     V29    10.001   .     S
V22     V24    10.0   1_545     S
V22     V20    10.0   1_445     S
V23     V7    10.001   1_656     S
V23     V24    10.0   1_655     S
V24     V25    10.001   .     S
V24     V23    10.0   1_455     S
V24     V20    10.0   1_455     S
V24     V22    10.0   1_565     S
V25     V26    10.0   1_565     S
V25     V27    10.0   .     S
V25     V29    10.0   .     S
V26     V36    10.001   .     S
V26     V25    10.0   1_545     S
V26     V30    10.0   .     S
V26     V28    10.0   .     S
V27     V28    10.0   .     S
V27     V29    10.0   .     S
V28     V32    10.001   .     S
V28     V30    10.0   .     S
V29     V30    10.0   1_455     S
V30     V29    10.0   1_655     S
V30     V34    10.001   .     S
V31     V3    10.001   1_455     S
V31     V32    10.0   1_455     S
V31     V35    10.0   .     S
V31     V33    10.0   .     S
V32     V34    10.0   1_565     S
V32     V36    10.0   1_665     S
V32     V31    10.0   1_655     S
V33     V6    10.001   1_565     S
V33     V34    10.0   1_565     S
V33     V35    10.0   .     S
V34     V32    10.0   1_545     S
V34     V33    10.0   1_545     S
V34     V36    10.0   1_655     S
V35     V36    10.0   .     S
V36     V32    10.0   1_445     S
V36     V34    10.0   1_455     S
