data_uoa
_audit_creation_date              2020-02-04
_audit_creation_method            'Pymatgen'
_symmetry_space_group_name_H-M    'P1'
_symmetry_Int_Tables_number       1
loop_
_symmetry_equiv_pos_as_xyz
  x,y,z
_cell_length_a                    53.1766
_cell_length_b                    53.1766
_cell_length_c                    18.4169
_cell_angle_alpha                 90.0
_cell_angle_beta                 90.0
_cell_angle_gamma                 90.0
loop_
_atom_site_label
_atom_site_type_symbol
_atom_site_fract_x
_atom_site_fract_y
_atom_site_fract_z
V1     V     0.8331   0.7133   0.3202
V2     V     0.6669   0.7867   0.1798
V3     V     0.8331   0.7867   0.8202
V4     V     0.6669   0.7133   0.6798
V5     V     0.5367   0.9169   0.0702
V6     V     0.4633   0.0831   0.9298
V7     V     0.4633   0.9169   0.5702
V8     V     0.5367   0.0831   0.4298
V9     V     0.6669   0.2867   0.8202
V10     V     0.8331   0.2133   0.6798
V11     V     0.8331   0.2867   0.1798
V12     V     0.6669   0.2133   0.3202
V13     V     0.1669   0.7867   0.3202
V14     V     0.3331   0.7133   0.1798
V15     V     0.1669   0.7133   0.8202
V16     V     0.3331   0.7867   0.6798
V17     V     0.0367   0.0831   0.0702
V18     V     0.9633   0.9169   0.9298
V19     V     0.0367   0.9169   0.4298
V20     V     0.9633   0.0831   0.5702
V21     V     0.4633   0.5831   0.0702
V22     V     0.5367   0.4169   0.9298
V23     V     0.5367   0.5831   0.5702
V24     V     0.4633   0.4169   0.4298
V25     V     0.3331   0.2133   0.8202
V26     V     0.1669   0.2867   0.6798
V27     V     0.1669   0.2133   0.1798
V28     V     0.3331   0.2867   0.3202
V29     V     0.9633   0.5831   0.4298
V30     V     0.0367   0.4169   0.5702
V31     V     0.0367   0.5831   0.9298
V32     V     0.9633   0.4169   0.0702
loop_
_geom_bond_atom_site_label_1
_geom_bond_atom_site_label_2
_geom_bond_distance
_geom_bond_site_symmetry_2
_ccdc_geom_bond_type
V1     V2    10.0   .     S
V1     V3    10.0   1_554     S
V1     V3    10.0   .     S
V1     V29    10.0   .     S
V2     V4    10.0   .     S
V2     V4    10.0   1_554     S
V2     V5    10.0   .     S
V3     V4    10.0   .     S
V3     V1    10.0   1_556     S
V3     V18    10.0   .     S
V4     V2    10.0   1_556     S
V4     V23    10.0   .     S
V5     V6    10.0   1_564     S
V5     V7    10.0   1_554     S
V5     V7    10.0   .     S
V6     V5    10.0   1_546     S
V6     V8    10.0   .     S
V6     V8    10.0   1_556     S
V6     V25    10.0   .     S
V7     V8    10.0   1_565     S
V7     V5    10.0   1_556     S
V7     V16    10.0   .     S
V8     V7    10.0   1_545     S
V8     V6    10.0   1_554     S
V8     V12    10.0   .     S
V9     V10    10.0   .     S
V9     V12    10.0   1_556     S
V9     V12    10.0   .     S
V9     V22    10.0   .     S
V10     V11    10.0   .     S
V10     V11    10.0   1_556     S
V10     V20    10.0   .     S
V11     V12    10.0   .     S
V11     V10    10.0   1_554     S
V11     V32    10.0   .     S
V12     V9    10.0   1_554     S
V13     V14    10.0   .     S
V13     V15    10.0   1_554     S
V13     V15    10.0   .     S
V13     V19    10.0   .     S
V14     V16    10.0   1_554     S
V14     V16    10.0   .     S
V14     V21    10.0   .     S
V15     V16    10.0   .     S
V15     V13    10.0   1_556     S
V15     V31    10.0   .     S
V16     V14    10.0   1_556     S
V17     V18    10.0   1_444     S
V17     V20    10.0   1_454     S
V17     V20    10.0   1_455     S
V17     V27    10.0   .     S
V18     V17    10.0   1_666     S
V18     V19    10.0   1_655     S
V18     V19    10.0   1_656     S
V19     V20    10.0   1_465     S
V19     V18    10.0   1_455     S
V19     V18    10.0   1_454     S
V20     V17    10.0   1_656     S
V20     V19    10.0   1_645     S
V20     V17    10.0   1_655     S
V21     V22    10.0   1_554     S
V21     V23    10.0   1_554     S
V21     V23    10.0   .     S
V22     V21    10.0   1_556     S
V22     V24    10.0   1_556     S
V22     V24    10.0   .     S
V23     V24    10.0   .     S
V23     V21    10.0   1_556     S
V24     V22    10.0   1_554     S
V24     V28    10.0   .     S
V25     V26    10.0   .     S
V25     V28    10.0   1_556     S
V25     V28    10.0   .     S
V26     V27    10.0   .     S
V26     V27    10.0   1_556     S
V26     V30    10.0   .     S
V27     V28    10.0   .     S
V27     V26    10.0   1_554     S
V28     V25    10.0   1_554     S
V29     V30    10.0   1_655     S
V29     V31    10.0   1_655     S
V29     V31    10.0   1_654     S
V30     V29    10.0   1_455     S
V30     V32    10.0   1_456     S
V30     V32    10.0   1_455     S
V31     V32    10.0   1_456     S
V31     V29    10.0   1_455     S
V31     V29    10.0   1_456     S
V32     V31    10.0   1_654     S
V32     V30    10.0   1_654     S
V32     V30    10.0   1_655     S
