data_uoe
_audit_creation_date              2020-02-04
_audit_creation_method            'Pymatgen'
_symmetry_space_group_name_H-M    'P1'
_symmetry_Int_Tables_number       1
loop_
_symmetry_equiv_pos_as_xyz
  x,y,z
_cell_length_a                    51.9229
_cell_length_b                    51.9229
_cell_length_c                    18.0373
_cell_angle_alpha                 90.0
_cell_angle_beta                 90.0
_cell_angle_gamma                 90.0
loop_
_atom_site_label
_atom_site_type_symbol
_atom_site_fract_x
_atom_site_fract_y
_atom_site_fract_z
V1     V     0.7916   0.6632   0.75
V2     V     0.9132   0.5416   0.0
V3     V     0.7084   0.6632   0.25
V4     V     0.5868   0.5416   0.0
V5     V     0.7084   0.3368   0.25
V6     V     0.5868   0.4584   0.5
V7     V     0.7916   0.3368   0.75
V8     V     0.9132   0.4584   0.5
V9     V     0.7916   0.1632   0.25
V10     V     0.9132   0.0416   0.0
V11     V     0.7084   0.1632   0.75
V12     V     0.5868   0.0416   0.0
V13     V     0.7916   0.8368   0.25
V14     V     0.9132   0.9584   0.5
V15     V     0.5868   0.9584   0.5
V16     V     0.7084   0.8368   0.75
V17     V     0.4132   0.9584   0.0
V18     V     0.2916   0.8368   0.25
V19     V     0.4132   0.0416   0.5
V20     V     0.2916   0.1632   0.25
V21     V     0.2084   0.1632   0.75
V22     V     0.0868   0.0416   0.5
V23     V     0.0868   0.9584   0.0
V24     V     0.2084   0.8368   0.75
V25     V     0.4132   0.5416   0.5
V26     V     0.2916   0.6632   0.75
V27     V     0.2916   0.3369   0.75
V28     V     0.4132   0.4584   0.0
V29     V     0.2084   0.6632   0.25
V30     V     0.0868   0.5416   0.5
V31     V     0.2084   0.3369   0.25
V32     V     0.0868   0.4584   0.0
loop_
_geom_bond_atom_site_label_1
_geom_bond_atom_site_label_2
_geom_bond_distance
_geom_bond_site_symmetry_2
_ccdc_geom_bond_type
V1     V2    10.0   1_556     S
V1     V3    10.0   .     S
V1     V3    10.0   1_556     S
V1     V16    10.0   .     S
V2     V1    10.0   1_554     S
V2     V8    10.0   .     S
V2     V8    10.0   1_554     S
V2     V32    10.0   1_655     S
V3     V4    10.0   .     S
V3     V1    10.0   1_554     S
V3     V13    10.0   .     S
V4     V6    10.0   1_554     S
V4     V6    10.0   .     S
V4     V28    10.0   .     S
V5     V6    10.0   .     S
V5     V7    10.0   1_554     S
V5     V7    10.0   .     S
V5     V9    10.0   .     S
V6     V4    10.0   1_556     S
V6     V25    10.0   .     S
V7     V8    10.0   .     S
V7     V5    10.0   1_556     S
V7     V11    10.0   .     S
V8     V2    10.0   1_556     S
V8     V30    10.0   1_655     S
V9     V10    10.0   .     S
V9     V11    10.0   .     S
V9     V11    10.0   1_554     S
V10     V14    10.0   1_544     S
V10     V14    10.0   1_545     S
V10     V23    10.0   1_645     S
V11     V12    10.0   1_556     S
V11     V9    10.0   1_556     S
V12     V11    10.0   1_554     S
V12     V15    10.0   1_545     S
V12     V15    10.0   1_544     S
V12     V17    10.0   1_545     S
V13     V14    10.0   .     S
V13     V16    10.0   1_554     S
V13     V16    10.0   .     S
V14     V10    10.0   1_566     S
V14     V10    10.0   1_565     S
V14     V22    10.0   1_665     S
V15     V16    10.0   .     S
V15     V12    10.0   1_565     S
V15     V12    10.0   1_566     S
V15     V19    10.0   1_565     S
V16     V13    10.0   1_556     S
V17     V18    10.0   .     S
V17     V19    10.0   1_564     S
V17     V19    10.0   1_565     S
V17     V12    10.0   1_565     S
V18     V24    10.0   .     S
V18     V24    10.0   1_554     S
V18     V29    10.0   .     S
V19     V15    10.0   1_545     S
V19     V17    10.0   1_546     S
V19     V17    10.0   1_545     S
V19     V20    10.0   .     S
V20     V21    10.0   1_554     S
V20     V21    10.0   .     S
V20     V31    10.0   .     S
V21     V20    10.0   1_556     S
V21     V22    10.0   .     S
V21     V27    10.0   .     S
V22     V14    10.0   1_445     S
V22     V23    10.0   1_545     S
V22     V23    10.0   1_546     S
V23     V24    10.0   1_554     S
V23     V22    10.0   1_565     S
V23     V22    10.0   1_564     S
V23     V10    10.0   1_465     S
V24     V18    10.0   1_556     S
V24     V23    10.0   1_556     S
V24     V26    10.0   .     S
V25     V26    10.0   .     S
V25     V28    10.0   .     S
V25     V28    10.0   1_556     S
V26     V29    10.0   1_556     S
V26     V29    10.0   .     S
V27     V28    10.0   1_556     S
V27     V31    10.0   .     S
V27     V31    10.0   1_556     S
V28     V27    10.0   1_554     S
V28     V25    10.0   1_554     S
V29     V26    10.0   1_554     S
V29     V30    10.0   .     S
V30     V32    10.0   1_556     S
V30     V32    10.0   .     S
V30     V8    10.0   1_455     S
V31     V27    10.0   1_554     S
V31     V32    10.0   .     S
V32     V30    10.0   1_554     S
V32     V2    10.0   1_455     S
