data_uoi
_audit_creation_date              2020-02-04
_audit_creation_method            'Pymatgen'
_symmetry_space_group_name_H-M    'P1'
_symmetry_Int_Tables_number       1
loop_
_symmetry_equiv_pos_as_xyz
  x,y,z
_cell_length_a                    55.893
_cell_length_b                    55.893
_cell_length_c                    13.8309
_cell_angle_alpha                 90.0
_cell_angle_beta                 90.0
_cell_angle_gamma                 90.0
loop_
_atom_site_label
_atom_site_type_symbol
_atom_site_fract_x
_atom_site_fract_y
_atom_site_fract_z
V1     V     0.3226   0.3146   0.2114
V2     V     0.4354   0.4274   0.5386
V3     V     0.0646   0.4274   0.4614
V4     V     0.1774   0.3146   0.7886
V5     V     0.4354   0.5726   0.9614
V6     V     0.3226   0.6854   0.2886
V7     V     0.0646   0.5726   0.0386
V8     V     0.1774   0.6854   0.7114
V9     V     0.5646   0.5726   0.4614
V10     V     0.6774   0.6854   0.7886
V11     V     0.6774   0.3146   0.7114
V12     V     0.5646   0.4274   0.0386
V13     V     0.8226   0.6854   0.2114
V14     V     0.9354   0.5726   0.5386
V15     V     0.8226   0.3146   0.2886
V16     V     0.9354   0.4274   0.9614
V17     V     0.3226   0.1854   0.7114
V18     V     0.4354   0.0726   0.0386
V19     V     0.1774   0.1854   0.2886
V20     V     0.0646   0.0726   0.9614
V21     V     0.4354   0.9274   0.4614
V22     V     0.3226   0.8146   0.7886
V23     V     0.0646   0.9274   0.5386
V24     V     0.1774   0.8146   0.2114
V25     V     0.6774   0.1854   0.2114
V26     V     0.5646   0.0726   0.5386
V27     V     0.6774   0.8146   0.2886
V28     V     0.5646   0.9274   0.9614
V29     V     0.9354   0.9274   0.0386
V30     V     0.8226   0.8146   0.7114
V31     V     0.9354   0.0726   0.4614
V32     V     0.8226   0.1854   0.7886
loop_
_geom_bond_atom_site_label_1
_geom_bond_atom_site_label_2
_geom_bond_distance
_geom_bond_site_symmetry_2
_ccdc_geom_bond_type
V1     V2    10.0   .     S
V1     V4    10.0   1_554     S
V1     V17    10.0   .     S
V1     V17    10.0   1_554     S
V2     V5    10.0   .     S
V2     V12    10.0   .     S
V2     V12    10.0   1_556     S
V3     V4    10.0   .     S
V3     V7    10.0   .     S
V3     V16    10.0   1_455     S
V3     V16    10.0   1_454     S
V4     V1    10.0   1_556     S
V4     V19    10.0   1_556     S
V4     V19    10.0   .     S
V5     V6    10.0   1_556     S
V5     V9    10.0   .     S
V5     V9    10.0   1_556     S
V6     V5    10.0   1_554     S
V6     V8    10.0   .     S
V6     V22    10.0   .     S
V6     V22    10.0   1_554     S
V7     V8    10.0   1_554     S
V7     V14    10.0   1_454     S
V7     V14    10.0   1_455     S
V8     V7    10.0   1_556     S
V8     V24    10.0   .     S
V8     V24    10.0   1_556     S
V9     V10    10.0   .     S
V9     V12    10.0   .     S
V9     V5    10.0   1_554     S
V10     V13    10.0   1_556     S
V10     V27    10.0   1_556     S
V10     V27    10.0   .     S
V11     V12    10.0   1_556     S
V11     V15    10.0   .     S
V11     V25    10.0   .     S
V11     V25    10.0   1_556     S
V12     V11    10.0   1_554     S
V12     V2    10.0   1_554     S
V13     V14    10.0   .     S
V13     V10    10.0   1_554     S
V13     V30    10.0   1_554     S
V13     V30    10.0   .     S
V14     V7    10.0   1_656     S
V14     V16    10.0   .     S
V14     V7    10.0   1_655     S
V15     V16    10.0   1_554     S
V15     V32    10.0   .     S
V15     V32    10.0   1_554     S
V16     V3    10.0   1_655     S
V16     V15    10.0   1_556     S
V16     V3    10.0   1_656     S
V17     V18    10.0   1_556     S
V17     V19    10.0   .     S
V17     V1    10.0   1_556     S
V18     V17    10.0   1_554     S
V18     V21    10.0   1_545     S
V18     V26    10.0   .     S
V18     V26    10.0   1_554     S
V19     V20    10.0   1_554     S
V19     V4    10.0   1_554     S
V20     V19    10.0   1_556     S
V20     V23    10.0   1_545     S
V20     V31    10.0   1_456     S
V20     V31    10.0   1_455     S
V21     V18    10.0   1_565     S
V21     V22    10.0   .     S
V21     V28    10.0   .     S
V21     V28    10.0   1_554     S
V22     V24    10.0   1_556     S
V22     V6    10.0   1_556     S
V23     V20    10.0   1_565     S
V23     V24    10.0   .     S
V23     V29    10.0   1_455     S
V23     V29    10.0   1_456     S
V24     V22    10.0   1_554     S
V24     V8    10.0   1_554     S
V25     V26    10.0   .     S
V25     V32    10.0   1_554     S
V25     V11    10.0   1_554     S
V26     V28    10.0   1_545     S
V26     V18    10.0   1_556     S
V27     V28    10.0   1_554     S
V27     V30    10.0   .     S
V27     V10    10.0   1_554     S
V28     V26    10.0   1_565     S
V28     V27    10.0   1_556     S
V28     V21    10.0   1_556     S
V29     V23    10.0   1_655     S
V29     V30    10.0   1_554     S
V29     V31    10.0   1_565     S
V29     V23    10.0   1_654     S
V30     V29    10.0   1_556     S
V30     V13    10.0   1_556     S
V31     V20    10.0   1_654     S
V31     V20    10.0   1_655     S
V31     V32    10.0   .     S
V31     V29    10.0   1_545     S
V32     V25    10.0   1_556     S
V32     V15    10.0   1_556     S
