data_uop
_audit_creation_date              2020-02-04
_audit_creation_method            'Pymatgen'
_symmetry_space_group_name_H-M    'P1'
_symmetry_Int_Tables_number       1
loop_
_symmetry_equiv_pos_as_xyz
  x,y,z
_cell_length_a                    21.2651
_cell_length_b                    21.2651
_cell_length_c                    37.6358
_cell_angle_alpha                 90.0
_cell_angle_beta                 90.0
_cell_angle_gamma                 120.0
loop_
_atom_site_label
_atom_site_type_symbol
_atom_site_fract_x
_atom_site_fract_y
_atom_site_fract_z
V1     V     0.766   0.1803   0.0993
V2     V     0.5857   0.8197   0.9007
V3     V     0.234   0.8197   0.0993
V4     V     0.4143   0.1803   0.9007
V5     V     0.766   0.5857   0.234
V6     V     0.5857   0.766   0.4327
V7     V     0.234   0.4143   0.234
V8     V     0.4143   0.234   0.4327
V9     V     0.1803   0.766   0.5673
V10     V     0.8197   0.5857   0.766
V11     V     0.8197   0.234   0.5673
V12     V     0.1803   0.4143   0.766
loop_
_geom_bond_atom_site_label_1
_geom_bond_atom_site_label_2
_geom_bond_distance
_geom_bond_site_symmetry_2
_ccdc_geom_bond_type
V1     V5    10.0   .     S
V1     V2    10.0   1_544     S
V1     V3    10.0   1_545     S
V1     V7    10.0   1_655     S
V2     V12    10.0   .     S
V2     V1    10.0   1_566     S
V2     V10    10.0   .     S
V2     V4    10.0   1_565     S
V3     V7    10.0   .     S
V3     V4    10.0   1_564     S
V3     V1    10.0   1_565     S
V3     V5    10.0   1_455     S
V4     V3    10.0   1_546     S
V4     V12    10.0   .     S
V4     V2    10.0   1_545     S
V4     V10    10.0   .     S
V5     V6    10.0   .     S
V5     V3    10.0   1_655     S
V5     V7    10.0   .     S
V6     V8    10.0   .     S
V6     V9    10.0   .     S
V6     V11    10.0   1_565     S
V7     V8    10.0   .     S
V7     V1    10.0   1_455     S
V8     V11    10.0   .     S
V8     V9    10.0   1_545     S
V9     V10    10.0   1_455     S
V9     V8    10.0   1_565     S
V9     V11    10.0   1_455     S
V10     V9    10.0   1_655     S
V10     V12    10.0   1_655     S
V11     V12    10.0   1_655     S
V11     V6    10.0   1_545     S
V11     V9    10.0   1_655     S
V12     V11    10.0   1_455     S
V12     V10    10.0   1_455     S
