data_uow
_audit_creation_date              2020-02-04
_audit_creation_method            'Pymatgen'
_symmetry_space_group_name_H-M    'P1'
_symmetry_Int_Tables_number       1
loop_
_symmetry_equiv_pos_as_xyz
  x,y,z
_cell_length_a                    41.5219
_cell_length_b                    41.5219
_cell_length_c                    28.9507
_cell_angle_alpha                 90.0
_cell_angle_beta                 90.0
_cell_angle_gamma                 90.0
loop_
_atom_site_label
_atom_site_type_symbol
_atom_site_fract_x
_atom_site_fract_y
_atom_site_fract_z
V1     V     0.1308   0.2961   0.9752
V2     V     0.0461   0.1192   0.7748
V3     V     0.8692   0.2039   0.9752
V4     V     0.9539   0.3808   0.7748
V5     V     0.1308   0.7039   0.5248
V6     V     0.0461   0.8808   0.7252
V7     V     0.8692   0.7961   0.5248
V8     V     0.9539   0.6192   0.7252
V9     V     0.4539   0.8808   0.2748
V10     V     0.6308   0.7961   0.4752
V11     V     0.3692   0.7039   0.4752
V12     V     0.5461   0.6192   0.2748
V13     V     0.3692   0.2961   0.0248
V14     V     0.5461   0.3808   0.2252
V15     V     0.4539   0.1192   0.2252
V16     V     0.6308   0.2039   0.0248
V17     V     0.6308   0.2961   0.5248
V18     V     0.5461   0.1192   0.7252
V19     V     0.4539   0.3808   0.7252
V20     V     0.3692   0.2039   0.5248
V21     V     0.1308   0.7961   0.0248
V22     V     0.0461   0.6192   0.2252
V23     V     0.9539   0.8808   0.2252
V24     V     0.8692   0.7039   0.0248
V25     V     0.1308   0.2039   0.4752
V26     V     0.0461   0.3808   0.2748
V27     V     0.8692   0.2961   0.4752
V28     V     0.9539   0.1192   0.2748
V29     V     0.3692   0.7961   0.9752
V30     V     0.6308   0.7039   0.9752
V31     V     0.4539   0.6192   0.7748
V32     V     0.5461   0.8808   0.7748
loop_
_geom_bond_atom_site_label_1
_geom_bond_atom_site_label_2
_geom_bond_distance
_geom_bond_site_symmetry_2
_ccdc_geom_bond_type
V1     V4    10.0   1_455     S
V1     V2    10.0   .     S
V1     V13    10.0   1_556     S
V1     V26    10.0   1_556     S
V2     V3    10.0   1_455     S
V2     V6    10.0   1_545     S
V2     V25    10.0   .     S
V3     V2    10.0   1_655     S
V3     V4    10.0   .     S
V3     V16    10.0   1_556     S
V3     V28    10.0   1_556     S
V4     V1    10.0   1_655     S
V4     V8    10.0   .     S
V4     V27    10.0   .     S
V5     V8    10.0   1_455     S
V5     V6    10.0   .     S
V5     V11    10.0   .     S
V5     V22    10.0   .     S
V6     V7    10.0   1_455     S
V6     V2    10.0   1_565     S
V6     V21    10.0   1_556     S
V7     V6    10.0   1_655     S
V7     V8    10.0   .     S
V7     V10    10.0   .     S
V7     V23    10.0   .     S
V8     V5    10.0   1_655     S
V8     V24    10.0   1_556     S
V9     V10    10.0   .     S
V9     V11    10.0   .     S
V9     V15    10.0   1_565     S
V9     V29    10.0   1_554     S
V10     V12    10.0   .     S
V10     V32    10.0   .     S
V11     V12    10.0   .     S
V11     V31    10.0   .     S
V12     V14    10.0   .     S
V12     V30    10.0   1_554     S
V13     V14    10.0   .     S
V13     V15    10.0   .     S
V13     V1    10.0   1_554     S
V13     V19    10.0   1_554     S
V14     V16    10.0   .     S
V14     V17    10.0   .     S
V15     V9    10.0   1_545     S
V15     V16    10.0   .     S
V15     V20    10.0   .     S
V16     V3    10.0   1_554     S
V16     V18    10.0   1_554     S
V17     V18    10.0   .     S
V17     V19    10.0   .     S
V17     V27    10.0   .     S
V18     V20    10.0   .     S
V18     V32    10.0   1_545     S
V18     V16    10.0   1_556     S
V19     V20    10.0   .     S
V19     V31    10.0   .     S
V19     V13    10.0   1_556     S
V20     V25    10.0   .     S
V21     V23    10.0   1_455     S
V21     V22    10.0   .     S
V21     V29    10.0   1_554     S
V21     V6    10.0   1_554     S
V22     V24    10.0   1_455     S
V22     V26    10.0   .     S
V23     V21    10.0   1_655     S
V23     V24    10.0   .     S
V23     V28    10.0   1_565     S
V24     V8    10.0   1_554     S
V24     V22    10.0   1_655     S
V24     V30    10.0   1_554     S
V25     V28    10.0   1_455     S
V25     V26    10.0   .     S
V26     V27    10.0   1_455     S
V26     V1    10.0   1_554     S
V27     V26    10.0   1_655     S
V27     V28    10.0   .     S
V28     V23    10.0   1_545     S
V28     V25    10.0   1_655     S
V28     V3    10.0   1_554     S
V29     V21    10.0   1_556     S
V29     V32    10.0   .     S
V29     V31    10.0   .     S
V29     V9    10.0   1_556     S
V30     V31    10.0   .     S
V30     V32    10.0   .     S
V30     V24    10.0   1_556     S
V30     V12    10.0   1_556     S
V32     V18    10.0   1_565     S
