data_uox
_audit_creation_date              2020-02-04
_audit_creation_method            'Pymatgen'
_symmetry_space_group_name_H-M    'P1'
_symmetry_Int_Tables_number       1
loop_
_symmetry_equiv_pos_as_xyz
  x,y,z
_cell_length_a                    31.1343
_cell_length_b                    31.1343
_cell_length_c                    51.0038
_cell_angle_alpha                 90.0
_cell_angle_beta                 90.0
_cell_angle_gamma                 90.0
loop_
_atom_site_label
_atom_site_type_symbol
_atom_site_fract_x
_atom_site_fract_y
_atom_site_fract_z
V1     V     0.6852   0.6471   0.9103
V2     V     0.3148   0.8529   0.9103
V3     V     0.6029   0.9352   0.8397
V4     V     0.3971   0.5648   0.8397
V5     V     0.1029   0.0648   0.8397
V6     V     0.8971   0.4352   0.8397
V7     V     0.1852   0.3529   0.9103
V8     V     0.8148   0.1471   0.9103
V9     V     0.6852   0.8529   0.4103
V10     V     0.6029   0.5648   0.3397
V11     V     0.3148   0.6471   0.4103
V12     V     0.3971   0.9352   0.3397
V13     V     0.1852   0.1471   0.4103
V14     V     0.1029   0.4352   0.3397
V15     V     0.8971   0.0648   0.3397
V16     V     0.8148   0.3529   0.4103
V17     V     0.8148   0.6471   0.0897
V18     V     0.1029   0.5648   0.1603
V19     V     0.8971   0.9352   0.1603
V20     V     0.1852   0.8529   0.0897
V21     V     0.3148   0.3529   0.0897
V22     V     0.3971   0.0648   0.1603
V23     V     0.6029   0.4352   0.1603
V24     V     0.6852   0.1471   0.0897
V25     V     0.8148   0.8529   0.5897
V26     V     0.8971   0.5648   0.6603
V27     V     0.1029   0.9352   0.6603
V28     V     0.1852   0.6471   0.5897
V29     V     0.3148   0.1471   0.5897
V30     V     0.3971   0.4352   0.6603
V31     V     0.6029   0.0648   0.6603
V32     V     0.6852   0.3529   0.5897
loop_
_geom_bond_atom_site_label_1
_geom_bond_atom_site_label_2
_geom_bond_distance
_geom_bond_site_symmetry_2
_ccdc_geom_bond_type
V1     V3    10.0   .     S
V1     V4    10.0   .     S
V1     V6    10.0   .     S
V1     V17    10.0   1_556     S
V2     V4    10.0   .     S
V2     V3    10.0   .     S
V2     V5    10.0   1_565     S
V2     V20    10.0   1_556     S
V3     V8    10.0   1_565     S
V3     V31    10.0   1_565     S
V4     V7    10.0   .     S
V4     V30    10.0   .     S
V5     V7    10.0   .     S
V5     V8    10.0   1_455     S
V5     V2    10.0   1_545     S
V5     V27    10.0   1_545     S
V6     V8    10.0   .     S
V6     V7    10.0   1_655     S
V6     V26    10.0   .     S
V7     V6    10.0   1_455     S
V7     V21    10.0   1_556     S
V8     V5    10.0   1_655     S
V8     V3    10.0   1_545     S
V8     V24    10.0   1_556     S
V9     V10    10.0   .     S
V9     V12    10.0   .     S
V9     V15    10.0   1_565     S
V9     V25    10.0   .     S
V10     V11    10.0   .     S
V10     V16    10.0   .     S
V10     V23    10.0   .     S
V11     V12    10.0   .     S
V11     V14    10.0   .     S
V11     V28    10.0   .     S
V12     V13    10.0   1_565     S
V12     V22    10.0   1_565     S
V13     V12    10.0   1_545     S
V13     V14    10.0   .     S
V13     V15    10.0   1_455     S
V13     V29    10.0   .     S
V14     V16    10.0   1_455     S
V14     V18    10.0   .     S
V15     V9    10.0   1_545     S
V15     V13    10.0   1_655     S
V15     V16    10.0   .     S
V15     V19    10.0   1_545     S
V16     V14    10.0   1_655     S
V16     V32    10.0   .     S
V17     V19    10.0   .     S
V17     V18    10.0   1_655     S
V17     V23    10.0   .     S
V17     V1    10.0   1_554     S
V18     V17    10.0   1_455     S
V18     V20    10.0   .     S
V18     V21    10.0   .     S
V19     V20    10.0   1_655     S
V19     V24    10.0   1_565     S
V19     V15    10.0   1_565     S
V20     V19    10.0   1_455     S
V20     V22    10.0   1_565     S
V20     V2    10.0   1_554     S
V21     V23    10.0   .     S
V21     V22    10.0   .     S
V21     V7    10.0   1_554     S
V22     V24    10.0   .     S
V22     V20    10.0   1_545     S
V22     V12    10.0   1_545     S
V23     V24    10.0   .     S
V24     V19    10.0   1_545     S
V24     V8    10.0   1_554     S
V25     V26    10.0   .     S
V25     V27    10.0   1_655     S
V25     V31    10.0   1_565     S
V26     V28    10.0   1_655     S
V26     V32    10.0   .     S
V27     V25    10.0   1_455     S
V27     V28    10.0   .     S
V27     V29    10.0   1_565     S
V27     V5    10.0   1_565     S
V28     V26    10.0   1_455     S
V28     V30    10.0   .     S
V29     V27    10.0   1_545     S
V29     V30    10.0   .     S
V29     V31    10.0   .     S
V30     V32    10.0   .     S
V31     V32    10.0   .     S
V31     V25    10.0   1_545     S
V31     V3    10.0   1_545     S
