data_upb
_audit_creation_date              2020-02-04
_audit_creation_method            'Pymatgen'
_symmetry_space_group_name_H-M    'P1'
_symmetry_Int_Tables_number       1
loop_
_symmetry_equiv_pos_as_xyz
  x,y,z
_cell_length_a                    29.7119
_cell_length_b                    29.7119
_cell_length_c                    28.9977
_cell_angle_alpha                 90.0
_cell_angle_beta                 90.0
_cell_angle_gamma                 90.0
loop_
_atom_site_label
_atom_site_type_symbol
_atom_site_fract_x
_atom_site_fract_y
_atom_site_fract_z
V1     V     0.7219   0.586   0.1482
V2     V     0.914   0.7781   0.3518
V3     V     0.2781   0.586   0.8518
V4     V     0.086   0.7781   0.6482
V5     V     0.2781   0.414   0.1482
V6     V     0.086   0.2219   0.3518
V7     V     0.7219   0.414   0.8518
V8     V     0.914   0.2219   0.6482
V9     V     0.414   0.7219   0.1482
V10     V     0.2219   0.914   0.3518
V11     V     0.414   0.2781   0.8518
V12     V     0.2219   0.086   0.6482
V13     V     0.586   0.2781   0.1482
V14     V     0.7781   0.086   0.3518
V15     V     0.586   0.7219   0.8518
V16     V     0.7781   0.914   0.6482
loop_
_geom_bond_atom_site_label_1
_geom_bond_atom_site_label_2
_geom_bond_distance
_geom_bond_site_symmetry_2
_ccdc_geom_bond_type
V1     V9    10.0   .     S
V1     V2    10.0   .     S
V1     V7    10.0   1_554     S
V1     V13    10.0   .     S
V2     V14    10.0   1_565     S
V2     V4    10.0   1_655     S
V2     V10    10.0   1_655     S
V3     V15    10.0   .     S
V3     V4    10.0   .     S
V3     V5    10.0   1_556     S
V3     V11    10.0   .     S
V4     V12    10.0   1_565     S
V4     V2    10.0   1_455     S
V4     V16    10.0   1_455     S
V5     V3    10.0   1_554     S
V5     V13    10.0   .     S
V5     V6    10.0   .     S
V5     V9    10.0   .     S
V6     V10    10.0   1_545     S
V6     V8    10.0   1_455     S
V6     V14    10.0   1_455     S
V7     V11    10.0   .     S
V7     V8    10.0   .     S
V7     V1    10.0   1_556     S
V7     V15    10.0   .     S
V8     V16    10.0   1_545     S
V8     V6    10.0   1_655     S
V8     V12    10.0   1_655     S
V9     V10    10.0   .     S
V9     V15    10.0   1_554     S
V10     V6    10.0   1_565     S
V10     V2    10.0   1_455     S
V10     V12    10.0   1_565     S
V11     V12    10.0   .     S
V11     V13    10.0   1_556     S
V12     V4    10.0   1_545     S
V12     V8    10.0   1_455     S
V12     V10    10.0   1_545     S
V13     V11    10.0   1_554     S
V13     V14    10.0   .     S
V14     V2    10.0   1_545     S
V14     V6    10.0   1_655     S
V14     V16    10.0   1_545     S
V15     V16    10.0   .     S
V15     V9    10.0   1_556     S
V16     V8    10.0   1_565     S
V16     V4    10.0   1_655     S
V16     V14    10.0   1_565     S
