data_upc
_audit_creation_date              2020-02-04
_audit_creation_method            'Pymatgen'
_symmetry_space_group_name_H-M    'P1'
_symmetry_Int_Tables_number       1
loop_
_symmetry_equiv_pos_as_xyz
  x,y,z
_cell_length_a                    23.8432
_cell_length_b                    23.8432
_cell_length_c                    29.0781
_cell_angle_alpha                 90.0
_cell_angle_beta                 90.0
_cell_angle_gamma                 90.0
loop_
_atom_site_label
_atom_site_type_symbol
_atom_site_fract_x
_atom_site_fract_y
_atom_site_fract_z
V1     V     0.1061   0.5975   0.625
V2     V     0.8939   0.4025   0.375
V3     V     0.9025   0.3939   0.875
V4     V     0.0975   0.6061   0.125
V5     V     0.1061   0.9025   0.875
V6     V     0.8939   0.0975   0.125
V7     V     0.9025   0.1061   0.625
V8     V     0.0975   0.8939   0.375
V9     V     0.6061   0.4025   0.125
V10     V     0.3939   0.5975   0.875
V11     V     0.5975   0.3939   0.625
V12     V     0.4025   0.6061   0.375
V13     V     0.4025   0.8939   0.125
V14     V     0.5975   0.1061   0.875
V15     V     0.3939   0.9025   0.625
V16     V     0.6061   0.0975   0.375
loop_
_geom_bond_atom_site_label_1
_geom_bond_atom_site_label_2
_geom_bond_distance
_geom_bond_site_symmetry_2
_ccdc_geom_bond_type
V1     V2    10.0   1_455     S
V1     V3    10.0   1_455     S
V1     V10    10.0   .     S
V1     V15    10.0   .     S
V2     V1    10.0   1_655     S
V2     V4    10.0   1_655     S
V2     V9    10.0   .     S
V2     V16    10.0   .     S
V3     V4    10.0   1_656     S
V3     V1    10.0   1_655     S
V3     V7    10.0   .     S
V3     V14    10.0   .     S
V4     V3    10.0   1_454     S
V4     V2    10.0   1_455     S
V4     V8    10.0   .     S
V4     V13    10.0   .     S
V5     V6    10.0   1_466     S
V5     V7    10.0   1_465     S
V5     V15    10.0   .     S
V5     V10    10.0   .     S
V6     V5    10.0   1_644     S
V6     V8    10.0   1_645     S
V6     V16    10.0   .     S
V6     V9    10.0   .     S
V7     V8    10.0   1_645     S
V7     V5    10.0   1_645     S
V7     V11    10.0   .     S
V8     V7    10.0   1_465     S
V8     V6    10.0   1_465     S
V8     V12    10.0   .     S
V9     V10    10.0   1_554     S
V9     V12    10.0   .     S
V10     V9    10.0   1_556     S
V10     V11    10.0   .     S
V11     V12    10.0   .     S
V11     V14    10.0   .     S
V12     V13    10.0   .     S
V13     V14    10.0   1_564     S
V13     V16    10.0   1_565     S
V14     V13    10.0   1_546     S
V14     V15    10.0   1_545     S
V15     V16    10.0   1_565     S
V15     V14    10.0   1_565     S
V16     V15    10.0   1_545     S
V16     V13    10.0   1_545     S
