data_urga
_audit_creation_date              2020-02-04
_audit_creation_method            'Pymatgen'
_symmetry_space_group_name_H-M    'P1'
_symmetry_Int_Tables_number       1
loop_
_symmetry_equiv_pos_as_xyz
  x,y,z
_cell_length_a                    63.395
_cell_length_b                    63.395
_cell_length_c                    63.395
_cell_angle_alpha                 90.0
_cell_angle_beta                 90.0
_cell_angle_gamma                 90.0
loop_
_atom_site_label
_atom_site_type_symbol
_atom_site_fract_x
_atom_site_fract_y
_atom_site_fract_z
Ti1     Ti     0.5801   0.5801   0.5801
Ti2     Ti     0.4199   0.5801   0.5801
Ti3     Ti     0.4199   0.5801   0.4199
Ti4     Ti     0.4199   0.4199   0.5801
Ti5     Ti     0.5801   0.5801   0.4199
Ti6     Ti     0.5801   0.4199   0.4199
Ti7     Ti     0.5801   0.4199   0.5801
Ti8     Ti     0.4199   0.4199   0.4199
Ti9     Ti     0.9199   0.0801   0.0801
Ti10     Ti     0.9199   0.0801   0.9199
Ti11     Ti     0.0801   0.0801   0.9199
Ti12     Ti     0.0801   0.0801   0.0801
Ti13     Ti     0.0801   0.9199   0.9199
Ti14     Ti     0.0801   0.9199   0.0801
Ti15     Ti     0.9199   0.9199   0.0801
Ti16     Ti     0.9199   0.9199   0.9199
Ce17     Ce     0.5777   0.9223   0.75
V18     V     0.6869   0.8131   0.75
Ce19     Ce     0.9223   0.75   0.5777
V20     V     0.8131   0.75   0.6869
Ce21     Ce     0.75   0.5777   0.9223
V22     V     0.75   0.6869   0.8131
Ce23     Ce     0.75   0.5777   0.0777
V24     V     0.75   0.6869   0.1869
Ce25     Ce     0.5777   0.9223   0.25
V26     V     0.6869   0.8131   0.25
Ce27     Ce     0.9223   0.75   0.4223
V28     V     0.8131   0.75   0.3131
Ce29     Ce     0.0777   0.75   0.5777
V30     V     0.1869   0.75   0.6869
Ce31     Ce     0.25   0.5777   0.9223
V32     V     0.25   0.6869   0.8131
Ce33     Ce     0.4223   0.9223   0.75
V34     V     0.3131   0.8131   0.75
Ce35     Ce     0.4223   0.9223   0.25
V36     V     0.3131   0.8131   0.25
Ce37     Ce     0.25   0.5777   0.0777
V38     V     0.25   0.6869   0.1869
Ce39     Ce     0.0777   0.75   0.4223
V40     V     0.1869   0.75   0.3131
Ce41     Ce     0.5777   0.0777   0.75
V42     V     0.6869   0.1869   0.75
Ce43     Ce     0.9223   0.25   0.5777
V44     V     0.8131   0.25   0.6869
Ce45     Ce     0.75   0.4223   0.9223
V46     V     0.75   0.3131   0.8131
Ce47     Ce     0.5777   0.0777   0.25
V48     V     0.6869   0.1869   0.25
Ce49     Ce     0.75   0.4223   0.0777
V50     V     0.75   0.3131   0.1869
Ce51     Ce     0.9223   0.25   0.4223
V52     V     0.8131   0.25   0.3131
Ce53     Ce     0.0777   0.25   0.5777
V54     V     0.1869   0.25   0.6869
Ce55     Ce     0.4223   0.0777   0.75
V56     V     0.3131   0.1869   0.75
Ce57     Ce     0.25   0.4223   0.9223
V58     V     0.25   0.3131   0.8131
Ce59     Ce     0.25   0.4223   0.0777
V60     V     0.25   0.3131   0.1869
Ce61     Ce     0.0777   0.25   0.4223
V62     V     0.1869   0.25   0.3131
Ce63     Ce     0.4223   0.0777   0.25
V64     V     0.3131   0.1869   0.25
Er65     Er     0.8263   0.8263   0.1737
Er66     Er     0.1737   0.8263   0.8263
Er67     Er     0.8263   0.1737   0.8263
Er68     Er     0.8263   0.8263   0.8263
Er69     Er     0.1737   0.1737   0.8263
Er70     Er     0.8263   0.1737   0.1737
Er71     Er     0.1737   0.8263   0.1737
Er72     Er     0.1737   0.1737   0.1737
Er73     Er     0.3263   0.6737   0.6737
Er74     Er     0.6737   0.3263   0.6737
Er75     Er     0.6737   0.6737   0.3263
Er76     Er     0.6737   0.3263   0.3263
Er77     Er     0.3263   0.6737   0.3263
Er78     Er     0.3263   0.3263   0.6737
Er79     Er     0.3263   0.3263   0.3263
Er80     Er     0.6737   0.6737   0.6737
loop_
_geom_bond_atom_site_label_1
_geom_bond_atom_site_label_2
_geom_bond_distance
_geom_bond_site_symmetry_2
_ccdc_geom_bond_type
Ti1     Er80    10.274   .     S
Ti1     Ti5    10.158   .     S
Ti1     Ti7    10.158   .     S
Ti1     Ti2    10.158   .     S
Ti2     Er73    10.274   .     S
Ti2     Ti3    10.158   .     S
Ti2     Ti4    10.158   .     S
Ti3     Er77    10.274   .     S
Ti3     Ti8    10.158   .     S
Ti3     Ti5    10.158   .     S
Ti4     Er78    10.274   .     S
Ti4     Ti8    10.158   .     S
Ti4     Ti7    10.158   .     S
Ti5     Er75    10.274   .     S
Ti5     Ti6    10.158   .     S
Ti6     Er76    10.274   .     S
Ti6     Ti7    10.158   .     S
Ti6     Ti8    10.158   .     S
Ti7     Er74    10.274   .     S
Ti8     Er79    10.274   .     S
Ti9     Er70    10.274   .     S
Ti9     Ti10    10.158   1_554     S
Ti9     Ti15    10.158   1_545     S
Ti9     Ti12    10.158   1_655     S
Ti10     Er67    10.274   .     S
Ti10     Ti9    10.158   1_556     S
Ti10     Ti16    10.158   1_545     S
Ti10     Ti11    10.158   1_655     S
Ti11     Er69    10.274   .     S
Ti11     Ti10    10.158   1_455     S
Ti11     Ti13    10.158   1_545     S
Ti11     Ti12    10.158   1_556     S
Ti12     Er72    10.274   .     S
Ti12     Ti14    10.158   1_545     S
Ti12     Ti11    10.158   1_554     S
Ti12     Ti9    10.158   1_455     S
Ti13     Er66    10.274   .     S
Ti13     Ti11    10.158   1_565     S
Ti13     Ti16    10.158   1_455     S
Ti13     Ti14    10.158   1_556     S
Ti14     Er71    10.274   .     S
Ti14     Ti12    10.158   1_565     S
Ti14     Ti15    10.158   1_455     S
Ti14     Ti13    10.158   1_554     S
Ti15     Er65    10.274   .     S
Ti15     Ti9    10.158   1_565     S
Ti15     Ti14    10.158   1_655     S
Ti15     Ti16    10.158   1_554     S
Ti16     Er68    10.274   .     S
Ti16     Ti10    10.158   1_565     S
Ti16     Ti13    10.158   1_655     S
Ti16     Ti15    10.158   1_556     S
Ce17     V18    9.791   .     S
Ce17     Ce33    9.852   .     S
Ce17     Ce41    9.852   1_565     S
V18     Er68    10.11   .     S
V18     Er80    10.11   .     S
V18     V20    9.797   .     S
V18     V22    9.797   .     S
Ce19     V20    9.791   .     S
Ce19     Ce27    9.852   .     S
Ce19     Ce29    9.852   1_655     S
V20     Er68    10.11   .     S
V20     Er80    10.11   .     S
V20     V22    9.797   .     S
Ce21     V22    9.791   .     S
Ce21     Ce45    9.852   .     S
Ce21     Ce23    9.852   1_556     S
V22     Er68    10.11   .     S
V22     Er80    10.11   .     S
Ce23     V24    9.791   .     S
Ce23     Ce49    9.852   .     S
Ce23     Ce21    9.852   1_554     S
V24     Er65    10.11   .     S
V24     Er75    10.11   .     S
V24     V26    9.797   .     S
V24     V28    9.797   .     S
Ce25     V26    9.791   .     S
Ce25     Ce35    9.852   .     S
Ce25     Ce47    9.852   1_565     S
V26     Er65    10.11   .     S
V26     Er75    10.11   .     S
V26     V28    9.797   .     S
Ce27     V28    9.791   .     S
Ce27     Ce39    9.852   1_655     S
V28     Er65    10.11   .     S
V28     Er75    10.11   .     S
Ce29     V30    9.791   .     S
Ce29     Ce39    9.852   .     S
Ce29     Ce19    9.852   1_455     S
V30     Er66    10.11   .     S
V30     Er73    10.11   .     S
V30     V32    9.797   .     S
V30     V34    9.797   .     S
Ce31     V32    9.791   .     S
Ce31     Ce57    9.852   .     S
Ce31     Ce37    9.852   1_556     S
V32     Er66    10.11   .     S
V32     Er73    10.11   .     S
V32     V34    9.797   .     S
Ce33     V34    9.791   .     S
Ce33     Ce55    9.852   1_565     S
V34     Er66    10.11   .     S
V34     Er73    10.11   .     S
Ce35     V36    9.791   .     S
Ce35     Ce63    9.852   1_565     S
V36     Er71    10.11   .     S
V36     Er77    10.11   .     S
V36     V38    9.797   .     S
V36     V40    9.797   .     S
Ce37     V38    9.791   .     S
Ce37     Ce59    9.852   .     S
Ce37     Ce31    9.852   1_554     S
V38     Er71    10.11   .     S
V38     Er77    10.11   .     S
V38     V40    9.797   .     S
Ce39     V40    9.791   .     S
Ce39     Ce27    9.852   1_455     S
V40     Er71    10.11   .     S
V40     Er77    10.11   .     S
Ce41     V42    9.791   .     S
Ce41     Ce55    9.852   .     S
Ce41     Ce17    9.852   1_545     S
V42     Er67    10.11   .     S
V42     Er74    10.11   .     S
V42     V44    9.797   .     S
V42     V46    9.797   .     S
Ce43     V44    9.791   .     S
Ce43     Ce51    9.852   .     S
Ce43     Ce53    9.852   1_655     S
V44     Er67    10.11   .     S
V44     Er74    10.11   .     S
V44     V46    9.797   .     S
Ce45     V46    9.791   .     S
Ce45     Ce49    9.852   1_556     S
V46     Er67    10.11   .     S
V46     Er74    10.11   .     S
Ce47     V48    9.791   .     S
Ce47     Ce63    9.852   .     S
Ce47     Ce25    9.852   1_545     S
V48     Er70    10.11   .     S
V48     Er76    10.11   .     S
V48     V50    9.797   .     S
V48     V52    9.797   .     S
Ce49     V50    9.791   .     S
Ce49     Ce45    9.852   1_554     S
V50     Er70    10.11   .     S
V50     Er76    10.11   .     S
V50     V52    9.797   .     S
Ce51     V52    9.791   .     S
Ce51     Ce61    9.852   1_655     S
V52     Er70    10.11   .     S
V52     Er76    10.11   .     S
Ce53     V54    9.791   .     S
Ce53     Ce61    9.852   .     S
Ce53     Ce43    9.852   1_455     S
V54     Er69    10.11   .     S
V54     Er78    10.11   .     S
V54     V56    9.797   .     S
V54     V58    9.797   .     S
Ce55     V56    9.791   .     S
Ce55     Ce33    9.852   1_545     S
V56     Er69    10.11   .     S
V56     Er78    10.11   .     S
V56     V58    9.797   .     S
Ce57     V58    9.791   .     S
Ce57     Ce59    9.852   1_556     S
V58     Er69    10.11   .     S
V58     Er78    10.11   .     S
Ce59     V60    9.791   .     S
Ce59     Ce57    9.852   1_554     S
V60     Er72    10.11   .     S
V60     Er79    10.11   .     S
V60     V62    9.797   .     S
V60     V64    9.797   .     S
Ce61     V62    9.791   .     S
Ce61     Ce51    9.852   1_455     S
V62     Er72    10.11   .     S
V62     Er79    10.11   .     S
V62     V64    9.797   .     S
Ce63     V64    9.791   .     S
Ce63     Ce35    9.852   1_545     S
V64     Er72    10.11   .     S
V64     Er79    10.11   .     S
