data_urha
_audit_creation_date              2020-02-04
_audit_creation_method            'Pymatgen'
_symmetry_space_group_name_H-M    'P1'
_symmetry_Int_Tables_number       1
loop_
_symmetry_equiv_pos_as_xyz
  x,y,z
_cell_length_a                    63.6436
_cell_length_b                    63.6436
_cell_length_c                    63.6436
_cell_angle_alpha                 90.0
_cell_angle_beta                 90.0
_cell_angle_gamma                 90.0
loop_
_atom_site_label
_atom_site_type_symbol
_atom_site_fract_x
_atom_site_fract_y
_atom_site_fract_z
Ce1     Ce     0.9361   0.2426   0.5903
Ce2     Ce     0.7574   0.4097   0.9361
Ce3     Ce     0.5903   0.0639   0.7574
Ti4     Ti     0.7785   0.2839   0.8444
Ti5     Ti     0.7161   0.1556   0.7785
Ti6     Ti     0.8444   0.2215   0.7161
Er7     Er     0.8537   0.1463   0.8537
Ce8     Ce     0.2426   0.5903   0.9361
Ce9     Ce     0.4097   0.9361   0.7574
Ce10     Ce     0.0639   0.7574   0.5903
Ti11     Ti     0.2839   0.8444   0.7785
Ti12     Ti     0.2215   0.7161   0.8444
Ti13     Ti     0.1556   0.7785   0.7161
Er14     Er     0.1463   0.8537   0.8537
Ce15     Ce     0.5903   0.9361   0.2426
Ce16     Ce     0.7574   0.5903   0.0639
Ce17     Ce     0.9361   0.7574   0.4097
Ti18     Ti     0.8444   0.7785   0.2839
Ti19     Ti     0.7785   0.7161   0.1556
Ti20     Ti     0.7161   0.8444   0.2215
Er21     Er     0.8537   0.8537   0.1463
Ce22     Ce     0.2426   0.4097   0.0639
Ce23     Ce     0.4097   0.0639   0.2426
Ce24     Ce     0.0639   0.2426   0.4097
Ti25     Ti     0.2215   0.2839   0.1556
Ti26     Ti     0.2839   0.1556   0.2215
Ti27     Ti     0.1556   0.2215   0.2839
Er28     Er     0.1463   0.1463   0.1463
V29     V     0.9444   0.0556   0.9444
V30     V     0.9444   0.9444   0.0556
V31     V     0.0556   0.9444   0.9444
V32     V     0.0556   0.0556   0.0556
Ce33     Ce     0.9097   0.7426   0.5639
Ce34     Ce     0.5639   0.9097   0.7426
Ce35     Ce     0.7426   0.5639   0.9097
Ti36     Ti     0.7839   0.7215   0.6556
Ti37     Ti     0.6556   0.7839   0.7215
Ti38     Ti     0.7215   0.6556   0.7839
Er39     Er     0.6463   0.6463   0.6463
Ce40     Ce     0.0903   0.2574   0.5639
Ce41     Ce     0.4361   0.0903   0.7426
Ce42     Ce     0.2574   0.4361   0.9097
Ti43     Ti     0.2161   0.2785   0.6556
Ti44     Ti     0.3444   0.2161   0.7215
Ti45     Ti     0.2785   0.3444   0.7839
Er46     Er     0.3537   0.3537   0.6463
Ce47     Ce     0.5639   0.0903   0.2574
Ce48     Ce     0.7426   0.4361   0.0903
Ce49     Ce     0.9097   0.2574   0.4361
Ti50     Ti     0.7839   0.2785   0.3444
Ti51     Ti     0.6556   0.2161   0.2785
Ti52     Ti     0.7215   0.3444   0.2161
Er53     Er     0.6463   0.3537   0.3537
V54     V     0.5556   0.5556   0.5556
V55     V     0.4444   0.5556   0.4444
V56     V     0.4444   0.4444   0.5556
V57     V     0.5556   0.4444   0.4444
Ce58     Ce     0.2574   0.5639   0.0903
Ce59     Ce     0.0903   0.7426   0.4361
Ce60     Ce     0.4361   0.9097   0.2574
Ti61     Ti     0.2161   0.7215   0.3444
Ti62     Ti     0.3444   0.7839   0.2785
Ti63     Ti     0.2785   0.6556   0.2161
Er64     Er     0.3537   0.6463   0.3537
loop_
_geom_bond_atom_site_label_1
_geom_bond_atom_site_label_2
_geom_bond_distance
_geom_bond_site_symmetry_2
_ccdc_geom_bond_type
Ce1     Ce49    10.0   .     S
Ce1     Ti6    10.0   .     S
Ce1     Ce40    10.0   1_655     S
Ce2     Ce35    10.0   .     S
Ce2     Ti4    10.0   .     S
Ce2     Ce48    10.0   1_556     S
Ce3     Ce41    10.0   .     S
Ce3     Ti5    10.0   .     S
Ce3     Ce34    10.0   1_545     S
Ti4     Ti5    10.0   .     S
Ti4     Er7    10.0   .     S
Ti4     Ti6    10.0   .     S
Ti5     Ti6    10.0   .     S
Ti5     Er7    10.0   .     S
Ti6     Er7    10.0   .     S
Er7     V29    10.0   .     S
Ce8     Ce42    10.0   .     S
Ce8     Ti12    10.0   .     S
Ce8     Ce58    10.0   1_556     S
Ce9     Ce34    10.0   .     S
Ce9     Ti11    10.0   .     S
Ce9     Ce41    10.0   1_565     S
Ce10     Ce59    10.0   .     S
Ce10     Ti13    10.0   .     S
Ce10     Ce33    10.0   1_455     S
Ti11     Ti13    10.0   .     S
Ti11     Er14    10.0   .     S
Ti11     Ti12    10.0   .     S
Ti12     Er14    10.0   .     S
Ti12     Ti13    10.0   .     S
Ti13     Er14    10.0   .     S
Er14     V31    10.0   .     S
Ce15     Ce60    10.0   .     S
Ce15     Ti20    10.0   .     S
Ce15     Ce47    10.0   1_565     S
Ce16     Ce48    10.0   .     S
Ce16     Ti19    10.0   .     S
Ce16     Ce35    10.0   1_554     S
Ce17     Ce33    10.0   .     S
Ce17     Ti18    10.0   .     S
Ce17     Ce59    10.0   1_655     S
Ti18     Ti19    10.0   .     S
Ti18     Er21    10.0   .     S
Ti18     Ti20    10.0   .     S
Ti19     Ti20    10.0   .     S
Ti19     Er21    10.0   .     S
Ti20     Er21    10.0   .     S
Er21     V30    10.0   .     S
Ce22     Ce58    10.0   .     S
Ce22     Ti25    10.0   .     S
Ce22     Ce42    10.0   1_554     S
Ce23     Ce47    10.0   .     S
Ce23     Ti26    10.0   .     S
Ce23     Ce60    10.0   1_545     S
Ce24     Ce40    10.0   .     S
Ce24     Ti27    10.0   .     S
Ce24     Ce49    10.0   1_455     S
Ti25     Ti26    10.0   .     S
Ti25     Er28    10.0   .     S
Ti25     Ti27    10.0   .     S
Ti26     Ti27    10.0   .     S
Ti26     Er28    10.0   .     S
Ti27     Er28    10.0   .     S
Er28     V32    10.0   .     S
V29     V32    10.0   1_656     S
V29     V30    10.0   1_546     S
V29     V31    10.0   1_645     S
V30     V32    10.0   1_665     S
V30     V29    10.0   1_564     S
V30     V31    10.0   1_654     S
V31     V32    10.0   1_566     S
V31     V30    10.0   1_456     S
V31     V29    10.0   1_465     S
V32     V29    10.0   1_454     S
V32     V30    10.0   1_445     S
V32     V31    10.0   1_544     S
Ce33     Ce10    10.0   1_655     S
Ce33     Ti36    10.0   .     S
Ce34     Ce3    10.0   1_565     S
Ce34     Ti37    10.0   .     S
Ce35     Ce16    10.0   1_556     S
Ce35     Ti38    10.0   .     S
Ti36     Ti37    10.0   .     S
Ti36     Er39    10.0   .     S
Ti36     Ti38    10.0   .     S
Ti37     Ti38    10.0   .     S
Ti37     Er39    10.0   .     S
Ti38     Er39    10.0   .     S
Er39     V54    10.0   .     S
Ce40     Ce1    10.0   1_455     S
Ce40     Ti43    10.0   .     S
Ce41     Ce9    10.0   1_545     S
Ce41     Ti44    10.0   .     S
Ce42     Ce22    10.0   1_556     S
Ce42     Ti45    10.0   .     S
Ti43     Ti44    10.0   .     S
Ti43     Er46    10.0   .     S
Ti43     Ti45    10.0   .     S
Ti44     Ti45    10.0   .     S
Ti44     Er46    10.0   .     S
Ti45     Er46    10.0   .     S
Er46     V56    10.0   .     S
Ce47     Ce15    10.0   1_545     S
Ce47     Ti51    10.0   .     S
Ce48     Ce2    10.0   1_554     S
Ce48     Ti52    10.0   .     S
Ce49     Ce24    10.0   1_655     S
Ce49     Ti50    10.0   .     S
Ti50     Ti51    10.0   .     S
Ti50     Er53    10.0   .     S
Ti50     Ti52    10.0   .     S
Ti51     Ti52    10.0   .     S
Ti51     Er53    10.0   .     S
Ti52     Er53    10.0   .     S
Er53     V57    10.0   .     S
V54     V55    10.0   .     S
V54     V57    10.0   .     S
V54     V56    10.0   .     S
V55     V56    10.0   .     S
V55     V57    10.0   .     S
V55     Er64    10.0   .     S
V56     V57    10.0   .     S
Ce58     Ce8    10.0   1_554     S
Ce58     Ti63    10.0   .     S
Ce59     Ce17    10.0   1_455     S
Ce59     Ti61    10.0   .     S
Ce60     Ce23    10.0   1_565     S
Ce60     Ti62    10.0   .     S
Ti61     Ti62    10.0   .     S
Ti61     Er64    10.0   .     S
Ti61     Ti63    10.0   .     S
Ti62     Ti63    10.0   .     S
Ti62     Er64    10.0   .     S
Ti63     Er64    10.0   .     S
