data_urla
_audit_creation_date              2020-02-04
_audit_creation_method            'Pymatgen'
_symmetry_space_group_name_H-M    'P1'
_symmetry_Int_Tables_number       1
loop_
_symmetry_equiv_pos_as_xyz
  x,y,z
_cell_length_a                    87.8902
_cell_length_b                    87.8902
_cell_length_c                    87.8902
_cell_angle_alpha                 90.0
_cell_angle_beta                 90.0
_cell_angle_gamma                 90.0
loop_
_atom_site_label
_atom_site_type_symbol
_atom_site_fract_x
_atom_site_fract_y
_atom_site_fract_z
Ce1     Ce     0.1695   0.25   0.25
Ce2     Ce     0.25   0.1695   0.25
Ce3     Ce     0.25   0.25   0.1695
Ce4     Ce     0.25   0.3305   0.25
Ce5     Ce     0.3305   0.25   0.25
Ce6     Ce     0.25   0.25   0.3305
Ce7     Ce     0.25   0.25   0.8305
Ce8     Ce     0.25   0.1695   0.75
Ce9     Ce     0.1695   0.25   0.75
Ce10     Ce     0.25   0.25   0.6695
Ce11     Ce     0.3305   0.25   0.75
Ce12     Ce     0.25   0.3305   0.75
Ce13     Ce     0.8305   0.25   0.25
Ce14     Ce     0.75   0.1695   0.25
Ce15     Ce     0.75   0.25   0.1695
Ce16     Ce     0.6695   0.25   0.25
Ce17     Ce     0.75   0.3305   0.25
Ce18     Ce     0.75   0.25   0.3305
Ce19     Ce     0.25   0.8305   0.25
Ce20     Ce     0.1695   0.75   0.25
Ce21     Ce     0.25   0.75   0.1695
Ce22     Ce     0.25   0.6695   0.25
Ce23     Ce     0.3305   0.75   0.25
Ce24     Ce     0.25   0.75   0.3305
Ce25     Ce     0.25   0.75   0.8305
Ce26     Ce     0.25   0.8305   0.75
Ce27     Ce     0.1695   0.75   0.75
Ce28     Ce     0.25   0.75   0.6695
Ce29     Ce     0.25   0.6695   0.75
Ce30     Ce     0.3305   0.75   0.75
Ce31     Ce     0.75   0.25   0.8305
Ce32     Ce     0.8305   0.25   0.75
Ce33     Ce     0.75   0.1695   0.75
Ce34     Ce     0.75   0.25   0.6695
Ce35     Ce     0.6695   0.25   0.75
Ce36     Ce     0.75   0.3305   0.75
Ce37     Ce     0.75   0.8305   0.25
Ce38     Ce     0.8305   0.75   0.25
Ce39     Ce     0.75   0.75   0.1695
Ce40     Ce     0.75   0.6695   0.25
Ce41     Ce     0.6695   0.75   0.25
Ce42     Ce     0.75   0.75   0.3305
V43     V     0.2453   0.5   0.1649
V44     V     0.1649   0.5   0.2453
Ti45     Ti     0.2098   0.5   0.9431
Ti46     Ti     0.2098   0.5   0.0569
V47     V     0.2453   0.5   0.8351
V48     V     0.1649   0.5   0.7547
Ti49     Ti     0.7902   0.5   0.9431
Ti50     Ti     0.7902   0.5   0.0569
Ti51     Ti     0.9431   0.5   0.7902
Ti52     Ti     0.0569   0.5   0.7902
V53     V     0.8351   0.5   0.7547
V54     V     0.7547   0.5   0.8351
Ti55     Ti     0.9431   0.5   0.2098
Ti56     Ti     0.0569   0.5   0.2098
V57     V     0.8351   0.5   0.2453
V58     V     0.7547   0.5   0.1649
Er59     Er     0.738   0.4431   0.738
Er60     Er     0.738   0.5569   0.738
Er61     Er     0.262   0.5569   0.738
Er62     Er     0.738   0.5569   0.262
Er63     Er     0.262   0.4431   0.738
Er64     Er     0.738   0.4431   0.262
Er65     Er     0.262   0.4431   0.262
Er66     Er     0.262   0.5569   0.262
V67     V     0.2547   0.6649   0.0
V68     V     0.3351   0.7453   0.0
Ti69     Ti     0.2902   0.4431   0.0
Ti70     Ti     0.2902   0.5569   0.0
V71     V     0.3351   0.2547   0.0
V72     V     0.2547   0.3351   0.0
Ti73     Ti     0.5569   0.2902   0.0
Ti74     Ti     0.4431   0.2902   0.0
V75     V     0.6649   0.2547   0.0
V76     V     0.7453   0.3351   0.0
Ti77     Ti     0.7098   0.5569   0.0
Ti78     Ti     0.7098   0.4431   0.0
Ti79     Ti     0.5569   0.7098   0.0
Ti80     Ti     0.4431   0.7098   0.0
V81     V     0.6649   0.7453   0.0
V82     V     0.7453   0.6649   0.0
Er83     Er     0.762   0.762   0.0569
Er84     Er     0.238   0.762   0.0569
Er85     Er     0.762   0.238   0.0569
Er86     Er     0.238   0.238   0.0569
Er87     Er     0.762   0.762   0.9431
Er88     Er     0.238   0.762   0.9431
Er89     Er     0.762   0.238   0.9431
Er90     Er     0.238   0.238   0.9431
V91     V     0.5   0.2453   0.1649
V92     V     0.5   0.1649   0.2453
Ti93     Ti     0.5   0.2098   0.9431
Ti94     Ti     0.5   0.2098   0.0569
V95     V     0.5   0.2453   0.8351
V96     V     0.5   0.1649   0.7547
Ti97     Ti     0.5   0.9431   0.7902
Ti98     Ti     0.5   0.0569   0.7902
Ti99     Ti     0.5   0.7902   0.0569
Ti100     Ti     0.5   0.7902   0.9431
V101     V     0.5   0.7547   0.8351
V102     V     0.5   0.8351   0.7547
Ti103     Ti     0.5   0.9431   0.2098
Ti104     Ti     0.5   0.0569   0.2098
V105     V     0.5   0.8351   0.2453
V106     V     0.5   0.7547   0.1649
Er107     Er     0.5569   0.738   0.738
Er108     Er     0.4431   0.738   0.738
Er109     Er     0.4431   0.262   0.738
Er110     Er     0.4431   0.738   0.262
Er111     Er     0.5569   0.262   0.738
Er112     Er     0.5569   0.738   0.262
Er113     Er     0.5569   0.262   0.262
Er114     Er     0.4431   0.262   0.262
V115     V     0.2547   0.0   0.6649
V116     V     0.3351   0.0   0.7453
Ti117     Ti     0.2902   0.0   0.4431
Ti118     Ti     0.2902   0.0   0.5569
V119     V     0.3351   0.0   0.2547
V120     V     0.2547   0.0   0.3351
Ti121     Ti     0.5569   0.0   0.7098
Ti122     Ti     0.4431   0.0   0.7098
V123     V     0.7453   0.0   0.6649
V124     V     0.6649   0.0   0.7453
Ti125     Ti     0.5569   0.0   0.2902
Ti126     Ti     0.4431   0.0   0.2902
Ti127     Ti     0.7098   0.0   0.4431
Ti128     Ti     0.7098   0.0   0.5569
V129     V     0.6649   0.0   0.2547
V130     V     0.7453   0.0   0.3351
Er131     Er     0.762   0.0569   0.762
Er132     Er     0.762   0.0569   0.238
Er133     Er     0.238   0.0569   0.762
Er134     Er     0.762   0.9431   0.762
Er135     Er     0.238   0.0569   0.238
Er136     Er     0.762   0.9431   0.238
Er137     Er     0.238   0.9431   0.762
Er138     Er     0.238   0.9431   0.238
V139     V     0.1649   0.2453   0.5
V140     V     0.2453   0.1649   0.5
Ti141     Ti     0.2098   0.9431   0.5
Ti142     Ti     0.2098   0.0569   0.5
V143     V     0.2453   0.8351   0.5
V144     V     0.1649   0.7547   0.5
Ti145     Ti     0.9431   0.7902   0.5
Ti146     Ti     0.0569   0.7902   0.5
Ti147     Ti     0.7902   0.0569   0.5
Ti148     Ti     0.7902   0.9431   0.5
V149     V     0.7547   0.8351   0.5
V150     V     0.8351   0.7547   0.5
Ti151     Ti     0.0569   0.2098   0.5
Ti152     Ti     0.9431   0.2098   0.5
V153     V     0.8351   0.2453   0.5
V154     V     0.7547   0.1649   0.5
Er155     Er     0.738   0.738   0.5569
Er156     Er     0.738   0.738   0.4431
Er157     Er     0.738   0.262   0.4431
Er158     Er     0.262   0.738   0.4431
Er159     Er     0.738   0.262   0.5569
Er160     Er     0.262   0.738   0.5569
Er161     Er     0.262   0.262   0.4431
Er162     Er     0.262   0.262   0.5569
V163     V     0.0   0.7453   0.6649
V164     V     0.0   0.6649   0.7453
Ti165     Ti     0.0   0.7098   0.4431
Ti166     Ti     0.0   0.7098   0.5569
V167     V     0.0   0.6649   0.2547
V168     V     0.0   0.7453   0.3351
Ti169     Ti     0.0   0.4431   0.7098
Ti170     Ti     0.0   0.5569   0.7098
V171     V     0.0   0.2547   0.6649
V172     V     0.0   0.3351   0.7453
Ti173     Ti     0.0   0.4431   0.2902
Ti174     Ti     0.0   0.5569   0.2902
Ti175     Ti     0.0   0.2902   0.4431
Ti176     Ti     0.0   0.2902   0.5569
V177     V     0.0   0.2547   0.3351
V178     V     0.0   0.3351   0.2547
Er179     Er     0.0569   0.762   0.762
Er180     Er     0.0569   0.762   0.238
Er181     Er     0.0569   0.238   0.762
Er182     Er     0.0569   0.238   0.238
Er183     Er     0.9431   0.762   0.762
Er184     Er     0.9431   0.762   0.238
Er185     Er     0.9431   0.238   0.762
Er186     Er     0.9431   0.238   0.238
Ce187     Ce     0.75   0.8305   0.75
Ce188     Ce     0.8305   0.75   0.75
Ce189     Ce     0.75   0.75   0.8305
Ce190     Ce     0.6695   0.75   0.75
Ce191     Ce     0.75   0.6695   0.75
Ce192     Ce     0.75   0.75   0.6695
loop_
_geom_bond_atom_site_label_1
_geom_bond_atom_site_label_2
_geom_bond_distance
_geom_bond_site_symmetry_2
_ccdc_geom_bond_type
Ce1     Ce2    10.001   .     S
Ce1     Ce3    10.001   .     S
Ce1     Ce6    10.003   .     S
Ce1     Ce4    10.003   .     S
Ce1     Er182    10.007   .     S
Ce2     Ce3    10.001   .     S
Ce2     Ce6    10.003   .     S
Ce2     Ce5    10.003   .     S
Ce2     Er135    10.007   .     S
Ce3     Ce4    10.003   .     S
Ce3     Ce5    10.003   .     S
Ce3     Er86    10.007   .     S
Ce4     Ce5    10.001   .     S
Ce4     Ce6    10.001   .     S
Ce4     Er65    10.007   .     S
Ce5     Ce6    10.001   .     S
Ce5     Er114    10.007   .     S
Ce6     Er161    10.007   .     S
Ce7     Ce9    10.001   .     S
Ce7     Ce8    10.001   .     S
Ce7     Ce11    10.003   .     S
Ce7     Ce12    10.003   .     S
Ce7     Er90    10.007   .     S
Ce8     Ce9    10.001   .     S
Ce8     Ce11    10.003   .     S
Ce8     Ce10    10.003   .     S
Ce8     Er133    10.007   .     S
Ce9     Ce12    10.003   .     S
Ce9     Ce10    10.003   .     S
Ce9     Er181    10.007   .     S
Ce10     Ce12    10.001   .     S
Ce10     Ce11    10.001   .     S
Ce10     Er162    10.007   .     S
Ce11     Ce12    10.001   .     S
Ce11     Er109    10.007   .     S
Ce12     Er63    10.007   .     S
Ce13     Ce14    10.001   .     S
Ce13     Ce15    10.001   .     S
Ce13     Ce17    10.003   .     S
Ce13     Ce18    10.003   .     S
Ce13     Er186    10.007   .     S
Ce14     Ce15    10.001   .     S
Ce14     Ce18    10.003   .     S
Ce14     Ce16    10.003   .     S
Ce14     Er132    10.007   .     S
Ce15     Ce17    10.003   .     S
Ce15     Ce16    10.003   .     S
Ce15     Er85    10.007   .     S
Ce16     Ce17    10.001   .     S
Ce16     Ce18    10.001   .     S
Ce16     Er113    10.007   .     S
Ce17     Ce18    10.001   .     S
Ce17     Er64    10.007   .     S
Ce18     Er157    10.007   .     S
Ce19     Ce20    10.001   .     S
Ce19     Ce21    10.001   .     S
Ce19     Ce23    10.003   .     S
Ce19     Ce24    10.003   .     S
Ce19     Er138    10.007   .     S
Ce20     Ce21    10.001   .     S
Ce20     Ce24    10.003   .     S
Ce20     Ce22    10.003   .     S
Ce20     Er180    10.007   .     S
Ce21     Ce23    10.003   .     S
Ce21     Ce22    10.003   .     S
Ce21     Er84    10.007   .     S
Ce22     Ce23    10.001   .     S
Ce22     Ce24    10.001   .     S
Ce22     Er66    10.007   .     S
Ce23     Ce24    10.001   .     S
Ce23     Er110    10.007   .     S
Ce24     Er158    10.007   .     S
Ce25     Ce27    10.001   .     S
Ce25     Ce26    10.001   .     S
Ce25     Ce29    10.003   .     S
Ce25     Ce30    10.003   .     S
Ce25     Er88    10.007   .     S
Ce26     Ce27    10.001   .     S
Ce26     Ce30    10.003   .     S
Ce26     Ce28    10.003   .     S
Ce26     Er137    10.007   .     S
Ce27     Ce29    10.003   .     S
Ce27     Ce28    10.003   .     S
Ce27     Er179    10.007   .     S
Ce28     Ce30    10.001   .     S
Ce28     Ce29    10.001   .     S
Ce28     Er160    10.007   .     S
Ce29     Ce30    10.001   .     S
Ce29     Er61    10.007   .     S
Ce30     Er108    10.007   .     S
Ce31     Ce33    10.001   .     S
Ce31     Ce32    10.001   .     S
Ce31     Ce36    10.003   .     S
Ce31     Ce35    10.003   .     S
Ce31     Er89    10.007   .     S
Ce32     Ce33    10.001   .     S
Ce32     Ce36    10.003   .     S
Ce32     Ce34    10.003   .     S
Ce32     Er185    10.007   .     S
Ce33     Ce34    10.003   .     S
Ce33     Ce35    10.003   .     S
Ce33     Er131    10.007   .     S
Ce34     Ce36    10.001   .     S
Ce34     Ce35    10.001   .     S
Ce34     Er159    10.007   .     S
Ce35     Ce36    10.001   .     S
Ce35     Er111    10.007   .     S
Ce36     Er59    10.007   .     S
Ce37     Ce39    10.001   .     S
Ce37     Ce38    10.001   .     S
Ce37     Ce42    10.003   .     S
Ce37     Ce41    10.003   .     S
Ce37     Er136    10.007   .     S
Ce38     Ce39    10.001   .     S
Ce38     Ce42    10.003   .     S
Ce38     Ce40    10.003   .     S
Ce38     Er184    10.007   .     S
Ce39     Ce41    10.003   .     S
Ce39     Ce40    10.003   .     S
Ce39     Er83    10.007   .     S
Ce40     Ce42    10.001   .     S
Ce40     Ce41    10.001   .     S
Ce40     Er62    10.007   .     S
Ce41     Ce42    10.001   .     S
Ce41     Er112    10.007   .     S
Ce42     Er156    10.007   .     S
V43     V44    9.998   .     S
V43     Er65    9.997   .     S
V43     Er66    9.997   .     S
V43     Ti46    9.997   .     S
V44     Er65    9.997   .     S
V44     Er66    9.997   .     S
V44     Ti56    9.997   .     S
Ti45     Ti70    9.998   1_556     S
Ti45     Ti69    9.998   1_556     S
Ti45     Ti46    9.995   1_556     S
Ti45     V47    9.997   .     S
Ti46     Ti69    9.998   .     S
Ti46     Ti70    9.998   .     S
Ti46     Ti45    9.995   1_554     S
V47     Er63    9.997   .     S
V47     Er61    9.997   .     S
V47     V48    9.998   .     S
V48     Er63    9.997   .     S
V48     Er61    9.997   .     S
V48     Ti52    9.997   .     S
Ti49     Ti78    9.998   1_556     S
Ti49     Ti77    9.998   1_556     S
Ti49     Ti50    9.995   1_556     S
Ti49     V54    9.997   .     S
Ti50     Ti77    9.998   .     S
Ti50     Ti78    9.998   .     S
Ti50     Ti49    9.995   1_554     S
Ti50     V58    9.997   .     S
Ti51     Ti170    9.998   1_655     S
Ti51     Ti169    9.998   1_655     S
Ti51     Ti52    9.995   1_655     S
Ti51     V53    9.997   .     S
Ti52     Ti169    9.998   .     S
Ti52     Ti170    9.998   .     S
Ti52     Ti51    9.995   1_455     S
V53     Er59    9.997   .     S
V53     Er60    9.997   .     S
V53     V54    9.998   .     S
V54     Er59    9.997   .     S
V54     Er60    9.997   .     S
Ti55     Ti173    9.998   1_655     S
Ti55     Ti174    9.998   1_655     S
Ti55     Ti56    9.995   1_655     S
Ti55     V57    9.997   .     S
Ti56     Ti174    9.998   .     S
Ti56     Ti173    9.998   .     S
Ti56     Ti55    9.995   1_455     S
V57     Er64    9.997   .     S
V57     Er62    9.997   .     S
V57     V58    9.998   .     S
V58     Er64    9.997   .     S
V58     Er62    9.997   .     S
Er59     Er60    10.007   .     S
Er60     Ce191    10.007   .     S
Er61     Er63    10.007   .     S
Er62     Er64    10.007   .     S
Er65     Er66    10.007   .     S
V67     V68    9.998   .     S
V67     Er88    9.997   1_554     S
V67     Er84    9.997   .     S
V67     Ti70    9.997   .     S
V68     Er88    9.997   1_554     S
V68     Er84    9.997   .     S
V68     Ti80    9.997   .     S
Ti69     Ti45    9.998   1_554     S
Ti69     Ti70    9.995   .     S
Ti69     V72    9.997   .     S
Ti70     Ti45    9.998   1_554     S
V71     V72    9.998   .     S
V71     Er90    9.997   1_554     S
V71     Er86    9.997   .     S
V71     Ti74    9.997   .     S
V72     Er90    9.997   1_554     S
V72     Er86    9.997   .     S
Ti73     Ti93    9.998   1_554     S
Ti73     Ti94    9.998   .     S
Ti73     Ti74    9.995   .     S
Ti73     V75    9.997   .     S
Ti74     Ti93    9.998   1_554     S
Ti74     Ti94    9.998   .     S
V75     Er89    9.997   1_554     S
V75     Er85    9.997   .     S
V75     V76    9.998   .     S
V76     Er89    9.997   1_554     S
V76     Er85    9.997   .     S
V76     Ti78    9.997   .     S
Ti77     Ti49    9.998   1_554     S
Ti77     Ti78    9.995   .     S
Ti77     V82    9.997   .     S
Ti78     Ti49    9.998   1_554     S
Ti79     Ti80    9.995   .     S
Ti79     V81    9.997   .     S
Ti79     Ti100    9.998   1_554     S
Ti79     Ti99    9.998   .     S
Ti80     Ti100    9.998   1_554     S
Ti80     Ti99    9.998   .     S
V81     Er87    9.997   1_554     S
V81     V82    9.998   .     S
V81     Er83    9.997   .     S
V82     Er87    9.997   1_554     S
V82     Er83    9.997   .     S
Er83     Er87    10.007   1_554     S
Er84     Er88    10.007   1_554     S
Er85     Er89    10.007   1_554     S
Er86     Er90    10.007   1_554     S
Er87     V81    9.997   1_556     S
Er87     V82    9.997   1_556     S
Er87     Er83    10.007   1_556     S
Er87     Ce189    10.007   .     S
Er88     V68    9.997   1_556     S
Er88     V67    9.997   1_556     S
Er88     Er84    10.007   1_556     S
Er89     V75    9.997   1_556     S
Er89     Er85    10.007   1_556     S
Er89     V76    9.997   1_556     S
Er90     V71    9.997   1_556     S
Er90     V72    9.997   1_556     S
Er90     Er86    10.007   1_556     S
V91     V92    9.998   .     S
V91     Er114    9.997   .     S
V91     Er113    9.997   .     S
V91     Ti94    9.997   .     S
V92     Er114    9.997   .     S
V92     Er113    9.997   .     S
V92     Ti104    9.997   .     S
Ti93     Ti74    9.998   1_556     S
Ti93     Ti73    9.998   1_556     S
Ti93     Ti94    9.995   1_556     S
Ti93     V95    9.997   .     S
Ti94     Ti93    9.995   1_554     S
V95     Er109    9.997   .     S
V95     Er111    9.997   .     S
V95     V96    9.998   .     S
V96     Er109    9.997   .     S
V96     Er111    9.997   .     S
V96     Ti98    9.997   .     S
Ti97     Ti122    9.998   1_565     S
Ti97     Ti121    9.998   1_565     S
Ti97     Ti98    9.995   1_565     S
Ti97     V102    9.997   .     S
Ti98     Ti121    9.998   .     S
Ti98     Ti122    9.998   .     S
Ti98     Ti97    9.995   1_545     S
Ti99     Ti100    9.995   1_554     S
Ti99     V106    9.997   .     S
Ti100     Ti79    9.998   1_556     S
Ti100     Ti80    9.998   1_556     S
Ti100     Ti99    9.995   1_556     S
Ti100     V101    9.997   .     S
V101     Er108    9.997   .     S
V101     Er107    9.997   .     S
V101     V102    9.998   .     S
V102     Er108    9.997   .     S
V102     Er107    9.997   .     S
Ti103     Ti104    9.995   1_565     S
Ti103     V105    9.997   .     S
Ti103     Ti125    9.998   1_565     S
Ti103     Ti126    9.998   1_565     S
Ti104     Ti103    9.995   1_545     S
Ti104     Ti126    9.998   .     S
Ti104     Ti125    9.998   .     S
V105     Er110    9.997   .     S
V105     Er112    9.997   .     S
V105     V106    9.998   .     S
V106     Er110    9.997   .     S
V106     Er112    9.997   .     S
Er107     Er108    10.007   .     S
Er107     Ce190    10.007   .     S
Er109     Er111    10.007   .     S
Er110     Er112    10.007   .     S
Er113     Er114    10.007   .     S
V115     V116    9.998   .     S
V115     Er137    9.997   1_545     S
V115     Er133    9.997   .     S
V115     Ti118    9.997   .     S
V116     Er137    9.997   1_545     S
V116     Er133    9.997   .     S
V116     Ti122    9.997   .     S
Ti117     Ti141    9.998   1_545     S
Ti117     Ti142    9.998   .     S
Ti117     Ti118    9.995   .     S
Ti117     V120    9.997   .     S
Ti118     Ti141    9.998   1_545     S
Ti118     Ti142    9.998   .     S
V119     V120    9.998   .     S
V119     Er138    9.997   1_545     S
V119     Er135    9.997   .     S
V119     Ti126    9.997   .     S
V120     Er138    9.997   1_545     S
V120     Er135    9.997   .     S
Ti121     Ti97    9.998   1_545     S
Ti121     Ti122    9.995   .     S
Ti121     V124    9.997   .     S
Ti122     Ti97    9.998   1_545     S
V123     Er134    9.997   1_545     S
V123     V124    9.998   .     S
V123     Er131    9.997   .     S
V123     Ti128    9.997   .     S
V124     Er134    9.997   1_545     S
V124     Er131    9.997   .     S
Ti125     Ti103    9.998   1_545     S
Ti125     Ti126    9.995   .     S
Ti125     V129    9.997   .     S
Ti126     Ti103    9.998   1_545     S
Ti127     Ti128    9.995   .     S
Ti127     V130    9.997   .     S
Ti127     Ti148    9.998   1_545     S
Ti127     Ti147    9.998   .     S
Ti128     Ti148    9.998   1_545     S
Ti128     Ti147    9.998   .     S
V129     Er136    9.997   1_545     S
V129     Er132    9.997   .     S
V129     V130    9.998   .     S
V130     Er136    9.997   1_545     S
V130     Er132    9.997   .     S
Er131     Er134    10.007   1_545     S
Er132     Er136    10.007   1_545     S
Er133     Er137    10.007   1_545     S
Er134     V123    9.997   1_565     S
Er134     V124    9.997   1_565     S
Er134     Er131    10.007   1_565     S
Er134     Ce187    10.007   .     S
Er135     Er138    10.007   1_545     S
Er136     V129    9.997   1_565     S
Er136     Er132    10.007   1_565     S
Er136     V130    9.997   1_565     S
Er137     V116    9.997   1_565     S
Er137     V115    9.997   1_565     S
Er137     Er133    10.007   1_565     S
Er138     V119    9.997   1_565     S
Er138     V120    9.997   1_565     S
Er138     Er135    10.007   1_565     S
V139     V140    9.998   .     S
V139     Er161    9.997   .     S
V139     Er162    9.997   .     S
V139     Ti151    9.997   .     S
V140     Er161    9.997   .     S
V140     Er162    9.997   .     S
V140     Ti142    9.997   .     S
Ti141     Ti117    9.998   1_565     S
Ti141     Ti118    9.998   1_565     S
Ti141     Ti142    9.995   1_565     S
Ti141     V143    9.997   .     S
Ti142     Ti141    9.995   1_545     S
V143     Er158    9.997   .     S
V143     Er160    9.997   .     S
V143     V144    9.998   .     S
V144     Er158    9.997   .     S
V144     Er160    9.997   .     S
V144     Ti146    9.997   .     S
Ti145     Ti165    9.998   1_655     S
Ti145     Ti166    9.998   1_655     S
Ti145     Ti146    9.995   1_655     S
Ti145     V150    9.997   .     S
Ti146     Ti166    9.998   .     S
Ti146     Ti165    9.998   .     S
Ti146     Ti145    9.995   1_455     S
Ti147     Ti148    9.995   1_545     S
Ti147     V154    9.997   .     S
Ti148     Ti128    9.998   1_565     S
Ti148     Ti127    9.998   1_565     S
Ti148     Ti147    9.995   1_565     S
Ti148     V149    9.997   .     S
V149     Er156    9.997   .     S
V149     Er155    9.997   .     S
V149     V150    9.998   .     S
V150     Er156    9.997   .     S
V150     Er155    9.997   .     S
Ti151     Ti152    9.995   1_455     S
Ti151     Ti175    9.998   .     S
Ti151     Ti176    9.998   .     S
Ti152     Ti151    9.995   1_655     S
Ti152     V153    9.997   .     S
Ti152     Ti176    9.998   1_655     S
Ti152     Ti175    9.998   1_655     S
V153     Er157    9.997   .     S
V153     Er159    9.997   .     S
V153     V154    9.998   .     S
V154     Er157    9.997   .     S
V154     Er159    9.997   .     S
Er155     Er156    10.007   .     S
Er155     Ce192    10.007   .     S
Er157     Er159    10.007   .     S
Er158     Er160    10.007   .     S
Er161     Er162    10.007   .     S
V163     Er183    9.997   1_455     S
V163     V164    9.998   .     S
V163     Er179    9.997   .     S
V163     Ti166    9.997   .     S
V164     Er183    9.997   1_455     S
V164     Er179    9.997   .     S
V164     Ti170    9.997   .     S
Ti165     Ti145    9.998   1_455     S
Ti165     Ti166    9.995   .     S
Ti165     V168    9.997   .     S
Ti166     Ti145    9.998   1_455     S
V167     V168    9.998   .     S
V167     Er184    9.997   1_455     S
V167     Er180    9.997   .     S
V167     Ti174    9.997   .     S
V168     Er184    9.997   1_455     S
V168     Er180    9.997   .     S
Ti169     Ti51    9.998   1_455     S
Ti169     Ti170    9.995   .     S
Ti169     V172    9.997   .     S
Ti170     Ti51    9.998   1_455     S
V171     V172    9.998   .     S
V171     Er185    9.997   1_455     S
V171     Er181    9.997   .     S
V171     Ti176    9.997   .     S
V172     Er185    9.997   1_455     S
V172     Er181    9.997   .     S
Ti173     Ti55    9.998   1_455     S
Ti173     Ti174    9.995   .     S
Ti173     V178    9.997   .     S
Ti174     Ti55    9.998   1_455     S
Ti175     Ti152    9.998   1_455     S
Ti175     Ti176    9.995   .     S
Ti175     V177    9.997   .     S
Ti176     Ti152    9.998   1_455     S
V177     V178    9.998   .     S
V177     Er186    9.997   1_455     S
V177     Er182    9.997   .     S
V178     Er186    9.997   1_455     S
V178     Er182    9.997   .     S
Er179     Er183    10.007   1_455     S
Er180     Er184    10.007   1_455     S
Er181     Er185    10.007   1_455     S
Er182     Er186    10.007   1_455     S
Er183     V163    9.997   1_655     S
Er183     V164    9.997   1_655     S
Er183     Er179    10.007   1_655     S
Er183     Ce188    10.007   .     S
Er184     V168    9.997   1_655     S
Er184     V167    9.997   1_655     S
Er184     Er180    10.007   1_655     S
Er185     V172    9.997   1_655     S
Er185     V171    9.997   1_655     S
Er185     Er181    10.007   1_655     S
Er186     V177    9.997   1_655     S
Er186     V178    9.997   1_655     S
Er186     Er182    10.007   1_655     S
Ce187     Ce188    10.001   .     S
Ce187     Ce189    10.001   .     S
Ce187     Ce190    10.003   .     S
Ce187     Ce192    10.003   .     S
Ce188     Ce189    10.001   .     S
Ce188     Ce192    10.003   .     S
Ce188     Ce191    10.003   .     S
Ce189     Ce190    10.003   .     S
Ce189     Ce191    10.003   .     S
Ce190     Ce191    10.001   .     S
Ce190     Ce192    10.001   .     S
Ce191     Ce192    10.001   .     S
