data_uro
_audit_creation_date              2020-02-04
_audit_creation_method            'Pymatgen'
_symmetry_space_group_name_H-M    'P1'
_symmetry_Int_Tables_number       1
loop_
_symmetry_equiv_pos_as_xyz
  x,y,z
_cell_length_a                    37.7476
_cell_length_b                    37.7476
_cell_length_c                    37.7476
_cell_angle_alpha                 90.0
_cell_angle_beta                 90.0
_cell_angle_gamma                 90.0
loop_
_atom_site_label
_atom_site_type_symbol
_atom_site_fract_x
_atom_site_fract_y
_atom_site_fract_z
V1     V     0.75   0.75   0.75
Ti2     Ti     0.4359   0.9359   0.75
Ti3     Ti     0.5641   0.9359   0.75
Ti4     Ti     0.5641   0.0641   0.75
Ti5     Ti     0.4359   0.0641   0.75
Ti6     Ti     0.4359   0.75   0.0641
Ti7     Ti     0.5641   0.75   0.0641
Ti8     Ti     0.5641   0.75   0.9359
Ti9     Ti     0.4359   0.75   0.9359
V10     V     0.25   0.75   0.75
Ti11     Ti     0.75   0.4359   0.9359
Ti12     Ti     0.75   0.5641   0.9359
Ti13     Ti     0.75   0.5641   0.0641
Ti14     Ti     0.75   0.4359   0.0641
Ti15     Ti     0.0641   0.4359   0.75
Ti16     Ti     0.0641   0.5641   0.75
Ti17     Ti     0.9359   0.5641   0.75
Ti18     Ti     0.9359   0.4359   0.75
V19     V     0.75   0.25   0.75
Ti20     Ti     0.4359   0.25   0.9359
Ti21     Ti     0.5641   0.25   0.9359
Ti22     Ti     0.5641   0.25   0.0641
Ti23     Ti     0.4359   0.25   0.0641
Ti24     Ti     0.25   0.4359   0.0641
Ti25     Ti     0.25   0.5641   0.0641
Ti26     Ti     0.25   0.5641   0.9359
Ti27     Ti     0.25   0.4359   0.9359
V28     V     0.25   0.25   0.75
Ti29     Ti     0.25   0.9359   0.4359
Ti30     Ti     0.25   0.9359   0.5641
Ti31     Ti     0.25   0.0641   0.5641
Ti32     Ti     0.25   0.0641   0.4359
Ti33     Ti     0.4359   0.0641   0.25
Ti34     Ti     0.5641   0.0641   0.25
Ti35     Ti     0.5641   0.9359   0.25
Ti36     Ti     0.4359   0.9359   0.25
V37     V     0.25   0.75   0.25
Ti38     Ti     0.9359   0.75   0.4359
Ti39     Ti     0.9359   0.75   0.5641
Ti40     Ti     0.0641   0.75   0.5641
Ti41     Ti     0.0641   0.75   0.4359
Ti42     Ti     0.75   0.0641   0.4359
Ti43     Ti     0.75   0.0641   0.5641
Ti44     Ti     0.75   0.9359   0.5641
Ti45     Ti     0.75   0.9359   0.4359
V46     V     0.75   0.75   0.25
V47     V     0.25   0.25   0.25
Ti48     Ti     0.9359   0.4359   0.25
Ti49     Ti     0.9359   0.5641   0.25
Ti50     Ti     0.0641   0.5641   0.25
Ti51     Ti     0.0641   0.4359   0.25
Ti52     Ti     0.0641   0.25   0.4359
Ti53     Ti     0.0641   0.25   0.5641
Ti54     Ti     0.9359   0.25   0.5641
Ti55     Ti     0.9359   0.25   0.4359
V56     V     0.75   0.25   0.25
Er57     Er     0.0   0.0   0.5
Er58     Er     0.5   0.0   0.0
Er59     Er     0.0   0.5   0.0
Er60     Er     0.5   0.5   0.0
Er61     Er     0.0   0.5   0.5
Er62     Er     0.5   0.0   0.5
loop_
_geom_bond_atom_site_label_1
_geom_bond_atom_site_label_2
_geom_bond_distance
_geom_bond_site_symmetry_2
_ccdc_geom_bond_type
V1     Ti8    9.923   .     S
V1     Ti12    9.923   .     S
V1     Ti17    9.923   .     S
V1     Ti39    9.923   .     S
V1     Ti44    9.923   .     S
V1     Ti3    9.923   .     S
Ti2     Er58    10.038   1_566     S
Ti2     Er62    10.038   1_565     S
Ti2     V10    9.923   .     S
Ti3     Er58    10.038   1_566     S
Ti3     Er62    10.038   1_565     S
Ti4     Er58    10.038   1_556     S
Ti4     Er62    10.038   .     S
Ti4     V19    9.923   .     S
Ti5     Er58    10.038   1_556     S
Ti5     Er62    10.038   .     S
Ti5     V28    9.923   .     S
Ti6     Er58    10.038   1_565     S
Ti6     Er60    10.038   .     S
Ti6     V37    9.923   .     S
Ti7     Er58    10.038   1_565     S
Ti7     Er60    10.038   .     S
Ti7     V46    9.923   .     S
Ti8     Er58    10.038   1_566     S
Ti8     Er60    10.038   1_556     S
Ti9     Er58    10.038   1_566     S
Ti9     Er60    10.038   1_556     S
Ti9     V10    9.923   .     S
V10     Ti40    9.923   .     S
V10     Ti16    9.923   .     S
V10     Ti26    9.923   .     S
V10     Ti30    9.923   .     S
Ti11     Er59    10.038   1_656     S
Ti11     Er60    10.038   1_556     S
Ti11     V19    9.923   .     S
Ti12     Er59    10.038   1_656     S
Ti12     Er60    10.038   1_556     S
Ti13     Er59    10.038   1_655     S
Ti13     Er60    10.038   .     S
Ti13     V46    9.923   .     S
Ti14     Er59    10.038   1_655     S
Ti14     Er60    10.038   .     S
Ti14     V56    9.923   .     S
Ti15     Er59    10.038   1_556     S
Ti15     Er61    10.038   .     S
Ti15     V28    9.923   .     S
Ti16     Er59    10.038   1_556     S
Ti16     Er61    10.038   .     S
Ti17     Er59    10.038   1_656     S
Ti17     Er61    10.038   1_655     S
Ti18     Er59    10.038   1_656     S
Ti18     Er61    10.038   1_655     S
Ti18     V19    9.923   .     S
V19     Ti43    9.923   .     S
V19     Ti54    9.923   .     S
V19     Ti21    9.923   .     S
Ti20     Er58    10.038   1_556     S
Ti20     Er60    10.038   1_556     S
Ti20     V28    9.923   .     S
Ti21     Er58    10.038   1_556     S
Ti21     Er60    10.038   1_556     S
Ti22     Er58    10.038   .     S
Ti22     Er60    10.038   .     S
Ti22     V56    9.923   .     S
Ti23     Er58    10.038   .     S
Ti23     Er60    10.038   .     S
Ti23     V47    9.923   .     S
Ti24     Er59    10.038   .     S
Ti24     Er60    10.038   .     S
Ti24     V47    9.923   .     S
Ti25     Er59    10.038   .     S
Ti25     Er60    10.038   .     S
Ti25     V37    9.923   .     S
Ti26     Er59    10.038   1_556     S
Ti26     Er60    10.038   1_556     S
Ti27     Er59    10.038   1_556     S
Ti27     Er60    10.038   1_556     S
Ti27     V28    9.923   .     S
V28     Ti53    9.923   .     S
V28     Ti31    9.923   .     S
Ti29     Er57    10.038   1_565     S
Ti29     Er62    10.038   1_565     S
Ti29     V37    9.923   .     S
Ti30     Er57    10.038   1_565     S
Ti30     Er62    10.038   1_565     S
Ti31     Er57    10.038   .     S
Ti31     Er62    10.038   .     S
Ti32     Er57    10.038   .     S
Ti32     Er62    10.038   .     S
Ti32     V47    9.923   .     S
Ti33     Er58    10.038   .     S
Ti33     Er62    10.038   .     S
Ti33     V47    9.923   .     S
Ti34     Er58    10.038   .     S
Ti34     Er62    10.038   .     S
Ti34     V56    9.923   .     S
Ti35     Er58    10.038   1_565     S
Ti35     Er62    10.038   1_565     S
Ti35     V46    9.923   .     S
Ti36     Er58    10.038   1_565     S
Ti36     Er62    10.038   1_565     S
Ti36     V37    9.923   .     S
V37     Ti50    9.923   .     S
V37     Ti41    9.923   .     S
Ti38     Er57    10.038   1_665     S
Ti38     Er61    10.038   1_655     S
Ti38     V46    9.923   .     S
Ti39     Er57    10.038   1_665     S
Ti39     Er61    10.038   1_655     S
Ti40     Er57    10.038   1_565     S
Ti40     Er61    10.038   .     S
Ti41     Er57    10.038   1_565     S
Ti41     Er61    10.038   .     S
Ti42     Er57    10.038   1_655     S
Ti42     Er62    10.038   .     S
Ti42     V56    9.923   .     S
Ti43     Er57    10.038   1_655     S
Ti43     Er62    10.038   .     S
Ti44     Er57    10.038   1_665     S
Ti44     Er62    10.038   1_565     S
Ti45     Er57    10.038   1_665     S
Ti45     Er62    10.038   1_565     S
Ti45     V46    9.923   .     S
V46     Ti49    9.923   .     S
V47     Ti51    9.923   .     S
V47     Ti52    9.923   .     S
Ti48     Er59    10.038   1_655     S
Ti48     Er61    10.038   1_655     S
Ti48     V56    9.923   .     S
Ti49     Er59    10.038   1_655     S
Ti49     Er61    10.038   1_655     S
Ti50     Er59    10.038   .     S
Ti50     Er61    10.038   .     S
Ti51     Er59    10.038   .     S
Ti51     Er61    10.038   .     S
Ti52     Er57    10.038   .     S
Ti52     Er61    10.038   .     S
Ti53     Er57    10.038   .     S
Ti53     Er61    10.038   .     S
Ti54     Er57    10.038   1_655     S
Ti54     Er61    10.038   1_655     S
Ti55     Er57    10.038   1_655     S
Ti55     Er61    10.038   1_655     S
Ti55     V56    9.923   .     S
Er57     Ti29    10.038   1_545     S
Er57     Ti30    10.038   1_545     S
Er57     Ti54    10.038   1_455     S
Er57     Ti55    10.038   1_455     S
Er57     Ti42    10.038   1_455     S
Er57     Ti43    10.038   1_455     S
Er57     Ti44    10.038   1_445     S
Er57     Ti45    10.038   1_445     S
Er57     Ti38    10.038   1_445     S
Er57     Ti39    10.038   1_445     S
Er57     Ti40    10.038   1_545     S
Er57     Ti41    10.038   1_545     S
Er58     Ti20    10.038   1_554     S
Er58     Ti21    10.038   1_554     S
Er58     Ti35    10.038   1_545     S
Er58     Ti36    10.038   1_545     S
Er58     Ti6    10.038   1_545     S
Er58     Ti7    10.038   1_545     S
Er58     Ti8    10.038   1_544     S
Er58     Ti9    10.038   1_544     S
Er58     Ti2    10.038   1_544     S
Er58     Ti3    10.038   1_544     S
Er58     Ti4    10.038   1_554     S
Er58     Ti5    10.038   1_554     S
Er59     Ti26    10.038   1_554     S
Er59     Ti27    10.038   1_554     S
Er59     Ti48    10.038   1_455     S
Er59     Ti49    10.038   1_455     S
Er59     Ti13    10.038   1_455     S
Er59     Ti12    10.038   1_454     S
Er59     Ti11    10.038   1_454     S
Er59     Ti14    10.038   1_455     S
Er59     Ti17    10.038   1_454     S
Er59     Ti16    10.038   1_554     S
Er59     Ti15    10.038   1_554     S
Er59     Ti18    10.038   1_454     S
Er60     Ti20    10.038   1_554     S
Er60     Ti21    10.038   1_554     S
Er60     Ti26    10.038   1_554     S
Er60     Ti27    10.038   1_554     S
Er60     Ti11    10.038   1_554     S
Er60     Ti12    10.038   1_554     S
Er60     Ti8    10.038   1_554     S
Er60     Ti9    10.038   1_554     S
Er61     Ti38    10.038   1_455     S
Er61     Ti39    10.038   1_455     S
Er61     Ti48    10.038   1_455     S
Er61     Ti49    10.038   1_455     S
Er61     Ti17    10.038   1_455     S
Er61     Ti18    10.038   1_455     S
Er61     Ti54    10.038   1_455     S
Er61     Ti55    10.038   1_455     S
Er62     Ti29    10.038   1_545     S
Er62     Ti30    10.038   1_545     S
Er62     Ti35    10.038   1_545     S
Er62     Ti36    10.038   1_545     S
Er62     Ti2    10.038   1_545     S
Er62     Ti3    10.038   1_545     S
Er62     Ti44    10.038   1_545     S
Er62     Ti45    10.038   1_545     S
