data_urra
_audit_creation_date              2020-02-04
_audit_creation_method            'Pymatgen'
_symmetry_space_group_name_H-M    'P1'
_symmetry_Int_Tables_number       1
loop_
_symmetry_equiv_pos_as_xyz
  x,y,z
_cell_length_a                    58.4527
_cell_length_b                    58.4527
_cell_length_c                    58.4527
_cell_angle_alpha                 90.0
_cell_angle_beta                 90.0
_cell_angle_gamma                 90.0
loop_
_atom_site_label
_atom_site_type_symbol
_atom_site_fract_x
_atom_site_fract_y
_atom_site_fract_z
Ti1     Ti     0.5   0.3789   0.0
Ti2     Ti     0.3789   0.5   0.0
Ti3     Ti     0.6211   0.5   0.0
Ti4     Ti     0.5   0.6211   0.0
Ti5     Ti     0.5   0.0   0.3789
Ti6     Ti     0.3789   0.0   0.5
Ti7     Ti     0.6211   0.0   0.5
Ti8     Ti     0.5   0.0   0.6211
Ti9     Ti     0.0   0.5   0.3789
Ti10     Ti     0.0   0.3789   0.5
Ti11     Ti     0.0   0.6211   0.5
Ti12     Ti     0.0   0.5   0.6211
Ce13     Ce     0.8482   0.8482   0.7273
Ce14     Ce     0.7273   0.8482   0.8482
Ce15     Ce     0.8482   0.7273   0.8482
Ce16     Ce     0.8482   0.8482   0.2727
Ce17     Ce     0.7273   0.8482   0.1519
Ce18     Ce     0.8482   0.7273   0.1519
Ce19     Ce     0.8482   0.2727   0.8482
Ce20     Ce     0.8482   0.1519   0.7273
Ce21     Ce     0.7273   0.1519   0.8482
Ce22     Ce     0.2727   0.8482   0.8482
Ce23     Ce     0.1519   0.8482   0.7273
Ce24     Ce     0.1519   0.7273   0.8482
Ce25     Ce     0.2727   0.1519   0.8482
Ce26     Ce     0.1519   0.2727   0.8482
Ce27     Ce     0.1519   0.1519   0.7273
Ce28     Ce     0.2727   0.8482   0.1519
Ce29     Ce     0.1519   0.8482   0.2727
Ce30     Ce     0.1519   0.7273   0.1519
Ce31     Ce     0.8482   0.2727   0.1519
Ce32     Ce     0.8482   0.1519   0.2727
Ce33     Ce     0.7273   0.1519   0.1519
V34     V     0.0855   0.4158   0.9145
V35     V     0.0855   0.4158   0.0855
V36     V     0.9145   0.4158   0.0855
V37     V     0.9145   0.4158   0.9145
V38     V     0.9145   0.5842   0.0855
V39     V     0.0855   0.5842   0.0855
V40     V     0.0855   0.5842   0.9145
V41     V     0.9145   0.5842   0.9145
Er42     Er     0.0   0.5   0.2073
Er43     Er     0.0   0.5   0.7927
Er44     Er     0.2073   0.5   0.0
Er45     Er     0.7927   0.5   0.0
V46     V     0.4158   0.9145   0.0855
V47     V     0.4158   0.0855   0.0855
V48     V     0.4158   0.0855   0.9145
V49     V     0.4158   0.9145   0.9145
V50     V     0.5842   0.0855   0.0855
V51     V     0.5842   0.9145   0.0855
V52     V     0.5842   0.0855   0.9145
V53     V     0.5842   0.9145   0.9145
Er54     Er     0.5   0.0   0.2073
Er55     Er     0.5   0.0   0.7927
Er56     Er     0.5   0.2073   0.0
Er57     Er     0.5   0.7927   0.0
V58     V     0.0855   0.9145   0.4158
V59     V     0.0855   0.0855   0.4158
V60     V     0.9145   0.0855   0.4158
V61     V     0.9145   0.9145   0.4158
V62     V     0.0855   0.9145   0.5842
V63     V     0.0855   0.0855   0.5842
V64     V     0.9145   0.0855   0.5842
V65     V     0.9145   0.9145   0.5842
Er66     Er     0.0   0.2073   0.5
Er67     Er     0.7927   0.0   0.5
Er68     Er     0.0   0.7927   0.5
Er69     Er     0.2073   0.0   0.5
Ce70     Ce     0.1519   0.1519   0.2727
Ce71     Ce     0.1519   0.2727   0.1519
Ce72     Ce     0.2727   0.1519   0.1519
loop_
_geom_bond_atom_site_label_1
_geom_bond_atom_site_label_2
_geom_bond_distance
_geom_bond_site_symmetry_2
_ccdc_geom_bond_type
Ti1     Ti3    10.012   .     S
Ti1     Ti2    10.012   .     S
Ti1     Er56    10.027   .     S
Ti2     Ti4    10.012   .     S
Ti2     Er44    10.027   .     S
Ti3     Ti4    10.012   .     S
Ti3     Er45    10.027   .     S
Ti4     Er57    10.027   .     S
Ti5     Ti7    10.012   .     S
Ti5     Ti6    10.012   .     S
Ti5     Er54    10.027   .     S
Ti6     Ti8    10.012   .     S
Ti6     Er69    10.027   .     S
Ti7     Ti8    10.012   .     S
Ti7     Er67    10.027   .     S
Ti8     Er55    10.027   .     S
Ti9     Ti11    10.012   .     S
Ti9     Ti10    10.012   .     S
Ti9     Er42    10.027   .     S
Ti10     Ti12    10.012   .     S
Ti10     Er66    10.027   .     S
Ti11     Ti12    10.012   .     S
Ti11     Er68    10.027   .     S
Ti12     Er43    10.027   .     S
Ce13     Ce14    9.992   .     S
Ce13     Ce15    9.992   .     S
Ce13     V65    9.999   .     S
Ce14     Ce15    9.992   .     S
Ce14     V53    9.999   .     S
Ce15     V41    9.999   .     S
Ce16     Ce18    9.992   .     S
Ce16     Ce17    9.992   .     S
Ce16     V61    9.999   .     S
Ce17     Ce18    9.992   .     S
Ce17     V51    9.999   .     S
Ce18     V38    9.999   .     S
Ce19     Ce20    9.992   .     S
Ce19     Ce21    9.992   .     S
Ce19     V37    9.999   .     S
Ce20     Ce21    9.992   .     S
Ce20     V64    9.999   .     S
Ce21     V52    9.999   .     S
Ce22     Ce23    9.992   .     S
Ce22     Ce24    9.992   .     S
Ce22     V49    9.999   .     S
Ce23     Ce24    9.992   .     S
Ce23     V62    9.999   .     S
Ce24     V40    9.999   .     S
Ce25     Ce27    9.992   .     S
Ce25     Ce26    9.992   .     S
Ce25     V48    9.999   .     S
Ce26     Ce27    9.992   .     S
Ce26     V34    9.999   .     S
Ce27     V63    9.999   .     S
Ce28     Ce30    9.992   .     S
Ce28     Ce29    9.992   .     S
Ce28     V46    9.999   .     S
Ce29     Ce30    9.992   .     S
Ce29     V58    9.999   .     S
Ce30     V39    9.999   .     S
Ce31     Ce33    9.992   .     S
Ce31     Ce32    9.992   .     S
Ce31     V36    9.999   .     S
Ce32     Ce33    9.992   .     S
Ce32     V60    9.999   .     S
Ce33     V50    9.999   .     S
V34     Er44    9.998   1_556     S
V34     V37    9.993   1_455     S
V34     V35    9.993   1_556     S
V34     Er43    9.998   .     S
V35     Er44    9.998   .     S
V35     Er42    9.998   .     S
V35     V34    9.993   1_554     S
V35     V36    9.993   1_455     S
V35     Ce71    9.999   .     S
V36     Er42    9.998   1_655     S
V36     V35    9.993   1_655     S
V36     V37    9.993   1_554     S
V36     Er45    9.998   .     S
V37     V34    9.993   1_655     S
V37     V36    9.993   1_556     S
V37     Er45    9.998   1_556     S
V37     Er43    9.998   1_655     S
V38     Er42    9.998   1_655     S
V38     Er45    9.998   .     S
V38     V41    9.993   1_554     S
V38     V39    9.993   1_655     S
V39     Er44    9.998   .     S
V39     Er42    9.998   .     S
V39     V40    9.993   1_554     S
V39     V38    9.993   1_455     S
V40     Er44    9.998   1_556     S
V40     Er43    9.998   .     S
V40     V39    9.993   1_556     S
V40     V41    9.993   1_455     S
V41     Er45    9.998   1_556     S
V41     Er43    9.998   1_655     S
V41     V38    9.993   1_556     S
V41     V40    9.993   1_655     S
Er42     V36    9.998   1_455     S
Er42     V38    9.998   1_455     S
Er43     V41    9.998   1_455     S
Er43     V37    9.998   1_455     S
Er44     V40    9.998   1_554     S
Er44     V34    9.998   1_554     S
Er45     V37    9.998   1_554     S
Er45     V41    9.998   1_554     S
V46     Er54    9.998   1_565     S
V46     V49    9.993   1_554     S
V46     V47    9.993   1_565     S
V46     Er57    9.998   .     S
V47     Er56    9.998   .     S
V47     Er54    9.998   .     S
V47     V48    9.993   1_554     S
V47     V46    9.993   1_545     S
V47     Ce72    9.999   .     S
V48     Er56    9.998   1_556     S
V48     V47    9.993   1_556     S
V48     V49    9.993   1_545     S
V48     Er55    9.998   .     S
V49     V46    9.993   1_556     S
V49     V48    9.993   1_565     S
V49     Er57    9.998   1_556     S
V49     Er55    9.998   1_565     S
V50     Er56    9.998   .     S
V50     Er54    9.998   .     S
V50     V52    9.993   1_554     S
V50     V51    9.993   1_545     S
V51     Er54    9.998   1_565     S
V51     Er57    9.998   .     S
V51     V50    9.993   1_565     S
V51     V53    9.993   1_554     S
V52     Er56    9.998   1_556     S
V52     Er55    9.998   .     S
V52     V50    9.993   1_556     S
V52     V53    9.993   1_545     S
V53     Er57    9.998   1_556     S
V53     Er55    9.998   1_565     S
V53     V51    9.993   1_556     S
V53     V52    9.993   1_565     S
Er54     V51    9.998   1_545     S
Er54     V46    9.998   1_545     S
Er55     V49    9.998   1_545     S
Er55     V53    9.998   1_545     S
Er56     V48    9.998   1_554     S
Er56     V52    9.998   1_554     S
Er57     V53    9.998   1_554     S
Er57     V49    9.998   1_554     S
V58     Er69    9.998   1_565     S
V58     V61    9.993   1_455     S
V58     V59    9.993   1_565     S
V58     Er68    9.998   .     S
V59     Er66    9.998   .     S
V59     Er69    9.998   .     S
V59     V58    9.993   1_545     S
V59     V60    9.993   1_455     S
V59     Ce70    9.999   .     S
V60     Er66    9.998   1_655     S
V60     V59    9.993   1_655     S
V60     V61    9.993   1_545     S
V60     Er67    9.998   .     S
V61     V58    9.993   1_655     S
V61     V60    9.993   1_565     S
V61     Er68    9.998   1_655     S
V61     Er67    9.998   1_565     S
V62     Er69    9.998   1_565     S
V62     Er68    9.998   .     S
V62     V65    9.993   1_455     S
V62     V63    9.993   1_565     S
V63     Er66    9.998   .     S
V63     Er69    9.998   .     S
V63     V64    9.993   1_455     S
V63     V62    9.993   1_545     S
V64     Er66    9.998   1_655     S
V64     Er67    9.998   .     S
V64     V63    9.993   1_655     S
V64     V65    9.993   1_545     S
V65     Er68    9.998   1_655     S
V65     Er67    9.998   1_565     S
V65     V62    9.993   1_655     S
V65     V64    9.993   1_565     S
Er66     V64    9.998   1_455     S
Er66     V60    9.998   1_455     S
Er67     V65    9.998   1_545     S
Er67     V61    9.998   1_545     S
Er68     V61    9.998   1_455     S
Er68     V65    9.998   1_455     S
Er69     V58    9.998   1_545     S
Er69     V62    9.998   1_545     S
Ce70     Ce71    9.992   .     S
Ce70     Ce72    9.992   .     S
Ce71     Ce72    9.992   .     S
