data_urua
_audit_creation_date              2020-02-04
_audit_creation_method            'Pymatgen'
_symmetry_space_group_name_H-M    'P1'
_symmetry_Int_Tables_number       1
loop_
_symmetry_equiv_pos_as_xyz
  x,y,z
_cell_length_a                    53.6499
_cell_length_b                    53.6499
_cell_length_c                    53.6499
_cell_angle_alpha                 90.0
_cell_angle_beta                 90.0
_cell_angle_gamma                 90.0
loop_
_atom_site_label
_atom_site_type_symbol
_atom_site_fract_x
_atom_site_fract_y
_atom_site_fract_z
Ce1     Ce     0.8777   0.4068   0.8777
Ti2     Ti     0.9068   0.225   0.9068
Ce3     Ce     0.8777   0.5932   0.8777
Ti4     Ti     0.9068   0.775   0.9068
Er5     Er     0.7636   0.5   0.7636
Ce6     Ce     0.4068   0.8777   0.8777
Ti7     Ti     0.225   0.9068   0.9068
Ce8     Ce     0.5932   0.8777   0.8777
Ti9     Ti     0.775   0.9068   0.9068
Er10     Er     0.5   0.7636   0.7636
Ti11     Ti     0.9068   0.9068   0.225
Ce12     Ce     0.8777   0.8777   0.4068
Ce13     Ce     0.8777   0.8777   0.5932
Ti14     Ti     0.9068   0.9068   0.775
Er15     Er     0.7636   0.7636   0.5
Ti16     Ti     0.225   0.9068   0.0932
Ce17     Ce     0.4068   0.8777   0.1223
Ce18     Ce     0.5932   0.8777   0.1223
Ti19     Ti     0.775   0.9068   0.0932
Er20     Er     0.5   0.7636   0.2364
Ce21     Ce     0.1223   0.8777   0.4068
Ti22     Ti     0.0932   0.9068   0.225
Ce23     Ce     0.1223   0.8777   0.5932
Ti24     Ti     0.0932   0.9068   0.775
Er25     Er     0.2364   0.7636   0.5
Ti26     Ti     0.0932   0.225   0.9068
Ce27     Ce     0.1223   0.4068   0.8777
Ce28     Ce     0.1223   0.5932   0.8777
Ti29     Ti     0.0932   0.775   0.9068
Er30     Er     0.2364   0.5   0.7636
Ce31     Ce     0.4068   0.1223   0.8777
Ti32     Ti     0.225   0.0932   0.9068
Ce33     Ce     0.5932   0.1223   0.8777
Ti34     Ti     0.775   0.0932   0.9068
Er35     Er     0.5   0.2364   0.7636
Ti36     Ti     0.9068   0.225   0.0932
Ce37     Ce     0.8777   0.4068   0.1223
Ce38     Ce     0.8777   0.5932   0.1223
Ti39     Ti     0.9068   0.775   0.0932
Er40     Er     0.7636   0.5   0.2364
Ti41     Ti     0.9068   0.0932   0.225
Ce42     Ce     0.8777   0.1223   0.4068
Ce43     Ce     0.8777   0.1223   0.5932
Ti44     Ti     0.9068   0.0932   0.775
Er45     Er     0.7636   0.2364   0.5
Ce46     Ce     0.4068   0.1223   0.1223
Ti47     Ti     0.225   0.0932   0.0932
Ce48     Ce     0.5932   0.1223   0.1223
Ti49     Ti     0.775   0.0932   0.0932
Er50     Er     0.5   0.2364   0.2364
Ce51     Ce     0.1223   0.4068   0.1223
Ti52     Ti     0.0932   0.225   0.0932
Ce53     Ce     0.1223   0.5932   0.1223
Ti54     Ti     0.0932   0.775   0.0932
Er55     Er     0.2364   0.5   0.2364
Ce56     Ce     0.1223   0.1223   0.4068
Ti57     Ti     0.0932   0.0932   0.225
Ce58     Ce     0.1223   0.1223   0.5932
Ti59     Ti     0.0932   0.0932   0.775
Er60     Er     0.2364   0.2364   0.5
V61     V     0.6318   0.6318   0.5
V62     V     0.3682   0.6318   0.5
V63     V     0.5   0.6318   0.3682
V64     V     0.5   0.6318   0.6318
V65     V     0.5   0.3682   0.6318
V66     V     0.3682   0.5   0.6318
V67     V     0.6318   0.3682   0.5
V68     V     0.6318   0.5   0.3682
V69     V     0.6318   0.5   0.6318
V70     V     0.3682   0.5   0.3682
V71     V     0.5   0.3682   0.3682
V72     V     0.3682   0.3682   0.5
loop_
_geom_bond_atom_site_label_1
_geom_bond_atom_site_label_2
_geom_bond_distance
_geom_bond_site_symmetry_2
_ccdc_geom_bond_type
Ce1     Ti2    10.0   .     S
Ce1     Er5    10.0   .     S
Ce1     Ce3    10.0   .     S
Ti2     Ti34    10.0   .     S
Ti2     Ti44    10.0   .     S
Ti2     Ti36    10.0   1_556     S
Ti2     Ti26    10.0   1_655     S
Ce3     Ti4    10.0   .     S
Ce3     Er5    10.0   .     S
Ti4     Ti14    10.0   .     S
Ti4     Ti9    10.0   .     S
Ti4     Ti39    10.0   1_556     S
Ti4     Ti29    10.0   1_655     S
Er5     V69    10.0   .     S
Ce6     Ti7    10.0   .     S
Ce6     Er10    10.0   .     S
Ce6     Ce8    10.0   .     S
Ti7     Ti24    10.0   .     S
Ti7     Ti29    10.0   .     S
Ti7     Ti16    10.0   1_556     S
Ti7     Ti32    10.0   1_565     S
Ce8     Ti9    10.0   .     S
Ce8     Er10    10.0   .     S
Ti9     Ti14    10.0   .     S
Ti9     Ti19    10.0   1_556     S
Ti9     Ti34    10.0   1_565     S
Er10     V64    10.0   .     S
Ti11     Ce12    10.0   .     S
Ti11     Ti19    10.0   .     S
Ti11     Ti39    10.0   .     S
Ti11     Ti41    10.0   1_565     S
Ti11     Ti22    10.0   1_655     S
Ce12     Er15    10.0   .     S
Ce12     Ce13    10.0   .     S
Ce13     Ti14    10.0   .     S
Ce13     Er15    10.0   .     S
Ti14     Ti44    10.0   1_565     S
Ti14     Ti24    10.0   1_655     S
Er15     V61    10.0   .     S
Ti16     Ce17    10.0   .     S
Ti16     Ti22    10.0   .     S
Ti16     Ti54    10.0   .     S
Ti16     Ti7    10.0   1_554     S
Ti16     Ti47    10.0   1_565     S
Ce17     Er20    10.0   .     S
Ce17     Ce18    10.0   .     S
Ce18     Ti19    10.0   .     S
Ce18     Er20    10.0   .     S
Ti19     Ti39    10.0   .     S
Ti19     Ti9    10.0   1_554     S
Ti19     Ti49    10.0   1_565     S
Er20     V63    10.0   .     S
Ce21     Ti22    10.0   .     S
Ce21     Ce23    10.0   .     S
Ce21     Er25    10.0   .     S
Ti22     Ti54    10.0   .     S
Ti22     Ti57    10.0   1_565     S
Ti22     Ti11    10.0   1_455     S
Ce23     Ti24    10.0   .     S
Ce23     Er25    10.0   .     S
Ti24     Ti29    10.0   .     S
Ti24     Ti59    10.0   1_565     S
Ti24     Ti14    10.0   1_455     S
Er25     V62    10.0   .     S
Ti26     Ce27    10.0   .     S
Ti26     Ti32    10.0   .     S
Ti26     Ti59    10.0   .     S
Ti26     Ti52    10.0   1_556     S
Ti26     Ti2    10.0   1_455     S
Ce27     Er30    10.0   .     S
Ce27     Ce28    10.0   .     S
Ce28     Ti29    10.0   .     S
Ce28     Er30    10.0   .     S
Ti29     Ti54    10.0   1_556     S
Ti29     Ti4    10.0   1_455     S
Er30     V66    10.0   .     S
Ce31     Ti32    10.0   .     S
Ce31     Ce33    10.0   .     S
Ce31     Er35    10.0   .     S
Ti32     Ti59    10.0   .     S
Ti32     Ti47    10.0   1_556     S
Ti32     Ti7    10.0   1_545     S
Ce33     Ti34    10.0   .     S
Ce33     Er35    10.0   .     S
Ti34     Ti44    10.0   .     S
Ti34     Ti49    10.0   1_556     S
Ti34     Ti9    10.0   1_545     S
Er35     V65    10.0   .     S
Ti36     Ce37    10.0   .     S
Ti36     Ti41    10.0   .     S
Ti36     Ti49    10.0   .     S
Ti36     Ti2    10.0   1_554     S
Ti36     Ti52    10.0   1_655     S
Ce37     Er40    10.0   .     S
Ce37     Ce38    10.0   .     S
Ce38     Ti39    10.0   .     S
Ce38     Er40    10.0   .     S
Ti39     Ti4    10.0   1_554     S
Ti39     Ti54    10.0   1_655     S
Er40     V68    10.0   .     S
Ti41     Ce42    10.0   .     S
Ti41     Ti49    10.0   .     S
Ti41     Ti57    10.0   1_655     S
Ti41     Ti11    10.0   1_545     S
Ce42     Er45    10.0   .     S
Ce42     Ce43    10.0   .     S
Ce43     Ti44    10.0   .     S
Ce43     Er45    10.0   .     S
Ti44     Ti59    10.0   1_655     S
Ti44     Ti14    10.0   1_545     S
Er45     V67    10.0   .     S
Ce46     Ti47    10.0   .     S
Ce46     Er50    10.0   .     S
Ce46     Ce48    10.0   .     S
Ti47     Ti57    10.0   .     S
Ti47     Ti52    10.0   .     S
Ti47     Ti32    10.0   1_554     S
Ti47     Ti16    10.0   1_545     S
Ce48     Ti49    10.0   .     S
Ce48     Er50    10.0   .     S
Ti49     Ti34    10.0   1_554     S
Ti49     Ti19    10.0   1_545     S
Er50     V71    10.0   .     S
Ce51     Ti52    10.0   .     S
Ce51     Er55    10.0   .     S
Ce51     Ce53    10.0   .     S
Ti52     Ti57    10.0   .     S
Ti52     Ti26    10.0   1_554     S
Ti52     Ti36    10.0   1_455     S
Ce53     Ti54    10.0   .     S
Ce53     Er55    10.0   .     S
Ti54     Ti29    10.0   1_554     S
Ti54     Ti39    10.0   1_455     S
Er55     V70    10.0   .     S
Ce56     Ti57    10.0   .     S
Ce56     Er60    10.0   .     S
Ce56     Ce58    10.0   .     S
Ti57     Ti22    10.0   1_545     S
Ti57     Ti41    10.0   1_455     S
Ce58     Ti59    10.0   .     S
Ce58     Er60    10.0   .     S
Ti59     Ti24    10.0   1_545     S
Ti59     Ti44    10.0   1_455     S
Er60     V72    10.0   .     S
V61     V68    10.0   .     S
V61     V63    10.0   .     S
V61     V64    10.0   .     S
V61     V69    10.0   .     S
V62     V63    10.0   .     S
V62     V70    10.0   .     S
V62     V64    10.0   .     S
V62     V66    10.0   .     S
V63     V68    10.0   .     S
V63     V70    10.0   .     S
V64     V69    10.0   .     S
V64     V66    10.0   .     S
V65     V72    10.0   .     S
V65     V66    10.0   .     S
V65     V69    10.0   .     S
V65     V67    10.0   .     S
V66     V72    10.0   .     S
V67     V71    10.0   .     S
V67     V68    10.0   .     S
V67     V69    10.0   .     S
V68     V71    10.0   .     S
V70     V72    10.0   .     S
V70     V71    10.0   .     S
V71     V72    10.0   .     S
