data_urv
_audit_creation_date              2020-02-04
_audit_creation_method            'Pymatgen'
_symmetry_space_group_name_H-M    'P1'
_symmetry_Int_Tables_number       1
loop_
_symmetry_equiv_pos_as_xyz
  x,y,z
_cell_length_a                    33.5293
_cell_length_b                    33.5293
_cell_length_c                    33.5293
_cell_angle_alpha                 90.0
_cell_angle_beta                 90.0
_cell_angle_gamma                 90.0
loop_
_atom_site_label
_atom_site_type_symbol
_atom_site_fract_x
_atom_site_fract_y
_atom_site_fract_z
Ti1     Ti     0.3997   0.2377   0.6003
Ti2     Ti     0.6003   0.2377   0.3997
Ti3     Ti     0.2377   0.6003   0.3997
Ti4     Ti     0.2377   0.3997   0.6003
Ti5     Ti     0.3997   0.6003   0.2377
Ti6     Ti     0.6003   0.3997   0.2377
Ti7     Ti     0.6003   0.6003   0.7623
Ti8     Ti     0.7623   0.6003   0.6003
Ti9     Ti     0.6003   0.7623   0.6003
Ti10     Ti     0.6003   0.3997   0.7623
Ti11     Ti     0.3997   0.6003   0.7623
Ti12     Ti     0.6003   0.6003   0.2377
Ti13     Ti     0.3997   0.7623   0.6003
Ti14     Ti     0.6003   0.2377   0.6003
Ti15     Ti     0.6003   0.7623   0.3997
Ti16     Ti     0.7623   0.6003   0.3997
Ti17     Ti     0.7623   0.3997   0.6003
Ti18     Ti     0.2377   0.6003   0.6003
V19     V     0.5   0.5   0.5
Ti20     Ti     0.8997   0.8997   0.7377
Ti21     Ti     0.8997   0.7377   0.8997
Ti22     Ti     0.7377   0.8997   0.8997
Ti23     Ti     0.8997   0.8997   0.2623
Ti24     Ti     0.1003   0.8997   0.7377
Ti25     Ti     0.8997   0.1003   0.7377
Ti26     Ti     0.7377   0.8997   0.1003
Ti27     Ti     0.2623   0.8997   0.8997
Ti28     Ti     0.7377   0.1003   0.8997
Ti29     Ti     0.1003   0.7377   0.8997
Ti30     Ti     0.8997   0.2623   0.8997
Ti31     Ti     0.8997   0.7377   0.1003
Ti32     Ti     0.8997   0.1003   0.2623
Ti33     Ti     0.1003   0.8997   0.2623
Ti34     Ti     0.1003   0.1003   0.7377
Ti35     Ti     0.8997   0.2623   0.1003
Ti36     Ti     0.1003   0.7377   0.1003
Ti37     Ti     0.1003   0.2623   0.8997
Ti38     Ti     0.2623   0.1003   0.8997
Ti39     Ti     0.2623   0.8997   0.1003
Ti40     Ti     0.7377   0.1003   0.1003
V41     V     0.0   0.0   0.0
Er42     Er     0.25   0.5   0.0
Er43     Er     0.5   0.25   0.0
Ti44     Ti     0.1003   0.1003   0.2623
Er45     Er     0.25   0.0   0.5
Er46     Er     0.0   0.25   0.5
Er47     Er     0.0   0.5   0.25
Ti48     Ti     0.1003   0.2623   0.1003
Er49     Er     0.5   0.0   0.25
Ti50     Ti     0.2623   0.1003   0.1003
Er51     Er     0.75   0.0   0.5
Er52     Er     0.0   0.75   0.5
Ti53     Ti     0.3997   0.3997   0.7623
Er54     Er     0.5   0.75   0.0
Er55     Er     0.75   0.5   0.0
Er56     Er     0.0   0.5   0.75
Er57     Er     0.5   0.0   0.75
Ti58     Ti     0.3997   0.3997   0.2377
Ti59     Ti     0.7623   0.3997   0.3997
Ti60     Ti     0.3997   0.2377   0.3997
Ti61     Ti     0.3997   0.7623   0.3997
Ti62     Ti     0.2377   0.3997   0.3997
loop_
_geom_bond_atom_site_label_1
_geom_bond_atom_site_label_2
_geom_bond_distance
_geom_bond_site_symmetry_2
_ccdc_geom_bond_type
Ti1     Er57    10.0   .     S
Ti1     Er45    10.0   .     S
Ti1     V19    10.0   .     S
Ti2     Er49    10.0   .     S
Ti2     Er51    10.0   .     S
Ti2     V19    10.0   .     S
Ti3     Er47    10.0   .     S
Ti3     Er52    10.0   .     S
Ti3     V19    10.0   .     S
Ti4     Er56    10.0   .     S
Ti4     Er46    10.0   .     S
Ti4     V19    10.0   .     S
Ti5     Er54    10.0   .     S
Ti5     Er42    10.0   .     S
Ti5     V19    10.0   .     S
Ti6     Er55    10.0   .     S
Ti6     Er43    10.0   .     S
Ti6     V19    10.0   .     S
Ti7     Er55    10.0   1_556     S
Ti7     Er54    10.0   1_556     S
Ti7     V19    10.0   .     S
Ti8     Er56    10.0   1_655     S
Ti8     Er52    10.0   1_655     S
Ti8     V19    10.0   .     S
Ti9     Er57    10.0   1_565     S
Ti9     Er51    10.0   1_565     S
Ti9     V19    10.0   .     S
Ti10     Er55    10.0   1_556     S
Ti10     V19    10.0   .     S
Ti10     Er43    10.0   1_556     S
Ti11     Er54    10.0   1_556     S
Ti11     Er42    10.0   1_556     S
Ti11     V19    10.0   .     S
Ti12     Er54    10.0   .     S
Ti12     Er55    10.0   .     S
Ti12     V19    10.0   .     S
Ti13     Er57    10.0   1_565     S
Ti13     Er45    10.0   1_565     S
Ti13     V19    10.0   .     S
Ti14     Er57    10.0   .     S
Ti14     Er51    10.0   .     S
Ti14     V19    10.0   .     S
Ti15     Er51    10.0   1_565     S
Ti15     Er49    10.0   1_565     S
Ti15     V19    10.0   .     S
Ti16     Er52    10.0   1_655     S
Ti16     Er47    10.0   1_655     S
Ti16     V19    10.0   .     S
Ti17     Er56    10.0   1_655     S
Ti17     Er46    10.0   1_655     S
Ti17     V19    10.0   .     S
Ti18     Er56    10.0   .     S
Ti18     Er52    10.0   .     S
Ti18     V19    10.0   .     S
V19     Ti60    10.0   .     S
V19     Ti62    10.0   .     S
V19     Ti61    10.0   .     S
V19     Ti58    10.0   .     S
V19     Ti53    10.0   .     S
V19     Ti59    10.0   .     S
Ti20     Er52    10.0   1_655     S
Ti20     Er51    10.0   1_565     S
Ti20     V41    10.0   1_666     S
Ti21     Er56    10.0   1_655     S
Ti21     Er55    10.0   1_556     S
Ti21     V41    10.0   1_666     S
Ti22     Er57    10.0   1_565     S
Ti22     Er54    10.0   1_556     S
Ti22     V41    10.0   1_666     S
Ti23     Er51    10.0   1_565     S
Ti23     Er52    10.0   1_655     S
Ti23     V41    10.0   1_665     S
Ti24     Er52    10.0   .     S
Ti24     Er45    10.0   1_565     S
Ti24     V41    10.0   1_566     S
Ti25     Er51    10.0   .     S
Ti25     Er46    10.0   1_655     S
Ti25     V41    10.0   1_656     S
Ti26     Er49    10.0   1_565     S
Ti26     Er54    10.0   .     S
Ti26     V41    10.0   1_665     S
Ti27     Er57    10.0   1_565     S
Ti27     Er54    10.0   1_556     S
Ti27     V41    10.0   1_566     S
Ti28     Er57    10.0   .     S
Ti28     Er43    10.0   1_556     S
Ti28     V41    10.0   1_656     S
Ti29     Er56    10.0   .     S
Ti29     Er42    10.0   1_556     S
Ti29     V41    10.0   1_566     S
Ti30     Er56    10.0   1_655     S
Ti30     Er55    10.0   1_556     S
Ti30     V41    10.0   1_656     S
Ti31     Er47    10.0   1_655     S
Ti31     Er55    10.0   .     S
Ti31     V41    10.0   1_665     S
Ti32     Er51    10.0   .     S
Ti32     Er46    10.0   1_655     S
Ti32     V41    10.0   1_655     S
Ti33     Er45    10.0   1_565     S
Ti33     Er52    10.0   .     S
Ti33     V41    10.0   1_565     S
Ti34     Er46    10.0   .     S
Ti34     Er45    10.0   .     S
Ti34     V41    10.0   1_556     S
Ti35     Er47    10.0   1_655     S
Ti35     Er55    10.0   .     S
Ti35     V41    10.0   1_655     S
Ti36     Er47    10.0   .     S
Ti36     Er42    10.0   .     S
Ti36     V41    10.0   1_565     S
Ti37     Er56    10.0   .     S
Ti37     Er42    10.0   1_556     S
Ti37     V41    10.0   1_556     S
Ti38     Er57    10.0   .     S
Ti38     Er43    10.0   1_556     S
Ti38     V41    10.0   1_556     S
Ti39     Er49    10.0   1_565     S
Ti39     Er54    10.0   .     S
Ti39     V41    10.0   1_565     S
Ti40     Er49    10.0   .     S
Ti40     Er43    10.0   .     S
Ti40     V41    10.0   1_655     S
V41     Ti36    10.0   1_545     S
V41     Ti29    10.0   1_544     S
V41     Ti21    10.0   1_444     S
V41     Ti31    10.0   1_445     S
V41     Ti26    10.0   1_445     S
V41     Ti22    10.0   1_444     S
V41     Ti28    10.0   1_454     S
V41     Ti40    10.0   1_455     S
V41     Ti24    10.0   1_544     S
V41     Ti34    10.0   1_554     S
V41     Ti25    10.0   1_454     S
V41     Ti20    10.0   1_444     S
V41     Ti35    10.0   1_455     S
V41     Ti48    10.0   .     S
V41     Ti37    10.0   1_554     S
V41     Ti30    10.0   1_454     S
V41     Ti44    10.0   .     S
V41     Ti32    10.0   1_455     S
V41     Ti23    10.0   1_445     S
V41     Ti33    10.0   1_545     S
V41     Ti50    10.0   .     S
V41     Ti38    10.0   1_554     S
V41     Ti27    10.0   1_544     S
V41     Ti39    10.0   1_545     S
Er42     Ti58    10.0   .     S
Er42     Ti11    10.0   1_554     S
Er42     Ti53    10.0   1_554     S
Er42     Ti48    10.0   .     S
Er42     Ti37    10.0   1_554     S
Er42     Ti29    10.0   1_554     S
Er43     Ti58    10.0   .     S
Er43     Ti53    10.0   1_554     S
Er43     Ti10    10.0   1_554     S
Er43     Ti28    10.0   1_554     S
Er43     Ti38    10.0   1_554     S
Er43     Ti50    10.0   .     S
Ti44     Er46    10.0   .     S
Ti44     Er45    10.0   .     S
Er45     Ti60    10.0   .     S
Er45     Ti61    10.0   1_545     S
Er45     Ti13    10.0   1_545     S
Er45     Ti24    10.0   1_545     S
Er45     Ti33    10.0   1_545     S
Er46     Ti62    10.0   .     S
Er46     Ti17    10.0   1_455     S
Er46     Ti59    10.0   1_455     S
Er46     Ti32    10.0   1_455     S
Er46     Ti25    10.0   1_455     S
Er47     Ti62    10.0   .     S
Er47     Ti59    10.0   1_455     S
Er47     Ti16    10.0   1_455     S
Er47     Ti31    10.0   1_455     S
Er47     Ti35    10.0   1_455     S
Er47     Ti48    10.0   .     S
Er49     Ti60    10.0   .     S
Er49     Ti15    10.0   1_545     S
Er49     Ti61    10.0   1_545     S
Er49     Ti50    10.0   .     S
Er49     Ti39    10.0   1_545     S
Er49     Ti26    10.0   1_545     S
Er51     Ti9    10.0   1_545     S
Er51     Ti15    10.0   1_545     S
Er51     Ti23    10.0   1_545     S
Er51     Ti20    10.0   1_545     S
Er52     Ti16    10.0   1_455     S
Er52     Ti8    10.0   1_455     S
Er52     Ti20    10.0   1_455     S
Er52     Ti23    10.0   1_455     S
Ti53     Er42    10.0   1_556     S
Ti53     Er43    10.0   1_556     S
Er54     Ti7    10.0   1_554     S
Er54     Ti11    10.0   1_554     S
Er54     Ti27    10.0   1_554     S
Er54     Ti22    10.0   1_554     S
Er55     Ti10    10.0   1_554     S
Er55     Ti7    10.0   1_554     S
Er55     Ti21    10.0   1_554     S
Er55     Ti30    10.0   1_554     S
Er56     Ti8    10.0   1_455     S
Er56     Ti17    10.0   1_455     S
Er56     Ti21    10.0   1_455     S
Er56     Ti30    10.0   1_455     S
Er57     Ti13    10.0   1_545     S
Er57     Ti9    10.0   1_545     S
Er57     Ti22    10.0   1_545     S
Er57     Ti27    10.0   1_545     S
Ti59     Er47    10.0   1_655     S
Ti59     Er46    10.0   1_655     S
Ti61     Er49    10.0   1_565     S
Ti61     Er45    10.0   1_565     S
