data_utn
_audit_creation_date              2020-02-04
_audit_creation_method            'Pymatgen'
_symmetry_space_group_name_H-M    'P1'
_symmetry_Int_Tables_number       1
loop_
_symmetry_equiv_pos_as_xyz
  x,y,z
_cell_length_a                    50.8128
_cell_length_b                    50.8128
_cell_length_c                    18.9728
_cell_angle_alpha                 90.0
_cell_angle_beta                 90.0
_cell_angle_gamma                 90.0
loop_
_atom_site_label
_atom_site_type_symbol
_atom_site_fract_x
_atom_site_fract_y
_atom_site_fract_z
V1     V     0.7945   0.8376   0.735
V2     V     0.7055   0.6624   0.765
V3     V     0.7055   0.8376   0.265
V4     V     0.7945   0.6624   0.235
V5     V     0.4124   0.4555   0.515
V6     V     0.5876   0.5445   0.485
V7     V     0.5876   0.4555   0.015
V8     V     0.4124   0.5445   0.985
V9     V     0.7945   0.3376   0.265
V10     V     0.7055   0.1624   0.235
V11     V     0.7945   0.1624   0.765
V12     V     0.7055   0.3376   0.735
V13     V     0.4124   0.0445   0.015
V14     V     0.5876   0.9555   0.985
V15     V     0.5876   0.0445   0.515
V16     V     0.4124   0.9555   0.485
V17     V     0.2055   0.8376   0.235
V18     V     0.2945   0.6624   0.265
V19     V     0.2945   0.8376   0.765
V20     V     0.2055   0.6624   0.735
V21     V     0.0876   0.0445   0.985
V22     V     0.9124   0.9555   0.015
V23     V     0.9124   0.0445   0.485
V24     V     0.0876   0.9555   0.515
V25     V     0.2945   0.3376   0.235
V26     V     0.2055   0.1624   0.265
V27     V     0.2945   0.1624   0.735
V28     V     0.2055   0.3376   0.765
V29     V     0.0876   0.5445   0.015
V30     V     0.9124   0.4555   0.985
V31     V     0.0876   0.4555   0.485
V32     V     0.9124   0.5445   0.515
loop_
_geom_bond_atom_site_label_1
_geom_bond_atom_site_label_2
_geom_bond_distance
_geom_bond_site_symmetry_2
_ccdc_geom_bond_type
V1     V2    10.0   .     S
V1     V3    10.0   .     S
V1     V22    10.0   1_556     S
V2     V4    10.0   1_556     S
V2     V6    10.0   .     S
V3     V4    10.0   .     S
V3     V14    10.0   1_554     S
V4     V2    10.0   1_554     S
V4     V32    10.0   .     S
V5     V6    10.0   .     S
V5     V8    10.0   .     S
V5     V25    10.0   .     S
V6     V7    10.0   .     S
V7     V8    10.0   1_554     S
V7     V12    10.0   1_554     S
V8     V7    10.0   1_556     S
V8     V18    10.0   1_556     S
V9     V10    10.0   .     S
V9     V12    10.0   .     S
V9     V30    10.0   1_554     S
V10     V11    10.0   1_554     S
V10     V15    10.0   .     S
V11     V12    10.0   .     S
V11     V10    10.0   1_556     S
V11     V23    10.0   .     S
V12     V7    10.0   1_556     S
V13     V14    10.0   1_544     S
V13     V16    10.0   1_545     S
V13     V27    10.0   1_554     S
V14     V3    10.0   1_556     S
V14     V13    10.0   1_566     S
V14     V15    10.0   1_565     S
V15     V16    10.0   1_545     S
V15     V14    10.0   1_545     S
V16     V13    10.0   1_565     S
V16     V15    10.0   1_565     S
V16     V19    10.0   .     S
V17     V18    10.0   .     S
V17     V19    10.0   1_554     S
V17     V24    10.0   .     S
V18     V8    10.0   1_554     S
V18     V20    10.0   .     S
V19     V20    10.0   .     S
V19     V17    10.0   1_556     S
V20     V29    10.0   1_556     S
V21     V22    10.0   1_446     S
V21     V24    10.0   1_545     S
V21     V26    10.0   1_556     S
V22     V1    10.0   1_554     S
V22     V21    10.0   1_664     S
V22     V23    10.0   1_565     S
V23     V24    10.0   1_645     S
V23     V22    10.0   1_545     S
V24     V23    10.0   1_465     S
V24     V21    10.0   1_565     S
V25     V26    10.0   .     S
V25     V28    10.0   1_554     S
V26     V27    10.0   .     S
V26     V21    10.0   1_554     S
V27     V28    10.0   .     S
V27     V13    10.0   1_556     S
V28     V25    10.0   1_556     S
V28     V31    10.0   .     S
V29     V30    10.0   1_454     S
V29     V31    10.0   .     S
V29     V20    10.0   1_554     S
V30     V29    10.0   1_656     S
V30     V32    10.0   .     S
V30     V9    10.0   1_556     S
V31     V32    10.0   1_455     S
V32     V31    10.0   1_655     S
