data_utq
_audit_creation_date              2020-02-04
_audit_creation_method            'Pymatgen'
_symmetry_space_group_name_H-M    'P1'
_symmetry_Int_Tables_number       1
loop_
_symmetry_equiv_pos_as_xyz
  x,y,z
_cell_length_a                    52.3531
_cell_length_b                    17.3231
_cell_length_c                    60.9812
_cell_angle_alpha                 90.0
_cell_angle_beta                 90.0
_cell_angle_gamma                 90.0
loop_
_atom_site_label
_atom_site_type_symbol
_atom_site_fract_x
_atom_site_fract_y
_atom_site_fract_z
V1     V     0.5589   0.4166   0.2939
V2     V     0.4411   0.0834   0.2061
V3     V     0.3089   0.6666   0.2061
V4     V     0.1911   0.3334   0.2939
V5     V     0.0589   0.9166   0.2939
V6     V     0.9411   0.5834   0.2061
V7     V     0.8089   0.1666   0.2061
V8     V     0.6911   0.8334   0.2939
V9     V     0.0589   0.8334   0.4561
V10     V     0.9411   0.1666   0.5439
V11     V     0.8089   0.5834   0.5439
V12     V     0.6911   0.9166   0.4561
V13     V     0.5589   0.3334   0.4561
V14     V     0.4411   0.6666   0.5439
V15     V     0.3089   0.0834   0.5439
V16     V     0.1911   0.4166   0.4561
V17     V     0.1911   0.8334   0.7939
V18     V     0.3089   0.1666   0.7061
V19     V     0.5589   0.9166   0.7939
V20     V     0.4411   0.5834   0.7061
V21     V     0.9411   0.0834   0.7061
V22     V     0.0589   0.4166   0.7939
V23     V     0.8089   0.6666   0.7061
V24     V     0.6911   0.3334   0.7939
V25     V     0.5589   0.8334   0.9561
V26     V     0.4411   0.1666   0.0439
V27     V     0.3089   0.5834   0.0439
V28     V     0.1911   0.9166   0.9561
V29     V     0.9411   0.6666   0.0439
V30     V     0.0589   0.3334   0.9561
V31     V     0.8089   0.0834   0.0439
V32     V     0.6911   0.4166   0.9561
loop_
_geom_bond_atom_site_label_1
_geom_bond_atom_site_label_2
_geom_bond_distance
_geom_bond_site_symmetry_2
_ccdc_geom_bond_type
V1     V2    10.0   .     S
V1     V8    10.0   .     S
V1     V13    10.0   .     S
V2     V3    10.0   1_545     S
V2     V26    10.0   .     S
V3     V2    10.0   1_565     S
V3     V4    10.0   .     S
V3     V27    10.0   .     S
V4     V5    10.0   1_545     S
V4     V16    10.0   .     S
V5     V6    10.0   1_455     S
V5     V4    10.0   1_565     S
V5     V9    10.0   .     S
V6     V5    10.0   1_655     S
V6     V7    10.0   .     S
V6     V29    10.0   .     S
V7     V8    10.0   1_545     S
V7     V31    10.0   .     S
V8     V7    10.0   1_565     S
V8     V12    10.0   .     S
V9     V10    10.0   1_465     S
V9     V16    10.0   .     S
V10     V9    10.0   1_645     S
V10     V11    10.0   .     S
V10     V21    10.0   .     S
V11     V12    10.0   .     S
V11     V23    10.0   .     S
V12     V13    10.0   1_565     S
V13     V12    10.0   1_545     S
V13     V14    10.0   .     S
V14     V15    10.0   1_565     S
V14     V20    10.0   .     S
V15     V14    10.0   1_545     S
V15     V16    10.0   .     S
V15     V18    10.0   .     S
V17     V18    10.0   1_565     S
V17     V22    10.0   .     S
V17     V28    10.0   .     S
V18     V17    10.0   1_545     S
V18     V20    10.0   .     S
V19     V20    10.0   .     S
V19     V24    10.0   1_565     S
V19     V25    10.0   .     S
V21     V22    10.0   1_655     S
V21     V23    10.0   1_545     S
V22     V21    10.0   1_455     S
V22     V30    10.0   .     S
V23     V21    10.0   1_565     S
V23     V24    10.0   .     S
V24     V19    10.0   1_545     S
V24     V32    10.0   .     S
V25     V26    10.0   1_566     S
V25     V32    10.0   .     S
V26     V25    10.0   1_544     S
V26     V27    10.0   .     S
V27     V28    10.0   1_554     S
V28     V27    10.0   1_556     S
V28     V30    10.0   1_565     S
V29     V30    10.0   1_654     S
V29     V31    10.0   1_565     S
V30     V28    10.0   1_545     S
V30     V29    10.0   1_456     S
V31     V32    10.0   1_554     S
V31     V29    10.0   1_545     S
V32     V31    10.0   1_556     S
