data_vbb
_audit_creation_date              2020-02-04
_audit_creation_method            'Pymatgen'
_symmetry_space_group_name_H-M    'P1'
_symmetry_Int_Tables_number       1
loop_
_symmetry_equiv_pos_as_xyz
  x,y,z
_cell_length_a                    30.0904
_cell_length_b                    25.9336
_cell_length_c                    72.8777
_cell_angle_alpha                 90.0
_cell_angle_beta                 90.0
_cell_angle_gamma                 90.0
loop_
_atom_site_label
_atom_site_type_symbol
_atom_site_fract_x
_atom_site_fract_y
_atom_site_fract_z
V1     V     0.7627   0.0171   0.1819
V2     V     0.7373   0.9829   0.3181
V3     V     0.9873   0.7329   0.1819
V4     V     0.0127   0.7671   0.3181
V5     V     0.4873   0.2329   0.1819
V6     V     0.5127   0.2671   0.3181
V7     V     0.2627   0.5171   0.1819
V8     V     0.2373   0.4829   0.3181
V9     V     0.2373   0.9829   0.8181
V10     V     0.2627   0.0171   0.6819
V11     V     0.5127   0.7671   0.8181
V12     V     0.4873   0.7329   0.6819
V13     V     0.7627   0.5171   0.6819
V14     V     0.7373   0.4829   0.8181
V15     V     0.9873   0.2329   0.6819
V16     V     0.0127   0.2671   0.8181
V17     V     0.7627   0.7329   0.5681
V18     V     0.7373   0.7671   0.4319
V19     V     0.0127   0.9829   0.4319
V20     V     0.9873   0.0171   0.5681
V21     V     0.2373   0.2671   0.4319
V22     V     0.2627   0.2329   0.5681
V23     V     0.4873   0.5171   0.5681
V24     V     0.5127   0.4829   0.4319
V25     V     0.2373   0.7671   0.9319
V26     V     0.2627   0.7329   0.0681
V27     V     0.7373   0.2671   0.9319
V28     V     0.7627   0.2329   0.0681
V29     V     0.5127   0.9829   0.9319
V30     V     0.4873   0.0171   0.0681
V31     V     0.0127   0.4829   0.9319
V32     V     0.9873   0.5171   0.0681
loop_
_geom_bond_atom_site_label_1
_geom_bond_atom_site_label_2
_geom_bond_distance
_geom_bond_site_symmetry_2
_ccdc_geom_bond_type
V1     V2    9.999   1_545     S
V1     V3    10.0   1_545     S
V1     V5    10.0   .     S
V1     V28    10.001   .     S
V2     V1    9.999   1_565     S
V2     V6    10.0   1_565     S
V2     V4    10.0   1_655     S
V2     V18    10.001   .     S
V3     V4    9.999   1_655     S
V3     V1    10.0   1_565     S
V3     V7    10.0   1_655     S
V3     V32    10.001   .     S
V4     V3    9.999   1_455     S
V4     V8    10.0   .     S
V4     V2    10.0   1_455     S
V4     V19    10.001   .     S
V5     V6    9.999   .     S
V5     V7    10.0   .     S
V5     V30    10.001   .     S
V6     V2    10.0   1_545     S
V6     V8    10.0   .     S
V6     V24    10.001   .     S
V7     V8    9.999   .     S
V7     V3    10.0   1_455     S
V7     V26    10.001   .     S
V8     V21    10.001   .     S
V9     V10    9.999   1_565     S
V9     V16    10.0   1_565     S
V9     V11    10.0   .     S
V9     V25    10.001   .     S
V10     V9    9.999   1_545     S
V10     V12    10.0   1_545     S
V10     V15    10.0   1_455     S
V10     V22    10.001   .     S
V11     V12    9.999   .     S
V11     V14    10.0   .     S
V11     V29    10.001   .     S
V12     V10    10.0   1_565     S
V12     V13    10.0   .     S
V12     V23    10.001   .     S
V13     V14    9.999   .     S
V13     V15    10.0   .     S
V13     V17    10.001   .     S
V14     V16    10.0   1_655     S
V14     V27    10.001   .     S
V15     V16    9.999   1_655     S
V15     V10    10.0   1_655     S
V15     V20    10.001   .     S
V16     V15    9.999   1_455     S
V16     V9    10.0   1_545     S
V16     V14    10.0   1_455     S
V16     V31    10.001   .     S
V17     V18    9.999   .     S
V17     V20    10.0   1_565     S
V17     V23    10.0   .     S
V18     V24    10.0   .     S
V18     V19    10.0   1_655     S
V19     V20    9.999   1_465     S
V19     V21    10.0   1_565     S
V19     V18    10.0   1_455     S
V20     V19    9.999   1_645     S
V20     V17    10.0   1_545     S
V20     V22    10.0   1_655     S
V21     V22    9.999   .     S
V21     V19    10.0   1_545     S
V21     V24    10.0   .     S
V22     V23    10.0   .     S
V22     V20    10.0   1_455     S
V23     V24    9.999   .     S
V25     V26    9.999   1_556     S
V25     V31    10.0   .     S
V25     V29    10.0   .     S
V26     V25    9.999   1_554     S
V26     V30    10.0   1_565     S
V26     V32    10.0   1_455     S
V27     V28    9.999   1_556     S
V27     V29    10.0   1_545     S
V27     V31    10.0   1_655     S
V28     V27    9.999   1_554     S
V28     V32    10.0   .     S
V28     V30    10.0   .     S
V29     V30    9.999   1_566     S
V29     V27    10.0   1_565     S
V30     V26    10.0   1_545     S
V30     V29    9.999   1_544     S
V31     V32    9.999   1_456     S
V31     V27    10.0   1_455     S
V32     V31    9.999   1_654     S
V32     V26    10.0   1_655     S
