data_vbg
_audit_creation_date              2020-02-04
_audit_creation_method            'Pymatgen'
_symmetry_space_group_name_H-M    'P1'
_symmetry_Int_Tables_number       1
loop_
_symmetry_equiv_pos_as_xyz
  x,y,z
_cell_length_a                    54.1844
_cell_length_b                    28.9826
_cell_length_c                    23.1943
_cell_angle_alpha                 90.0
_cell_angle_beta                 90.0
_cell_angle_gamma                 90.0
loop_
_atom_site_label
_atom_site_type_symbol
_atom_site_fract_x
_atom_site_fract_y
_atom_site_fract_z
V1     V     0.7156   0.6575   0.8367
V2     V     0.5344   0.5925   0.8367
V3     V     0.4656   0.4075   0.1633
V4     V     0.2844   0.3425   0.1633
V5     V     0.0344   0.0925   0.8367
V6     V     0.2156   0.1575   0.8367
V7     V     0.9656   0.9075   0.1633
V8     V     0.7844   0.8425   0.1633
V9     V     0.7156   0.5925   0.4133
V10     V     0.5344   0.6575   0.4133
V11     V     0.2844   0.9075   0.0867
V12     V     0.4656   0.8425   0.0867
V13     V     0.9656   0.3425   0.0867
V14     V     0.7844   0.4075   0.0867
V15     V     0.0344   0.1575   0.4133
V16     V     0.2156   0.0925   0.4133
V17     V     0.7156   0.0925   0.9133
V18     V     0.5344   0.1575   0.9133
V19     V     0.2844   0.4075   0.5867
V20     V     0.4656   0.3425   0.5867
V21     V     0.9656   0.8425   0.5867
V22     V     0.7844   0.9075   0.5867
V23     V     0.0344   0.6575   0.9133
V24     V     0.2156   0.5925   0.9133
V25     V     0.4656   0.9075   0.6633
V26     V     0.2844   0.8425   0.6633
V27     V     0.7156   0.1575   0.3367
V28     V     0.5344   0.0925   0.3367
V29     V     0.9656   0.4075   0.6633
V30     V     0.7844   0.3425   0.6633
V31     V     0.0344   0.5925   0.3367
V32     V     0.2156   0.6575   0.3367
loop_
_geom_bond_atom_site_label_1
_geom_bond_atom_site_label_2
_geom_bond_distance
_geom_bond_site_symmetry_2
_ccdc_geom_bond_type
V1     V2    10.0   .     S
V1     V8    10.0   1_556     S
V1     V9    10.0   .     S
V1     V14    10.0   1_556     S
V1     V22    10.0   .     S
V2     V3    10.0   1_556     S
V2     V10    10.0   .     S
V2     V12    10.0   1_556     S
V2     V20    10.0   .     S
V3     V2    10.0   1_554     S
V3     V4    10.0   .     S
V3     V20    10.0   .     S
V3     V18    10.0   1_554     S
V3     V10    10.0   .     S
V4     V6    10.0   1_554     S
V4     V19    10.0   .     S
V4     V24    10.0   1_554     S
V4     V16    10.0   .     S
V5     V6    10.0   .     S
V5     V7    10.0   1_446     S
V5     V15    10.0   .     S
V5     V13    10.0   1_456     S
V5     V21    10.0   1_445     S
V6     V4    10.0   1_556     S
V6     V16    10.0   .     S
V6     V11    10.0   1_546     S
V6     V19    10.0   .     S
V7     V8    10.0   .     S
V7     V5    10.0   1_664     S
V7     V21    10.0   .     S
V7     V15    10.0   1_665     S
V7     V23    10.0   1_654     S
V8     V1    10.0   1_554     S
V8     V22    10.0   .     S
V8     V17    10.0   1_564     S
V8     V9    10.0   .     S
V9     V10    10.0   .     S
V9     V14    10.0   .     S
V9     V30    10.0   .     S
V10     V12    10.0   .     S
V10     V25    10.0   .     S
V11     V12    10.0   .     S
V11     V16    10.0   1_565     S
V11     V26    10.0   1_554     S
V11     V6    10.0   1_564     S
V11     V32    10.0   .     S
V12     V25    10.0   1_554     S
V12     V2    10.0   1_554     S
V12     V28    10.0   1_565     S
V13     V14    10.0   .     S
V13     V15    10.0   1_655     S
V13     V29    10.0   1_554     S
V13     V5    10.0   1_654     S
V13     V31    10.0   1_655     S
V14     V30    10.0   1_554     S
V14     V1    10.0   1_554     S
V14     V27    10.0   .     S
V15     V16    10.0   .     S
V15     V13    10.0   1_455     S
V15     V7    10.0   1_445     S
V15     V29    10.0   1_455     S
V16     V11    10.0   1_545     S
V16     V26    10.0   1_545     S
V17     V18    10.0   .     S
V17     V22    10.0   1_545     S
V17     V27    10.0   1_556     S
V17     V8    10.0   1_546     S
V17     V30    10.0   .     S
V18     V20    10.0   .     S
V18     V28    10.0   1_556     S
V18     V3    10.0   1_556     S
V18     V25    10.0   1_545     S
V19     V20    10.0   .     S
V19     V24    10.0   .     S
V19     V32    10.0   .     S
V20     V28    10.0   .     S
V21     V22    10.0   .     S
V21     V23    10.0   1_655     S
V21     V5    10.0   1_665     S
V21     V31    10.0   1_655     S
V22     V17    10.0   1_565     S
V22     V27    10.0   1_565     S
V23     V24    10.0   .     S
V23     V21    10.0   1_455     S
V23     V31    10.0   1_556     S
V23     V7    10.0   1_456     S
V23     V29    10.0   1_455     S
V24     V32    10.0   1_556     S
V24     V26    10.0   .     S
V24     V4    10.0   1_556     S
V25     V26    10.0   .     S
V25     V28    10.0   1_565     S
V25     V12    10.0   1_556     S
V25     V18    10.0   1_565     S
V26     V32    10.0   .     S
V26     V11    10.0   1_556     S
V26     V16    10.0   1_565     S
V27     V17    10.0   1_554     S
V27     V28    10.0   .     S
V27     V30    10.0   .     S
V27     V22    10.0   1_545     S
V28     V18    10.0   1_554     S
V28     V25    10.0   1_545     S
V28     V12    10.0   1_545     S
V29     V30    10.0   .     S
V29     V31    10.0   1_655     S
V29     V13    10.0   1_556     S
V29     V23    10.0   1_655     S
V29     V15    10.0   1_655     S
V30     V14    10.0   1_556     S
V31     V23    10.0   1_554     S
V31     V32    10.0   .     S
V31     V29    10.0   1_455     S
V31     V21    10.0   1_455     S
V31     V13    10.0   1_455     S
V32     V24    10.0   1_554     S
