data_vbi
_audit_creation_date              2020-02-04
_audit_creation_method            'Pymatgen'
_symmetry_space_group_name_H-M    'P1'
_symmetry_Int_Tables_number       1
loop_
_symmetry_equiv_pos_as_xyz
  x,y,z
_cell_length_a                    25.4793
_cell_length_b                    27.7216
_cell_length_c                    52.8323
_cell_angle_alpha                 90.0
_cell_angle_beta                 90.0
_cell_angle_gamma                 90.0
loop_
_atom_site_label
_atom_site_type_symbol
_atom_site_fract_x
_atom_site_fract_y
_atom_site_fract_z
V1     V     0.182   0.4079   0.468
V2     V     0.182   0.3421   0.282
V3     V     0.568   0.4079   0.282
V4     V     0.568   0.3421   0.468
V5     V     0.682   0.4079   0.968
V6     V     0.682   0.3421   0.782
V7     V     0.068   0.3421   0.968
V8     V     0.068   0.4079   0.782
V9     V     0.182   0.9079   0.968
V10     V     0.182   0.8421   0.782
V11     V     0.568   0.8421   0.968
V12     V     0.568   0.9079   0.782
V13     V     0.818   0.5921   0.532
V14     V     0.818   0.6579   0.718
V15     V     0.432   0.6579   0.532
V16     V     0.432   0.5921   0.718
V17     V     0.318   0.0921   0.532
V18     V     0.318   0.1579   0.718
V19     V     0.932   0.1579   0.532
V20     V     0.932   0.0921   0.718
V21     V     0.318   0.5921   0.032
V22     V     0.318   0.6579   0.218
V23     V     0.932   0.5921   0.218
V24     V     0.932   0.6579   0.032
V25     V     0.818   0.0921   0.032
V26     V     0.818   0.1579   0.218
V27     V     0.432   0.1579   0.032
V28     V     0.432   0.0921   0.218
V29     V     0.682   0.9079   0.468
V30     V     0.682   0.8421   0.282
V31     V     0.068   0.9079   0.282
V32     V     0.068   0.8421   0.468
loop_
_geom_bond_atom_site_label_1
_geom_bond_atom_site_label_2
_geom_bond_distance
_geom_bond_site_symmetry_2
_ccdc_geom_bond_type
V1     V17    10.0   .     S
V1     V19    10.0   1_455     S
V1     V15    10.0   .     S
V1     V2    10.0   .     S
V1     V4    10.0   .     S
V2     V3    10.0   .     S
V2     V22    10.0   .     S
V2     V23    10.0   1_455     S
V2     V28    10.0   .     S
V3     V4    10.0   .     S
V3     V22    10.0   .     S
V3     V28    10.0   .     S
V3     V26    10.0   .     S
V4     V17    10.0   .     S
V4     V15    10.0   .     S
V4     V13    10.0   .     S
V5     V6    10.0   .     S
V5     V7    10.0   1_655     S
V5     V24    10.0   1_556     S
V5     V25    10.0   1_556     S
V5     V27    10.0   1_556     S
V6     V8    10.0   1_655     S
V6     V14    10.0   .     S
V6     V16    10.0   .     S
V6     V20    10.0   .     S
V7     V8    10.0   .     S
V7     V5    10.0   1_455     S
V7     V24    10.0   1_456     S
V7     V21    10.0   1_556     S
V7     V25    10.0   1_456     S
V8     V6    10.0   1_455     S
V8     V14    10.0   1_455     S
V8     V20    10.0   1_455     S
V8     V18    10.0   .     S
V9     V10    10.0   .     S
V9     V11    10.0   .     S
V9     V21    10.0   1_556     S
V9     V24    10.0   1_456     S
V9     V27    10.0   1_566     S
V10     V12    10.0   .     S
V10     V16    10.0   .     S
V10     V18    10.0   1_565     S
V10     V20    10.0   1_465     S
V11     V12    10.0   .     S
V11     V21    10.0   1_556     S
V11     V27    10.0   1_566     S
V11     V25    10.0   1_566     S
V12     V16    10.0   .     S
V12     V14    10.0   .     S
V12     V18    10.0   1_565     S
V13     V14    10.0   .     S
V13     V15    10.0   .     S
V13     V29    10.0   .     S
V13     V32    10.0   1_655     S
V14     V8    10.0   1_655     S
V14     V16    10.0   .     S
V15     V16    10.0   .     S
V15     V29    10.0   .     S
V17     V18    10.0   .     S
V17     V19    10.0   1_455     S
V17     V32    10.0   1_545     S
V18     V20    10.0   1_455     S
V18     V10    10.0   1_545     S
V18     V12    10.0   1_545     S
V19     V1    10.0   1_655     S
V19     V20    10.0   .     S
V19     V17    10.0   1_655     S
V19     V32    10.0   1_645     S
V19     V29    10.0   1_545     S
V20     V8    10.0   1_655     S
V20     V18    10.0   1_655     S
V20     V10    10.0   1_645     S
V21     V7    10.0   1_554     S
V21     V9    10.0   1_554     S
V21     V11    10.0   1_554     S
V21     V22    10.0   .     S
V21     V24    10.0   1_455     S
V22     V23    10.0   1_455     S
V22     V31    10.0   .     S
V23     V2    10.0   1_655     S
V23     V24    10.0   .     S
V23     V22    10.0   1_655     S
V23     V31    10.0   1_655     S
V23     V30    10.0   .     S
V24     V7    10.0   1_654     S
V24     V5    10.0   1_554     S
V24     V9    10.0   1_654     S
V24     V21    10.0   1_655     S
V25     V5    10.0   1_554     S
V25     V7    10.0   1_654     S
V25     V11    10.0   1_544     S
V25     V26    10.0   .     S
V25     V27    10.0   .     S
V26     V28    10.0   .     S
V26     V30    10.0   1_545     S
V26     V31    10.0   1_645     S
V27     V5    10.0   1_554     S
V27     V11    10.0   1_544     S
V27     V9    10.0   1_544     S
V27     V28    10.0   .     S
V28     V30    10.0   1_545     S
V29     V19    10.0   1_565     S
V29     V30    10.0   .     S
V29     V32    10.0   1_655     S
V30     V26    10.0   1_565     S
V30     V28    10.0   1_565     S
V30     V31    10.0   1_655     S
V31     V23    10.0   1_455     S
V31     V26    10.0   1_465     S
V31     V32    10.0   .     S
V31     V30    10.0   1_455     S
V32     V13    10.0   1_455     S
V32     V19    10.0   1_465     S
V32     V17    10.0   1_565     S
V32     V29    10.0   1_455     S
