data_vbm
_audit_creation_date              2020-02-04
_audit_creation_method            'Pymatgen'
_symmetry_space_group_name_H-M    'P1'
_symmetry_Int_Tables_number       1
loop_
_symmetry_equiv_pos_as_xyz
  x,y,z
_cell_length_a                    38.5981
_cell_length_b                    20.0
_cell_length_c                    39.699
_cell_angle_alpha                 90.0
_cell_angle_beta                 90.0
_cell_angle_gamma                 90.0
loop_
_atom_site_label
_atom_site_type_symbol
_atom_site_fract_x
_atom_site_fract_y
_atom_site_fract_z
V1     V     0.6276   0.2932   0.874
V2     V     0.6276   0.7932   0.874
V3     V     0.6276   0.2068   0.626
V4     V     0.6276   0.7068   0.626
V5     V     0.3724   0.2068   0.874
V6     V     0.3724   0.7068   0.874
V7     V     0.3724   0.2932   0.626
V8     V     0.3724   0.7932   0.626
V9     V     0.8724   0.0432   0.626
V10     V     0.8724   0.5432   0.626
V11     V     0.8724   0.4568   0.874
V12     V     0.8724   0.9568   0.874
V13     V     0.1276   0.0432   0.874
V14     V     0.1276   0.5432   0.874
V15     V     0.1276   0.4568   0.626
V16     V     0.1276   0.9568   0.626
V17     V     0.3724   0.2068   0.1259
V18     V     0.3724   0.7068   0.1259
V19     V     0.3724   0.2932   0.374
V20     V     0.3724   0.7932   0.374
V21     V     0.6276   0.2932   0.1259
V22     V     0.6276   0.7932   0.1259
V23     V     0.6276   0.2068   0.374
V24     V     0.6276   0.7068   0.374
V25     V     0.8724   0.0432   0.374
V26     V     0.8724   0.5432   0.374
V27     V     0.8724   0.4568   0.1259
V28     V     0.8724   0.9568   0.1259
V29     V     0.1276   0.0432   0.1259
V30     V     0.1276   0.5432   0.1259
V31     V     0.1276   0.4568   0.374
V32     V     0.1276   0.9568   0.374
loop_
_geom_bond_atom_site_label_1
_geom_bond_atom_site_label_2
_geom_bond_distance
_geom_bond_site_symmetry_2
_ccdc_geom_bond_type
V1     V3    10.0   .     S
V1     V5    10.0   .     S
V1     V11    10.0   .     S
V1     V2    10.0   1_545     S
V1     V2    10.0   .     S
V1     V21    10.0   1_556     S
V2     V4    10.0   .     S
V2     V6    10.0   .     S
V2     V12    10.0   .     S
V2     V1    10.0   1_565     S
V2     V22    10.0   1_556     S
V3     V7    10.0   .     S
V3     V9    10.0   .     S
V3     V4    10.0   .     S
V3     V4    10.0   1_545     S
V3     V23    10.0   .     S
V4     V8    10.0   .     S
V4     V10    10.0   .     S
V4     V3    10.0   1_565     S
V4     V24    10.0   .     S
V5     V7    10.0   .     S
V5     V13    10.0   .     S
V5     V6    10.0   .     S
V5     V6    10.0   1_545     S
V5     V17    10.0   1_556     S
V6     V8    10.0   .     S
V6     V14    10.0   .     S
V6     V5    10.0   1_565     S
V6     V18    10.0   1_556     S
V7     V15    10.0   .     S
V7     V8    10.0   1_545     S
V7     V8    10.0   .     S
V7     V19    10.0   .     S
V8     V16    10.0   .     S
V8     V7    10.0   1_565     S
V8     V20    10.0   .     S
V9     V12    10.0   1_545     S
V9     V16    10.0   1_645     S
V9     V10    10.0   .     S
V9     V10    10.0   1_545     S
V9     V25    10.0   .     S
V10     V11    10.0   .     S
V10     V15    10.0   1_655     S
V10     V9    10.0   1_565     S
V10     V26    10.0   .     S
V11     V14    10.0   1_655     S
V11     V12    10.0   1_545     S
V11     V12    10.0   .     S
V11     V27    10.0   1_556     S
V12     V9    10.0   1_565     S
V12     V13    10.0   1_665     S
V12     V11    10.0   1_565     S
V12     V28    10.0   1_556     S
V13     V16    10.0   1_545     S
V13     V12    10.0   1_445     S
V13     V14    10.0   .     S
V13     V14    10.0   1_545     S
V13     V29    10.0   1_556     S
V14     V15    10.0   .     S
V14     V11    10.0   1_455     S
V14     V13    10.0   1_565     S
V14     V30    10.0   1_556     S
V15     V10    10.0   1_455     S
V15     V16    10.0   1_545     S
V15     V16    10.0   .     S
V15     V31    10.0   .     S
V16     V13    10.0   1_565     S
V16     V9    10.0   1_465     S
V16     V15    10.0   1_565     S
V16     V32    10.0   .     S
V17     V19    10.0   .     S
V17     V21    10.0   .     S
V17     V29    10.0   .     S
V17     V18    10.0   .     S
V17     V18    10.0   1_545     S
V17     V5    10.0   1_554     S
V18     V20    10.0   .     S
V18     V22    10.0   .     S
V18     V30    10.0   .     S
V18     V17    10.0   1_565     S
V18     V6    10.0   1_554     S
V19     V23    10.0   .     S
V19     V31    10.0   .     S
V19     V20    10.0   1_545     S
V19     V20    10.0   .     S
V20     V24    10.0   .     S
V20     V32    10.0   .     S
V20     V19    10.0   1_565     S
V21     V23    10.0   .     S
V21     V27    10.0   .     S
V21     V22    10.0   1_545     S
V21     V22    10.0   .     S
V21     V1    10.0   1_554     S
V22     V24    10.0   .     S
V22     V28    10.0   .     S
V22     V21    10.0   1_565     S
V22     V2    10.0   1_554     S
V23     V25    10.0   .     S
V23     V24    10.0   .     S
V23     V24    10.0   1_545     S
V24     V26    10.0   .     S
V24     V23    10.0   1_565     S
V25     V28    10.0   1_545     S
V25     V32    10.0   1_645     S
V25     V26    10.0   .     S
V25     V26    10.0   1_545     S
V26     V27    10.0   .     S
V26     V31    10.0   1_655     S
V26     V25    10.0   1_565     S
V27     V30    10.0   1_655     S
V27     V28    10.0   1_545     S
V27     V28    10.0   .     S
V27     V11    10.0   1_554     S
V28     V25    10.0   1_565     S
V28     V29    10.0   1_665     S
V28     V27    10.0   1_565     S
V28     V12    10.0   1_554     S
V29     V32    10.0   1_545     S
V29     V28    10.0   1_445     S
V29     V30    10.0   .     S
V29     V30    10.0   1_545     S
V29     V13    10.0   1_554     S
V30     V31    10.0   .     S
V30     V27    10.0   1_455     S
V30     V29    10.0   1_565     S
V30     V14    10.0   1_554     S
V31     V26    10.0   1_455     S
V31     V32    10.0   1_545     S
V31     V32    10.0   .     S
V32     V29    10.0   1_565     S
V32     V25    10.0   1_465     S
V32     V31    10.0   1_565     S
