data_vbt
_audit_creation_date              2020-02-04
_audit_creation_method            'Pymatgen'
_symmetry_space_group_name_H-M    'P1'
_symmetry_Int_Tables_number       1
loop_
_symmetry_equiv_pos_as_xyz
  x,y,z
_cell_length_a                    28.2573
_cell_length_b                    20.0
_cell_length_c                    32.0661
_cell_angle_alpha                 90.0
_cell_angle_beta                 90.0
_cell_angle_gamma                 90.0
loop_
_atom_site_label
_atom_site_type_symbol
_atom_site_fract_x
_atom_site_fract_y
_atom_site_fract_z
V1     V     0.4212   0.0619   0.8658
V2     V     0.4212   0.5619   0.8658
V3     V     0.0788   0.1881   0.8658
V4     V     0.0788   0.6881   0.8658
V5     V     0.9212   0.4381   0.6342
V6     V     0.9212   0.9381   0.6342
V7     V     0.5788   0.3119   0.6342
V8     V     0.5788   0.8119   0.6342
V9     V     0.5788   0.4381   0.1342
V10     V     0.5788   0.9381   0.1342
V11     V     0.9212   0.3119   0.1342
V12     V     0.9212   0.8119   0.1342
V13     V     0.4212   0.1881   0.3658
V14     V     0.4212   0.6881   0.3658
V15     V     0.0788   0.0619   0.3658
V16     V     0.0788   0.5619   0.3658
loop_
_geom_bond_atom_site_label_1
_geom_bond_atom_site_label_2
_geom_bond_distance
_geom_bond_site_symmetry_2
_ccdc_geom_bond_type
V1     V3    10.0   .     S
V1     V7    10.0   .     S
V1     V8    10.0   1_545     S
V1     V2    10.0   .     S
V1     V2    10.0   1_545     S
V1     V10    10.0   1_546     S
V2     V4    10.0   .     S
V2     V8    10.0   .     S
V2     V7    10.0   .     S
V2     V1    10.0   1_565     S
V2     V9    10.0   1_556     S
V3     V5    10.0   1_455     S
V3     V6    10.0   1_445     S
V3     V4    10.0   .     S
V3     V4    10.0   1_545     S
V3     V11    10.0   1_456     S
V4     V6    10.0   1_455     S
V4     V5    10.0   1_455     S
V4     V3    10.0   1_565     S
V4     V12    10.0   1_456     S
V5     V7    10.0   .     S
V5     V3    10.0   1_655     S
V5     V6    10.0   1_545     S
V5     V6    10.0   .     S
V5     V4    10.0   1_655     S
V5     V16    10.0   1_655     S
V6     V8    10.0   .     S
V6     V4    10.0   1_655     S
V6     V5    10.0   1_565     S
V6     V3    10.0   1_665     S
V6     V15    10.0   1_665     S
V7     V8    10.0   1_545     S
V7     V8    10.0   .     S
V7     V13    10.0   .     S
V8     V7    10.0   1_565     S
V8     V1    10.0   1_565     S
V8     V14    10.0   .     S
V9     V2    10.0   1_554     S
V9     V11    10.0   .     S
V9     V13    10.0   .     S
V9     V14    10.0   .     S
V9     V10    10.0   1_545     S
V9     V10    10.0   .     S
V10     V1    10.0   1_564     S
V10     V12    10.0   .     S
V10     V14    10.0   .     S
V10     V13    10.0   1_565     S
V10     V9    10.0   1_565     S
V11     V3    10.0   1_654     S
V11     V16    10.0   1_655     S
V11     V15    10.0   1_655     S
V11     V12    10.0   1_545     S
V11     V12    10.0   .     S
V12     V4    10.0   1_654     S
V12     V15    10.0   1_665     S
V12     V16    10.0   1_655     S
V12     V11    10.0   1_565     S
V13     V15    10.0   .     S
V13     V14    10.0   .     S
V13     V14    10.0   1_545     S
V13     V10    10.0   1_545     S
V14     V16    10.0   .     S
V14     V13    10.0   1_565     S
V15     V12    10.0   1_445     S
V15     V16    10.0   .     S
V15     V16    10.0   1_545     S
V15     V11    10.0   1_455     S
V15     V6    10.0   1_445     S
V16     V11    10.0   1_455     S
V16     V15    10.0   1_565     S
V16     V12    10.0   1_455     S
V16     V5    10.0   1_455     S
