data_vci
_audit_creation_date              2020-02-04
_audit_creation_method            'Pymatgen'
_symmetry_space_group_name_H-M    'P1'
_symmetry_Int_Tables_number       1
loop_
_symmetry_equiv_pos_as_xyz
  x,y,z
_cell_length_a                    39.3488
_cell_length_b                    36.7013
_cell_length_c                    20.0
_cell_angle_alpha                 90.0
_cell_angle_beta                 90.0
_cell_angle_gamma                 90.0
loop_
_atom_site_label
_atom_site_type_symbol
_atom_site_fract_x
_atom_site_fract_y
_atom_site_fract_z
V1     V     0.3729   0.868   0.3117
V2     V     0.3729   0.868   0.8117
V3     V     0.1271   0.868   0.4383
V4     V     0.1271   0.868   0.9383
V5     V     0.3729   0.632   0.0617
V6     V     0.3729   0.632   0.5617
V7     V     0.1271   0.632   0.1883
V8     V     0.1271   0.632   0.6883
V9     V     0.6271   0.868   0.3117
V10     V     0.6271   0.868   0.8117
V11     V     0.8729   0.868   0.4383
V12     V     0.8729   0.868   0.9383
V13     V     0.6271   0.632   0.0617
V14     V     0.6271   0.632   0.5617
V15     V     0.8729   0.632   0.1883
V16     V     0.8729   0.632   0.6883
V17     V     0.3729   0.368   0.4383
V18     V     0.3729   0.368   0.9383
V19     V     0.1271   0.368   0.3117
V20     V     0.1271   0.368   0.8117
V21     V     0.3729   0.132   0.1883
V22     V     0.3729   0.132   0.6883
V23     V     0.1271   0.132   0.0617
V24     V     0.1271   0.132   0.5617
V25     V     0.6271   0.368   0.4383
V26     V     0.6271   0.368   0.9383
V27     V     0.8729   0.368   0.3117
V28     V     0.8729   0.368   0.8117
V29     V     0.6271   0.132   0.1883
V30     V     0.6271   0.132   0.6883
V31     V     0.8729   0.132   0.0617
V32     V     0.8729   0.132   0.5617
loop_
_geom_bond_atom_site_label_1
_geom_bond_atom_site_label_2
_geom_bond_distance
_geom_bond_site_symmetry_2
_ccdc_geom_bond_type
V1     V3    10.0   .     S
V1     V5    10.0   .     S
V1     V6    10.0   .     S
V1     V2    10.0   1_554     S
V1     V2    10.0   .     S
V1     V9    10.0   .     S
V1     V21    10.0   1_565     S
V2     V4    10.0   .     S
V2     V6    10.0   .     S
V2     V5    10.0   1_556     S
V2     V1    10.0   1_556     S
V2     V10    10.0   .     S
V2     V22    10.0   1_565     S
V3     V8    10.0   .     S
V3     V7    10.0   .     S
V3     V4    10.0   1_554     S
V3     V4    10.0   .     S
V3     V11    10.0   1_455     S
V3     V24    10.0   1_565     S
V4     V7    10.0   1_556     S
V4     V8    10.0   .     S
V4     V3    10.0   1_556     S
V4     V12    10.0   1_455     S
V4     V23    10.0   1_566     S
V5     V7    10.0   .     S
V5     V2    10.0   1_554     S
V5     V6    10.0   .     S
V5     V6    10.0   1_554     S
V5     V13    10.0   .     S
V5     V18    10.0   1_554     S
V6     V8    10.0   .     S
V6     V5    10.0   1_556     S
V6     V14    10.0   .     S
V6     V17    10.0   .     S
V7     V4    10.0   1_554     S
V7     V8    10.0   .     S
V7     V8    10.0   1_554     S
V7     V15    10.0   1_455     S
V7     V19    10.0   .     S
V8     V7    10.0   1_556     S
V8     V16    10.0   1_455     S
V8     V20    10.0   .     S
V9     V11    10.0   .     S
V9     V13    10.0   .     S
V9     V14    10.0   .     S
V9     V10    10.0   1_554     S
V9     V10    10.0   .     S
V9     V29    10.0   1_565     S
V10     V12    10.0   .     S
V10     V14    10.0   .     S
V10     V13    10.0   1_556     S
V10     V9    10.0   1_556     S
V10     V30    10.0   1_565     S
V11     V16    10.0   .     S
V11     V15    10.0   .     S
V11     V12    10.0   1_554     S
V11     V12    10.0   .     S
V11     V3    10.0   1_655     S
V11     V32    10.0   1_565     S
V12     V15    10.0   1_556     S
V12     V16    10.0   .     S
V12     V11    10.0   1_556     S
V12     V4    10.0   1_655     S
V12     V31    10.0   1_566     S
V13     V15    10.0   .     S
V13     V10    10.0   1_554     S
V13     V14    10.0   .     S
V13     V14    10.0   1_554     S
V13     V26    10.0   1_554     S
V14     V16    10.0   .     S
V14     V13    10.0   1_556     S
V14     V25    10.0   .     S
V15     V12    10.0   1_554     S
V15     V16    10.0   .     S
V15     V16    10.0   1_554     S
V15     V7    10.0   1_655     S
V15     V27    10.0   .     S
V16     V15    10.0   1_556     S
V16     V8    10.0   1_655     S
V16     V28    10.0   .     S
V17     V19    10.0   .     S
V17     V21    10.0   .     S
V17     V22    10.0   .     S
V17     V18    10.0   1_554     S
V17     V18    10.0   .     S
V17     V25    10.0   .     S
V18     V20    10.0   .     S
V18     V22    10.0   .     S
V18     V21    10.0   1_556     S
V18     V17    10.0   1_556     S
V18     V26    10.0   .     S
V18     V5    10.0   1_556     S
V19     V24    10.0   .     S
V19     V23    10.0   .     S
V19     V20    10.0   1_554     S
V19     V20    10.0   .     S
V19     V27    10.0   1_455     S
V20     V23    10.0   1_556     S
V20     V24    10.0   .     S
V20     V19    10.0   1_556     S
V20     V28    10.0   1_455     S
V21     V23    10.0   .     S
V21     V18    10.0   1_554     S
V21     V22    10.0   .     S
V21     V22    10.0   1_554     S
V21     V29    10.0   .     S
V21     V1    10.0   1_545     S
V22     V24    10.0   .     S
V22     V21    10.0   1_556     S
V22     V30    10.0   .     S
V22     V2    10.0   1_545     S
V23     V20    10.0   1_554     S
V23     V24    10.0   .     S
V23     V24    10.0   1_554     S
V23     V31    10.0   1_455     S
V23     V4    10.0   1_544     S
V24     V23    10.0   1_556     S
V24     V32    10.0   1_455     S
V24     V3    10.0   1_545     S
V25     V27    10.0   .     S
V25     V29    10.0   .     S
V25     V30    10.0   .     S
V25     V26    10.0   1_554     S
V25     V26    10.0   .     S
V26     V28    10.0   .     S
V26     V30    10.0   .     S
V26     V29    10.0   1_556     S
V26     V25    10.0   1_556     S
V26     V13    10.0   1_556     S
V27     V32    10.0   .     S
V27     V31    10.0   .     S
V27     V28    10.0   1_554     S
V27     V28    10.0   .     S
V27     V19    10.0   1_655     S
V28     V31    10.0   1_556     S
V28     V32    10.0   .     S
V28     V27    10.0   1_556     S
V28     V20    10.0   1_655     S
V29     V31    10.0   .     S
V29     V26    10.0   1_554     S
V29     V30    10.0   .     S
V29     V30    10.0   1_554     S
V29     V9    10.0   1_545     S
V30     V32    10.0   .     S
V30     V29    10.0   1_556     S
V30     V10    10.0   1_545     S
V31     V28    10.0   1_554     S
V31     V32    10.0   .     S
V31     V32    10.0   1_554     S
V31     V23    10.0   1_655     S
V31     V12    10.0   1_544     S
V32     V31    10.0   1_556     S
V32     V24    10.0   1_655     S
V32     V11    10.0   1_545     S
