data_vdb
_audit_creation_date              2020-02-04
_audit_creation_method            'Pymatgen'
_symmetry_space_group_name_H-M    'P1'
_symmetry_Int_Tables_number       1
loop_
_symmetry_equiv_pos_as_xyz
  x,y,z
_cell_length_a                    18.457
_cell_length_b                    33.6712
_cell_length_c                    57.2203
_cell_angle_alpha                 90.0
_cell_angle_beta                 90.0
_cell_angle_gamma                 90.0
loop_
_atom_site_label
_atom_site_type_symbol
_atom_site_fract_x
_atom_site_fract_y
_atom_site_fract_z
V1     V     0.1834   0.98   0.4368
V2     V     0.8166   0.02   0.5632
V3     V     0.4334   0.23   0.5632
V4     V     0.0666   0.27   0.4368
V5     V     0.3166   0.52   0.5632
V6     V     0.6834   0.48   0.4368
V7     V     0.9334   0.73   0.5632
V8     V     0.5666   0.77   0.4368
V9     V     0.9334   0.02   0.1868
V10     V     0.5666   0.98   0.3132
V11     V     0.3166   0.23   0.1868
V12     V     0.6834   0.27   0.3132
V13     V     0.4334   0.52   0.1868
V14     V     0.0666   0.48   0.3132
V15     V     0.8166   0.73   0.1868
V16     V     0.1834   0.77   0.3132
V17     V     0.4334   0.02   0.6868
V18     V     0.0666   0.98   0.8132
V19     V     0.8166   0.23   0.6868
V20     V     0.1834   0.27   0.8132
V21     V     0.9334   0.52   0.6868
V22     V     0.5666   0.48   0.8132
V23     V     0.3166   0.73   0.6868
V24     V     0.6834   0.77   0.8132
V25     V     0.3166   0.02   0.0632
V26     V     0.6834   0.98   0.9368
V27     V     0.4334   0.73   0.0632
V28     V     0.0666   0.77   0.9368
V29     V     0.8166   0.52   0.0632
V30     V     0.1834   0.48   0.9368
V31     V     0.9334   0.23   0.0632
V32     V     0.5666   0.27   0.9368
loop_
_geom_bond_atom_site_label_1
_geom_bond_atom_site_label_2
_geom_bond_distance
_geom_bond_site_symmetry_2
_ccdc_geom_bond_type
V1     V2    10.0   1_465     S
V1     V8    10.0   .     S
V1     V16    10.0   .     S
V1     V10    10.0   .     S
V1     V4    10.0   1_565     S
V2     V17    10.0   .     S
V2     V19    10.0   .     S
V2     V1    10.0   1_645     S
V2     V3    10.0   .     S
V2     V7    10.0   1_545     S
V3     V19    10.0   .     S
V3     V17    10.0   .     S
V3     V4    10.0   .     S
V3     V5    10.0   .     S
V4     V6    10.0   1_455     S
V4     V12    10.0   1_455     S
V4     V14    10.0   .     S
V4     V1    10.0   1_545     S
V5     V6    10.0   .     S
V5     V7    10.0   1_455     S
V5     V21    10.0   1_455     S
V5     V23    10.0   .     S
V6     V4    10.0   1_655     S
V6     V14    10.0   1_655     S
V6     V12    10.0   .     S
V6     V8    10.0   .     S
V7     V8    10.0   .     S
V7     V5    10.0   1_655     S
V7     V21    10.0   .     S
V7     V23    10.0   1_655     S
V7     V2    10.0   1_565     S
V8     V16    10.0   .     S
V8     V10    10.0   .     S
V9     V25    10.0   1_655     S
V9     V31    10.0   .     S
V9     V10    10.0   1_545     S
V9     V11    10.0   1_655     S
V9     V15    10.0   1_545     S
V10     V9    10.0   1_565     S
V10     V16    10.0   .     S
V10     V12    10.0   1_565     S
V11     V31    10.0   1_455     S
V11     V25    10.0   .     S
V11     V9    10.0   1_455     S
V11     V12    10.0   .     S
V11     V13    10.0   .     S
V12     V4    10.0   1_655     S
V12     V14    10.0   1_655     S
V12     V10    10.0   1_545     S
V13     V14    10.0   .     S
V13     V15    10.0   .     S
V13     V29    10.0   .     S
V13     V27    10.0   .     S
V14     V6    10.0   1_455     S
V14     V12    10.0   1_455     S
V14     V16    10.0   .     S
V15     V16    10.0   1_655     S
V15     V29    10.0   .     S
V15     V27    10.0   .     S
V15     V9    10.0   1_565     S
V16     V15    10.0   1_455     S
V17     V18    10.0   1_545     S
V17     V19    10.0   .     S
V17     V23    10.0   1_545     S
V18     V17    10.0   1_565     S
V18     V24    10.0   1_455     S
V18     V28    10.0   .     S
V18     V26    10.0   1_455     S
V18     V20    10.0   1_565     S
V19     V20    10.0   1_655     S
V19     V21    10.0   .     S
V20     V32    10.0   .     S
V20     V30    10.0   .     S
V20     V19    10.0   1_455     S
V20     V22    10.0   .     S
V20     V18    10.0   1_545     S
V21     V5    10.0   1_655     S
V21     V22    10.0   .     S
V21     V23    10.0   1_655     S
V22     V30    10.0   .     S
V22     V32    10.0   .     S
V22     V24    10.0   .     S
V23     V7    10.0   1_455     S
V23     V21    10.0   1_455     S
V23     V24    10.0   .     S
V23     V17    10.0   1_565     S
V24     V18    10.0   1_655     S
V24     V28    10.0   1_655     S
V24     V26    10.0   .     S
V25     V9    10.0   1_455     S
V25     V26    10.0   1_544     S
V25     V31    10.0   1_455     S
V25     V27    10.0   1_545     S
V26     V25    10.0   1_566     S
V26     V28    10.0   1_655     S
V26     V18    10.0   1_655     S
V26     V32    10.0   1_565     S
V27     V28    10.0   1_554     S
V27     V29    10.0   .     S
V27     V25    10.0   1_565     S
V28     V27    10.0   1_556     S
V28     V26    10.0   1_455     S
V28     V24    10.0   1_455     S
V28     V30    10.0   .     S
V29     V30    10.0   1_654     S
V29     V31    10.0   .     S
V30     V29    10.0   1_456     S
V30     V32    10.0   .     S
V31     V11    10.0   1_655     S
V31     V32    10.0   1_554     S
V31     V25    10.0   1_655     S
V32     V31    10.0   1_556     S
V32     V26    10.0   1_545     S
