data_vmm
_audit_creation_date              2020-02-04
_audit_creation_method            'Pymatgen'
_symmetry_space_group_name_H-M    'P1'
_symmetry_Int_Tables_number       1
loop_
_symmetry_equiv_pos_as_xyz
  x,y,z
_cell_length_a                    20.0
_cell_length_b                    26.8919
_cell_length_c                    13.9376
_cell_angle_alpha                 90.0
_cell_angle_beta                 103.4476
_cell_angle_gamma                 90.0
loop_
_atom_site_label
_atom_site_type_symbol
_atom_site_fract_x
_atom_site_fract_y
_atom_site_fract_z
V1     V     0.3393   0.6166   0.2798
V2     V     0.8393   0.6166   0.2798
V3     V     0.1607   0.3833   0.7202
V4     V     0.6607   0.3833   0.7202
V5     V     0.1607   0.1166   0.2202
V6     V     0.6607   0.1166   0.2202
V7     V     0.3393   0.8834   0.7798
V8     V     0.8393   0.8834   0.7798
loop_
_geom_bond_atom_site_label_1
_geom_bond_atom_site_label_2
_geom_bond_distance
_geom_bond_site_symmetry_2
_ccdc_geom_bond_type
V1     V3    10.0   1_554     S
V1     V4    10.0   .     S
V1     V2    10.0   1_455     S
V1     V2    10.0   .     S
V1     V3    10.0   .     S
V1     V7    10.0   1_554     S
V1     V7    10.0   .     S
V2     V4    10.0   1_554     S
V2     V3    10.0   1_655     S
V2     V1    10.0   1_655     S
V2     V4    10.0   .     S
V2     V8    10.0   1_554     S
V2     V8    10.0   .     S
V3     V1    10.0   1_556     S
V3     V2    10.0   1_455     S
V3     V4    10.0   .     S
V3     V4    10.0   1_455     S
V3     V5    10.0   .     S
V3     V5    10.0   1_556     S
V4     V2    10.0   1_556     S
V4     V3    10.0   1_655     S
V4     V6    10.0   .     S
V4     V6    10.0   1_556     S
V5     V7    10.0   1_545     S
V5     V8    10.0   1_444     S
V5     V7    10.0   1_544     S
V5     V6    10.0   .     S
V5     V6    10.0   1_455     S
V5     V3    10.0   1_554     S
V6     V8    10.0   1_545     S
V6     V7    10.0   1_544     S
V6     V8    10.0   1_544     S
V6     V5    10.0   1_655     S
V6     V4    10.0   1_554     S
V7     V5    10.0   1_565     S
V7     V6    10.0   1_566     S
V7     V8    10.0   1_455     S
V7     V8    10.0   .     S
V7     V5    10.0   1_566     S
V7     V1    10.0   1_556     S
V8     V6    10.0   1_565     S
V8     V5    10.0   1_666     S
V8     V7    10.0   1_655     S
V8     V6    10.0   1_566     S
V8     V2    10.0   1_556     S
