data_vmq
_audit_creation_date              2020-02-04
_audit_creation_method            'Pymatgen'
_symmetry_space_group_name_H-M    'P1'
_symmetry_Int_Tables_number       1
loop_
_symmetry_equiv_pos_as_xyz
  x,y,z
_cell_length_a                    37.3031
_cell_length_b                    20.0
_cell_length_c                    19.7233
_cell_angle_alpha                 90.0
_cell_angle_beta                 104.664
_cell_angle_gamma                 90.0
loop_
_atom_site_label
_atom_site_type_symbol
_atom_site_fract_x
_atom_site_fract_y
_atom_site_fract_z
V1     V     0.8806   0.2914   0.0643
V2     V     0.8806   0.7914   0.0643
V3     V     0.1194   0.2086   0.9357
V4     V     0.1194   0.7086   0.9357
V5     V     0.8806   0.2086   0.5643
V6     V     0.8806   0.7086   0.5643
V7     V     0.1194   0.2914   0.4357
V8     V     0.1194   0.7914   0.4357
V9     V     0.3806   0.4586   0.5643
V10     V     0.3806   0.9586   0.5643
V11     V     0.6194   0.0414   0.4357
V12     V     0.6194   0.5414   0.4357
V13     V     0.3806   0.0414   0.0643
V14     V     0.3806   0.5414   0.0643
V15     V     0.6194   0.4586   0.9357
V16     V     0.6194   0.9586   0.9357
loop_
_geom_bond_atom_site_label_1
_geom_bond_atom_site_label_2
_geom_bond_distance
_geom_bond_site_symmetry_2
_ccdc_geom_bond_type
V1     V5    10.0   1_554     S
V1     V3    10.0   1_654     S
V1     V7    10.0   1_655     S
V1     V5    10.0   .     S
V1     V2    10.0   1_545     S
V1     V2    10.0   .     S
V1     V15    10.0   1_554     S
V2     V6    10.0   1_554     S
V2     V4    10.0   1_654     S
V2     V8    10.0   1_655     S
V2     V6    10.0   .     S
V2     V1    10.0   1_565     S
V2     V16    10.0   1_554     S
V3     V5    10.0   1_455     S
V3     V7    10.0   .     S
V3     V1    10.0   1_456     S
V3     V7    10.0   1_556     S
V3     V4    10.0   .     S
V3     V4    10.0   1_545     S
V3     V13    10.0   1_556     S
V4     V6    10.0   1_455     S
V4     V8    10.0   .     S
V4     V2    10.0   1_456     S
V4     V8    10.0   1_556     S
V4     V3    10.0   1_565     S
V4     V14    10.0   1_556     S
V5     V3    10.0   1_655     S
V5     V1    10.0   1_556     S
V5     V7    10.0   1_655     S
V5     V6    10.0   .     S
V5     V6    10.0   1_545     S
V5     V11    10.0   .     S
V6     V4    10.0   1_655     S
V6     V2    10.0   1_556     S
V6     V8    10.0   1_655     S
V6     V5    10.0   1_565     S
V6     V12    10.0   .     S
V7     V5    10.0   1_455     S
V7     V1    10.0   1_455     S
V7     V3    10.0   1_554     S
V7     V8    10.0   1_545     S
V7     V8    10.0   .     S
V7     V9    10.0   .     S
V8     V6    10.0   1_455     S
V8     V2    10.0   1_455     S
V8     V4    10.0   1_554     S
V8     V7    10.0   1_565     S
V8     V10    10.0   .     S
V9     V15    10.0   .     S
V9     V14    10.0   1_556     S
V9     V12    10.0   .     S
V9     V14    10.0   .     S
V9     V10    10.0   1_545     S
V9     V10    10.0   .     S
V10     V16    10.0   .     S
V10     V13    10.0   1_566     S
V10     V11    10.0   1_565     S
V10     V13    10.0   1_565     S
V10     V9    10.0   1_565     S
V11     V16    10.0   1_545     S
V11     V10    10.0   1_545     S
V11     V13    10.0   .     S
V11     V16    10.0   1_544     S
V11     V12    10.0   .     S
V11     V12    10.0   1_545     S
V12     V15    10.0   .     S
V12     V14    10.0   .     S
V12     V15    10.0   1_554     S
V12     V11    10.0   1_565     S
V13     V10    10.0   1_544     S
V13     V16    10.0   1_544     S
V13     V10    10.0   1_545     S
V13     V14    10.0   .     S
V13     V14    10.0   1_545     S
V13     V3    10.0   1_554     S
V14     V9    10.0   1_554     S
V14     V15    10.0   1_554     S
V14     V13    10.0   1_565     S
V14     V4    10.0   1_554     S
V15     V14    10.0   1_556     S
V15     V12    10.0   1_556     S
V15     V16    10.0   1_545     S
V15     V16    10.0   .     S
V15     V1    10.0   1_556     S
V16     V11    10.0   1_565     S
V16     V13    10.0   1_566     S
V16     V11    10.0   1_566     S
V16     V15    10.0   1_565     S
V16     V2    10.0   1_556     S
