data_vmu
_audit_creation_date              2020-02-04
_audit_creation_method            'Pymatgen'
_symmetry_space_group_name_H-M    'P1'
_symmetry_Int_Tables_number       1
loop_
_symmetry_equiv_pos_as_xyz
  x,y,z
_cell_length_a                    36.0079
_cell_length_b                    20.0
_cell_length_c                    19.7886
_cell_angle_alpha                 90.0
_cell_angle_beta                 103.5229
_cell_angle_gamma                 90.0
loop_
_atom_site_label
_atom_site_type_symbol
_atom_site_fract_x
_atom_site_fract_y
_atom_site_fract_z
V1     V     0.6428   0.0363   0.3136
V2     V     0.6428   0.5363   0.3136
V3     V     0.8572   0.2137   0.6864
V4     V     0.8572   0.7137   0.6864
V5     V     0.6428   0.4637   0.8136
V6     V     0.6428   0.9637   0.8136
V7     V     0.8572   0.2863   0.1864
V8     V     0.8572   0.7863   0.1864
V9     V     0.3572   0.4637   0.6864
V10     V     0.3572   0.9637   0.6864
V11     V     0.1428   0.2863   0.3136
V12     V     0.1428   0.7863   0.3136
V13     V     0.3572   0.0363   0.1864
V14     V     0.3572   0.5363   0.1864
V15     V     0.1428   0.2137   0.8136
V16     V     0.1428   0.7137   0.8136
loop_
_geom_bond_atom_site_label_1
_geom_bond_atom_site_label_2
_geom_bond_distance
_geom_bond_site_symmetry_2
_ccdc_geom_bond_type
V1     V6    10.0   1_545     S
V1     V7    10.0   .     S
V1     V8    10.0   1_545     S
V1     V6    10.0   1_544     S
V1     V3    10.0   .     S
V1     V2    10.0   .     S
V1     V2    10.0   1_545     S
V1     V13    10.0   .     S
V2     V5    10.0   .     S
V2     V8    10.0   .     S
V2     V7    10.0   .     S
V2     V5    10.0   1_554     S
V2     V4    10.0   .     S
V2     V1    10.0   1_565     S
V2     V14    10.0   .     S
V3     V6    10.0   1_545     S
V3     V7    10.0   .     S
V3     V5    10.0   .     S
V3     V7    10.0   1_556     S
V3     V4    10.0   .     S
V3     V4    10.0   1_545     S
V3     V15    10.0   1_655     S
V4     V5    10.0   .     S
V4     V8    10.0   .     S
V4     V6    10.0   .     S
V4     V8    10.0   1_556     S
V4     V3    10.0   1_565     S
V4     V16    10.0   1_655     S
V5     V2    10.0   1_556     S
V5     V7    10.0   1_556     S
V5     V6    10.0   1_545     S
V5     V6    10.0   .     S
V5     V9    10.0   .     S
V6     V3    10.0   1_565     S
V6     V1    10.0   1_565     S
V6     V1    10.0   1_566     S
V6     V8    10.0   1_556     S
V6     V5    10.0   1_565     S
V6     V10    10.0   .     S
V7     V8    10.0   1_545     S
V7     V8    10.0   .     S
V7     V5    10.0   1_554     S
V7     V3    10.0   1_554     S
V7     V11    10.0   1_655     S
V8     V1    10.0   1_565     S
V8     V7    10.0   1_565     S
V8     V6    10.0   1_554     S
V8     V4    10.0   1_554     S
V8     V12    10.0   1_655     S
V9     V14    10.0   .     S
V9     V11    10.0   .     S
V9     V15    10.0   .     S
V9     V16    10.0   .     S
V9     V14    10.0   1_556     S
V9     V10    10.0   1_545     S
V9     V10    10.0   .     S
V10     V13    10.0   1_565     S
V10     V12    10.0   .     S
V10     V16    10.0   .     S
V10     V15    10.0   1_565     S
V10     V13    10.0   1_566     S
V10     V9    10.0   1_565     S
V11     V13    10.0   .     S
V11     V15    10.0   1_554     S
V11     V14    10.0   .     S
V11     V12    10.0   1_545     S
V11     V12    10.0   .     S
V11     V15    10.0   .     S
V11     V7    10.0   1_455     S
V12     V14    10.0   .     S
V12     V16    10.0   1_554     S
V12     V13    10.0   1_565     S
V12     V11    10.0   1_565     S
V12     V16    10.0   .     S
V12     V8    10.0   1_455     S
V13     V12    10.0   1_545     S
V13     V10    10.0   1_545     S
V13     V10    10.0   1_544     S
V13     V15    10.0   1_554     S
V13     V14    10.0   .     S
V13     V14    10.0   1_545     S
V14     V9    10.0   1_554     S
V14     V16    10.0   1_554     S
V14     V13    10.0   1_565     S
V15     V11    10.0   1_556     S
V15     V10    10.0   1_545     S
V15     V13    10.0   1_556     S
V15     V16    10.0   .     S
V15     V16    10.0   1_545     S
V15     V3    10.0   1_455     S
V16     V12    10.0   1_556     S
V16     V14    10.0   1_556     S
V16     V15    10.0   1_565     S
V16     V4    10.0   1_455     S
