data_vmy
_audit_creation_date              2020-02-04
_audit_creation_method            'Pymatgen'
_symmetry_space_group_name_H-M    'P1'
_symmetry_Int_Tables_number       1
loop_
_symmetry_equiv_pos_as_xyz
  x,y,z
_cell_length_a                    24.8792
_cell_length_b                    18.1413
_cell_length_c                    16.6871
_cell_angle_alpha                 90.0
_cell_angle_beta                 100.8943
_cell_angle_gamma                 90.0
loop_
_atom_site_label
_atom_site_type_symbol
_atom_site_fract_x
_atom_site_fract_y
_atom_site_fract_z
V1     V     0.9138   0.4019   0.7257
V2     V     0.5862   0.4019   0.2743
V3     V     0.4138   0.5981   0.7257
V4     V     0.0862   0.5981   0.2743
V5     V     0.9138   0.0981   0.2257
V6     V     0.5862   0.0981   0.7743
V7     V     0.0862   0.9019   0.7743
V8     V     0.4138   0.9019   0.2257
loop_
_geom_bond_atom_site_label_1
_geom_bond_atom_site_label_2
_geom_bond_distance
_geom_bond_site_symmetry_2
_ccdc_geom_bond_type
V1     V7    10.0   1_655     S
V1     V2    10.0   .     S
V1     V4    10.0   1_655     S
V1     V5    10.0   .     S
V1     V6    10.0   .     S
V1     V5    10.0   1_556     S
V1     V7    10.0   1_645     S
V1     V4    10.0   1_656     S
V2     V8    10.0   .     S
V2     V3    10.0   .     S
V2     V5    10.0   .     S
V2     V6    10.0   1_554     S
V2     V8    10.0   1_545     S
V2     V6    10.0   .     S
V2     V3    10.0   1_554     S
V3     V7    10.0   .     S
V3     V8    10.0   1_556     S
V3     V6    10.0   1_565     S
V3     V8    10.0   .     S
V3     V4    10.0   .     S
V3     V6    10.0   .     S
V3     V2    10.0   1_556     S
V4     V7    10.0   .     S
V4     V7    10.0   1_554     S
V4     V8    10.0   .     S
V4     V5    10.0   1_465     S
V4     V1    10.0   1_455     S
V4     V5    10.0   1_455     S
V4     V1    10.0   1_454     S
V5     V4    10.0   1_645     S
V5     V4    10.0   1_655     S
V5     V6    10.0   1_554     S
V5     V7    10.0   1_644     S
V5     V1    10.0   1_554     S
V5     V7    10.0   1_645     S
V6     V3    10.0   1_545     S
V6     V2    10.0   1_556     S
V6     V5    10.0   1_556     S
V6     V8    10.0   1_546     S
V6     V8    10.0   1_545     S
V7     V1    10.0   1_455     S
V7     V4    10.0   1_556     S
V7     V8    10.0   1_556     S
V7     V5    10.0   1_466     S
V7     V1    10.0   1_465     S
V7     V5    10.0   1_465     S
V8     V3    10.0   1_554     S
V8     V2    10.0   1_565     S
V8     V7    10.0   1_554     S
V8     V6    10.0   1_564     S
V8     V6    10.0   1_565     S
