data_vni
_audit_creation_date              2020-02-04
_audit_creation_method            'Pymatgen'
_symmetry_space_group_name_H-M    'P1'
_symmetry_Int_Tables_number       1
loop_
_symmetry_equiv_pos_as_xyz
  x,y,z
_cell_length_a                    26.9388
_cell_length_b                    19.9774
_cell_length_c                    26.8975
_cell_angle_alpha                 90.0
_cell_angle_beta                 94.0729
_cell_angle_gamma                 90.0
loop_
_atom_site_label
_atom_site_type_symbol
_atom_site_fract_x
_atom_site_fract_y
_atom_site_fract_z
V1     V     0.6343   0.1877   0.6304
V2     V     0.6343   0.6877   0.6304
V3     V     0.8657   0.4377   0.8696
V4     V     0.8657   0.9377   0.8696
V5     V     0.1343   0.4377   0.6304
V6     V     0.1343   0.9377   0.6304
V7     V     0.3657   0.1877   0.8696
V8     V     0.3657   0.6877   0.8696
V9     V     0.6343   0.3123   0.1304
V10     V     0.6343   0.8123   0.1304
V11     V     0.8657   0.0623   0.3696
V12     V     0.8657   0.5623   0.3696
V13     V     0.1343   0.0623   0.1304
V14     V     0.1343   0.5623   0.1304
V15     V     0.3657   0.3123   0.3696
V16     V     0.3657   0.8123   0.3696
loop_
_geom_bond_atom_site_label_1
_geom_bond_atom_site_label_2
_geom_bond_distance
_geom_bond_site_symmetry_2
_ccdc_geom_bond_type
V1     V7    10.018   .     S
V1     V11    10.028   .     S
V1     V15    10.029   .     S
V1     V3    9.974   .     S
V1     V2    9.989   .     S
V1     V2    9.989   1_545     S
V1     V4    9.974   1_545     S
V2     V8    10.018   .     S
V2     V12    10.028   .     S
V2     V16    10.029   .     S
V2     V4    9.974   .     S
V2     V1    9.989   1_565     S
V2     V3    9.974   .     S
V3     V5    10.018   1_655     S
V3     V9    10.028   1_556     S
V3     V14    10.029   1_656     S
V3     V4    9.989   1_545     S
V3     V4    9.989   .     S
V4     V6    10.018   1_655     S
V4     V10    10.028   1_556     S
V4     V13    10.029   1_666     S
V4     V1    9.974   1_565     S
V4     V3    9.989   1_565     S
V5     V3    10.018   1_455     S
V5     V15    10.028   .     S
V5     V12    10.029   1_455     S
V5     V8    9.974   .     S
V5     V6    9.989   1_545     S
V5     V6    9.989   .     S
V5     V7    9.974   .     S
V6     V4    10.018   1_455     S
V6     V16    10.028   .     S
V6     V11    10.029   1_465     S
V6     V7    9.974   1_565     S
V6     V5    9.989   1_565     S
V6     V8    9.974   .     S
V7     V13    10.028   1_556     S
V7     V9    10.029   1_556     S
V7     V6    9.974   1_545     S
V7     V8    9.989   .     S
V7     V8    9.989   1_545     S
V8     V14    10.028   1_556     S
V8     V10    10.029   1_556     S
V8     V7    9.989   1_565     S
V9     V15    10.018   .     S
V9     V3    10.028   1_554     S
V9     V7    10.029   1_554     S
V9     V12    9.974   .     S
V9     V10    9.989   1_545     S
V9     V10    9.989   .     S
V9     V11    9.974   .     S
V10     V16    10.018   .     S
V10     V4    10.028   1_554     S
V10     V8    10.029   1_554     S
V10     V11    9.974   1_565     S
V10     V9    9.989   1_565     S
V10     V12    9.974   .     S
V11     V13    10.018   1_655     S
V11     V6    10.029   1_645     S
V11     V10    9.974   1_545     S
V11     V12    9.989   .     S
V11     V12    9.989   1_545     S
V12     V14    10.018   1_655     S
V12     V5    10.029   1_655     S
V12     V11    9.989   1_565     S
V13     V11    10.018   1_455     S
V13     V7    10.028   1_554     S
V13     V4    10.029   1_444     S
V13     V16    9.974   1_545     S
V13     V14    9.989   .     S
V13     V14    9.989   1_545     S
V13     V15    9.974   .     S
V14     V12    10.018   1_455     S
V14     V8    10.028   1_554     S
V14     V3    10.029   1_454     S
V14     V15    9.974   .     S
V14     V13    9.989   1_565     S
V14     V16    9.974   .     S
V15     V16    9.989   1_545     S
V15     V16    9.989   .     S
V16     V13    9.974   1_565     S
V16     V15    9.989   1_565     S
