data_vtx
_audit_creation_date              2020-02-04
_audit_creation_method            'Pymatgen'
_symmetry_space_group_name_H-M    'P1'
_symmetry_Int_Tables_number       1
loop_
_symmetry_equiv_pos_as_xyz
  x,y,z
_cell_length_a                    23.9044
_cell_length_b                    23.9044
_cell_length_c                    21.3811
_cell_angle_alpha                 90.0
_cell_angle_beta                 90.0
_cell_angle_gamma                 90.0
loop_
_atom_site_label
_atom_site_type_symbol
_atom_site_fract_x
_atom_site_fract_y
_atom_site_fract_z
V1     V     0.5   0.25   0.625
V2     V     0.5   0.75   0.375
V3     V     0.0   0.75   0.125
Er4     Er     0.5   0.5   0.0
Er5     Er     0.75   0.75   0.75
Er6     Er     0.0   0.5   0.5
Er7     Er     0.75   0.25   0.25
Er8     Er     0.5   0.0   0.0
Er9     Er     0.25   0.75   0.75
Er10     Er     0.0   0.0   0.5
Er11     Er     0.25   0.25   0.25
V12     V     0.0   0.25   0.875
loop_
_geom_bond_atom_site_label_1
_geom_bond_atom_site_label_2
_geom_bond_distance
_geom_bond_site_symmetry_2
_ccdc_geom_bond_type
V1     Er11    10.0   .     S
V1     Er7    10.0   .     S
V1     Er4    10.0   1_556     S
V1     Er8    10.0   1_556     S
V2     Er8    10.0   1_565     S
V2     Er9    10.0   .     S
V2     Er5    10.0   .     S
V2     Er4    10.0   .     S
V3     Er10    10.0   1_565     S
V3     Er5    10.0   1_454     S
V3     Er6    10.0   .     S
V3     Er9    10.0   1_554     S
Er4     Er7    10.0   .     S
Er4     Er5    10.0   1_554     S
Er4     Er11    10.0   .     S
Er4     Er9    10.0   1_554     S
Er4     V1    10.0   1_554     S
Er5     Er4    10.0   1_556     S
Er5     Er10    10.0   1_665     S
Er5     Er8    10.0   1_566     S
Er5     Er6    10.0   1_655     S
Er5     V3    10.0   1_656     S
Er6     Er5    10.0   1_455     S
Er6     Er9    10.0   .     S
Er6     Er11    10.0   .     S
Er6     Er7    10.0   1_455     S
Er6     V12    10.0   .     S
Er7     Er10    10.0   1_655     S
Er7     Er6    10.0   1_655     S
Er7     Er8    10.0   .     S
Er7     V12    10.0   1_654     S
Er8     V2    10.0   1_545     S
Er8     Er5    10.0   1_544     S
Er8     Er11    10.0   .     S
Er8     Er9    10.0   1_544     S
Er8     V1    10.0   1_554     S
Er9     Er4    10.0   1_556     S
Er9     Er10    10.0   1_565     S
Er9     Er8    10.0   1_566     S
Er9     V3    10.0   1_556     S
Er10     V3    10.0   1_545     S
Er10     Er5    10.0   1_445     S
Er10     Er7    10.0   1_455     S
Er10     Er9    10.0   1_545     S
Er10     Er11    10.0   .     S
Er10     V12    10.0   .     S
Er11     V12    10.0   1_554     S
V12     Er7    10.0   1_456     S
V12     Er11    10.0   1_556     S
