data_wfa
_audit_creation_date              2020-02-04
_audit_creation_method            'Pymatgen'
_symmetry_space_group_name_H-M    'P1'
_symmetry_Int_Tables_number       1
loop_
_symmetry_equiv_pos_as_xyz
  x,y,z
_cell_length_a                    33.4645
_cell_length_b                    33.4645
_cell_length_c                    14.7822
_cell_angle_alpha                 90.0
_cell_angle_beta                 90.0
_cell_angle_gamma                 90.0
loop_
_atom_site_label
_atom_site_type_symbol
_atom_site_fract_x
_atom_site_fract_y
_atom_site_fract_z
V1     V     0.3506   0.5016   0.4917
V2     V     0.1494   0.5016   0.9917
V3     V     0.6494   0.4984   0.5083
V4     V     0.8506   0.4984   0.0083
V5     V     0.9984   0.3506   0.4917
V6     V     0.9984   0.1494   0.9917
V7     V     0.0016   0.6494   0.5083
V8     V     0.0016   0.8506   0.0083
V9     V     0.3506   0.9984   0.9917
V10     V     0.1494   0.9984   0.4917
V11     V     0.6494   0.0016   0.0083
V12     V     0.8506   0.0016   0.5083
V13     V     0.5016   0.3506   0.9917
V14     V     0.5016   0.1494   0.4917
V15     V     0.4984   0.6494   0.0083
V16     V     0.4984   0.8506   0.5083
loop_
_geom_bond_atom_site_label_1
_geom_bond_atom_site_label_2
_geom_bond_distance
_geom_bond_site_symmetry_2
_ccdc_geom_bond_type
V1     V2    10.0   .     S
V1     V2    10.0   1_554     S
V1     V3    10.0   .     S
V1     V15    10.0   .     S
V2     V1    10.0   1_556     S
V2     V4    10.0   1_456     S
V2     V7    10.0   .     S
V3     V4    10.0   .     S
V3     V4    10.0   1_556     S
V3     V13    10.0   .     S
V4     V3    10.0   1_554     S
V4     V2    10.0   1_654     S
V4     V5    10.0   .     S
V5     V6    10.0   .     S
V5     V6    10.0   1_554     S
V5     V7    10.0   1_655     S
V6     V5    10.0   1_556     S
V6     V8    10.0   1_646     S
V6     V12    10.0   .     S
V7     V8    10.0   .     S
V7     V8    10.0   1_556     S
V7     V5    10.0   1_455     S
V8     V7    10.0   1_554     S
V8     V6    10.0   1_464     S
V8     V10    10.0   .     S
V9     V10    10.0   .     S
V9     V10    10.0   1_556     S
V9     V11    10.0   1_566     S
V9     V16    10.0   .     S
V10     V9    10.0   1_554     S
V10     V12    10.0   1_465     S
V11     V12    10.0   1_554     S
V11     V12    10.0   .     S
V11     V9    10.0   1_544     S
V11     V14    10.0   .     S
V12     V11    10.0   1_556     S
V12     V10    10.0   1_645     S
V13     V14    10.0   .     S
V13     V14    10.0   1_556     S
V13     V15    10.0   1_556     S
V14     V13    10.0   1_554     S
V14     V16    10.0   1_545     S
V15     V16    10.0   1_554     S
V15     V16    10.0   .     S
V15     V13    10.0   1_554     S
V16     V15    10.0   1_556     S
V16     V14    10.0   1_565     S
