data_wfc
_audit_creation_date              2020-02-04
_audit_creation_method            'Pymatgen'
_symmetry_space_group_name_H-M    'P1'
_symmetry_Int_Tables_number       1
loop_
_symmetry_equiv_pos_as_xyz
  x,y,z
_cell_length_a                    35.7071
_cell_length_b                    35.7071
_cell_length_c                    20.0
_cell_angle_alpha                 90.0
_cell_angle_beta                 90.0
_cell_angle_gamma                 90.0
loop_
_atom_site_label
_atom_site_type_symbol
_atom_site_fract_x
_atom_site_fract_y
_atom_site_fract_z
V1     V     0.5882   0.8971   0.4375
V2     V     0.5882   0.8971   0.9375
V3     V     0.4118   0.1029   0.0625
V4     V     0.4118   0.1029   0.5625
V5     V     0.1471   0.1618   0.4375
V6     V     0.1471   0.1618   0.9375
V7     V     0.3529   0.3382   0.3125
V8     V     0.3529   0.3382   0.8125
V9     V     0.0882   0.8971   0.3125
V10     V     0.0882   0.8971   0.8125
V11     V     0.9118   0.1029   0.1875
V12     V     0.9118   0.1029   0.6875
V13     V     0.8529   0.8382   0.0625
V14     V     0.8529   0.8382   0.5625
V15     V     0.6471   0.6618   0.1875
V16     V     0.6471   0.6618   0.6875
V17     V     0.4118   0.6029   0.4375
V18     V     0.4118   0.6029   0.9375
V19     V     0.5882   0.3971   0.0625
V20     V     0.5882   0.3971   0.5625
V21     V     0.3529   0.8382   0.1875
V22     V     0.3529   0.8382   0.6875
V23     V     0.1471   0.6618   0.0625
V24     V     0.1471   0.6618   0.5625
V25     V     0.6471   0.1618   0.3125
V26     V     0.6471   0.1618   0.8125
V27     V     0.8529   0.3382   0.4375
V28     V     0.8529   0.3382   0.9375
V29     V     0.9118   0.6029   0.3125
V30     V     0.9118   0.6029   0.8125
V31     V     0.0882   0.3971   0.1875
V32     V     0.0882   0.3971   0.6875
loop_
_geom_bond_atom_site_label_1
_geom_bond_atom_site_label_2
_geom_bond_distance
_geom_bond_site_symmetry_2
_ccdc_geom_bond_type
V1     V21    10.0   .     S
V1     V2    10.0   1_554     S
V1     V2    10.0   .     S
V1     V22    10.0   .     S
V1     V4    10.0   1_565     S
V1     V25    10.0   1_565     S
V1     V15    10.0   .     S
V1     V16    10.0   .     S
V1     V14    10.0   .     S
V2     V22    10.0   .     S
V2     V1    10.0   1_556     S
V2     V21    10.0   1_556     S
V2     V3    10.0   1_566     S
V2     V26    10.0   1_565     S
V2     V16    10.0   .     S
V2     V15    10.0   1_556     S
V2     V13    10.0   1_556     S
V3     V25    10.0   .     S
V3     V4    10.0   .     S
V3     V4    10.0   1_554     S
V3     V26    10.0   1_554     S
V3     V2    10.0   1_544     S
V3     V21    10.0   1_545     S
V3     V7    10.0   .     S
V3     V8    10.0   1_554     S
V3     V6    10.0   1_554     S
V4     V26    10.0   .     S
V4     V3    10.0   1_556     S
V4     V25    10.0   .     S
V4     V1    10.0   1_545     S
V4     V22    10.0   1_545     S
V4     V8    10.0   .     S
V4     V7    10.0   .     S
V4     V5    10.0   .     S
V5     V32    10.0   .     S
V5     V6    10.0   1_554     S
V5     V6    10.0   .     S
V5     V31    10.0   .     S
V5     V7    10.0   .     S
V5     V12    10.0   1_455     S
V5     V11    10.0   1_455     S
V5     V9    10.0   1_545     S
V6     V31    10.0   1_556     S
V6     V5    10.0   1_556     S
V6     V32    10.0   .     S
V6     V8    10.0   .     S
V6     V3    10.0   1_556     S
V6     V11    10.0   1_456     S
V6     V12    10.0   1_455     S
V6     V10    10.0   1_545     S
V7     V8    10.0   1_554     S
V7     V8    10.0   .     S
V7     V31    10.0   .     S
V7     V19    10.0   .     S
V7     V20    10.0   .     S
V7     V17    10.0   .     S
V8     V7    10.0   1_556     S
V8     V3    10.0   1_556     S
V8     V32    10.0   .     S
V8     V20    10.0   .     S
V8     V19    10.0   1_556     S
V8     V18    10.0   .     S
V9     V14    10.0   1_455     S
V9     V10    10.0   1_554     S
V9     V10    10.0   .     S
V9     V13    10.0   1_455     S
V9     V11    10.0   1_465     S
V9     V5    10.0   1_565     S
V9     V24    10.0   .     S
V9     V23    10.0   .     S
V9     V21    10.0   .     S
V10     V13    10.0   1_456     S
V10     V9    10.0   1_556     S
V10     V14    10.0   1_455     S
V10     V12    10.0   1_465     S
V10     V6    10.0   1_565     S
V10     V23    10.0   1_556     S
V10     V24    10.0   .     S
V10     V22    10.0   .     S
V11     V6    10.0   1_654     S
V11     V12    10.0   .     S
V11     V12    10.0   1_554     S
V11     V5    10.0   1_655     S
V11     V9    10.0   1_645     S
V11     V13    10.0   1_545     S
V11     V28    10.0   1_554     S
V11     V27    10.0   .     S
V11     V25    10.0   .     S
V12     V5    10.0   1_655     S
V12     V11    10.0   1_556     S
V12     V6    10.0   1_655     S
V12     V10    10.0   1_645     S
V12     V14    10.0   1_545     S
V12     V27    10.0   .     S
V12     V28    10.0   .     S
V12     V26    10.0   .     S
V13     V10    10.0   1_654     S
V13     V9    10.0   1_655     S
V13     V11    10.0   1_565     S
V13     V30    10.0   1_554     S
V13     V14    10.0   .     S
V13     V14    10.0   1_554     S
V13     V29    10.0   .     S
V13     V15    10.0   .     S
V13     V2    10.0   1_554     S
V14     V9    10.0   1_655     S
V14     V10    10.0   1_655     S
V14     V12    10.0   1_565     S
V14     V29    10.0   .     S
V14     V13    10.0   1_556     S
V14     V30    10.0   .     S
V14     V16    10.0   .     S
V15     V16    10.0   .     S
V15     V16    10.0   1_554     S
V15     V2    10.0   1_554     S
V15     V29    10.0   .     S
V15     V17    10.0   .     S
V15     V18    10.0   1_554     S
V15     V19    10.0   .     S
V16     V15    10.0   1_556     S
V16     V30    10.0   .     S
V16     V18    10.0   .     S
V16     V17    10.0   .     S
V16     V20    10.0   .     S
V17     V18    10.0   1_554     S
V17     V18    10.0   .     S
V17     V20    10.0   .     S
V17     V21    10.0   .     S
V17     V22    10.0   .     S
V17     V24    10.0   .     S
V18     V17    10.0   1_556     S
V18     V15    10.0   1_556     S
V18     V19    10.0   1_556     S
V18     V22    10.0   .     S
V18     V21    10.0   1_556     S
V18     V23    10.0   1_556     S
V19     V20    10.0   .     S
V19     V20    10.0   1_554     S
V19     V8    10.0   1_554     S
V19     V18    10.0   1_554     S
V19     V25    10.0   .     S
V19     V26    10.0   1_554     S
V19     V28    10.0   1_554     S
V20     V19    10.0   1_556     S
V20     V26    10.0   .     S
V20     V25    10.0   .     S
V20     V27    10.0   .     S
V21     V2    10.0   1_554     S
V21     V3    10.0   1_565     S
V21     V22    10.0   .     S
V21     V22    10.0   1_554     S
V21     V18    10.0   1_554     S
V21     V23    10.0   .     S
V22     V4    10.0   1_565     S
V22     V21    10.0   1_556     S
V22     V24    10.0   .     S
V23     V10    10.0   1_554     S
V23     V24    10.0   .     S
V23     V24    10.0   1_554     S
V23     V18    10.0   1_554     S
V23     V30    10.0   1_454     S
V23     V29    10.0   1_455     S
V23     V31    10.0   .     S
V24     V23    10.0   1_556     S
V24     V29    10.0   1_455     S
V24     V30    10.0   1_455     S
V24     V32    10.0   .     S
V25     V1    10.0   1_545     S
V25     V26    10.0   1_554     S
V25     V26    10.0   .     S
V25     V27    10.0   .     S
V26     V3    10.0   1_556     S
V26     V2    10.0   1_545     S
V26     V25    10.0   1_556     S
V26     V19    10.0   1_556     S
V26     V28    10.0   .     S
V27     V28    10.0   1_554     S
V27     V28    10.0   .     S
V27     V32    10.0   1_655     S
V27     V31    10.0   1_655     S
V27     V29    10.0   .     S
V28     V11    10.0   1_556     S
V28     V27    10.0   1_556     S
V28     V19    10.0   1_556     S
V28     V31    10.0   1_656     S
V28     V32    10.0   1_655     S
V28     V30    10.0   .     S
V29     V24    10.0   1_655     S
V29     V30    10.0   1_554     S
V29     V30    10.0   .     S
V29     V23    10.0   1_655     S
V29     V31    10.0   1_655     S
V30     V13    10.0   1_556     S
V30     V23    10.0   1_656     S
V30     V29    10.0   1_556     S
V30     V24    10.0   1_655     S
V30     V32    10.0   1_655     S
V31     V6    10.0   1_554     S
V31     V28    10.0   1_454     S
V31     V32    10.0   .     S
V31     V32    10.0   1_554     S
V31     V27    10.0   1_455     S
V31     V29    10.0   1_455     S
V32     V27    10.0   1_455     S
V32     V31    10.0   1_556     S
V32     V28    10.0   1_455     S
V32     V30    10.0   1_455     S
