data_wfw
_audit_creation_date              2020-02-04
_audit_creation_method            'Pymatgen'
_symmetry_space_group_name_H-M    'P1'
_symmetry_Int_Tables_number       1
loop_
_symmetry_equiv_pos_as_xyz
  x,y,z
_cell_length_a                    26.987
_cell_length_b                    26.987
_cell_length_c                    19.7358
_cell_angle_alpha                 90.0
_cell_angle_beta                 90.0
_cell_angle_gamma                 90.0
loop_
_atom_site_label
_atom_site_type_symbol
_atom_site_fract_x
_atom_site_fract_y
_atom_site_fract_z
V1     V     0.5103   0.28   0.9019
V2     V     0.72   0.4897   0.5981
V3     V     0.78   0.4897   0.0981
V4     V     0.9897   0.28   0.4019
V5     V     0.78   0.0103   0.5981
V6     V     0.9897   0.22   0.9019
V7     V     0.5103   0.22   0.4019
V8     V     0.72   0.0103   0.0981
V9     V     0.4897   0.78   0.5981
V10     V     0.28   0.9897   0.9019
V11     V     0.4897   0.72   0.0981
V12     V     0.28   0.5103   0.4019
V13     V     0.22   0.9897   0.4019
V14     V     0.0103   0.78   0.0981
V15     V     0.22   0.5103   0.9019
V16     V     0.0103   0.72   0.5981
loop_
_geom_bond_atom_site_label_1
_geom_bond_atom_site_label_2
_geom_bond_distance
_geom_bond_site_symmetry_2
_ccdc_geom_bond_type
V1     V15    10.0   .     S
V1     V3    10.0   1_556     S
V1     V2    10.0   .     S
V1     V7    10.0   .     S
V1     V8    10.0   1_556     S
V1     V7    10.0   1_556     S
V1     V10    10.0   1_545     S
V2     V9    10.0   .     S
V2     V7    10.0   .     S
V2     V3    10.0   1_556     S
V2     V4    10.0   .     S
V2     V3    10.0   .     S
V2     V16    10.0   1_655     S
V3     V1    10.0   1_554     S
V3     V2    10.0   1_554     S
V3     V14    10.0   1_655     S
V3     V6    10.0   1_554     S
V3     V4    10.0   .     S
V3     V11    10.0   .     S
V4     V12    10.0   1_655     S
V4     V6    10.0   1_554     S
V4     V5    10.0   .     S
V4     V6    10.0   .     S
V4     V13    10.0   1_645     S
V5     V16    10.0   1_645     S
V5     V6    10.0   .     S
V5     V8    10.0   1_556     S
V5     V7    10.0   .     S
V5     V8    10.0   .     S
V5     V9    10.0   1_545     S
V6     V3    10.0   1_556     S
V6     V4    10.0   1_556     S
V6     V10    10.0   1_645     S
V6     V8    10.0   1_556     S
V6     V15    10.0   1_655     S
V7     V13    10.0   1_545     S
V7     V8    10.0   .     S
V7     V1    10.0   1_554     S
V7     V12    10.0   .     S
V8     V6    10.0   1_554     S
V8     V5    10.0   1_554     S
V8     V11    10.0   1_545     S
V8     V1    10.0   1_554     S
V8     V14    10.0   1_645     S
V9     V5    10.0   1_565     S
V9     V13    10.0   .     S
V9     V10    10.0   .     S
V9     V11    10.0   1_556     S
V9     V12    10.0   .     S
V9     V11    10.0   .     S
V10     V6    10.0   1_465     S
V10     V1    10.0   1_565     S
V10     V11    10.0   1_556     S
V10     V13    10.0   .     S
V10     V14    10.0   1_556     S
V10     V13    10.0   1_556     S
V11     V8    10.0   1_565     S
V11     V10    10.0   1_554     S
V11     V9    10.0   1_554     S
V11     V15    10.0   1_554     S
V11     V12    10.0   .     S
V12     V4    10.0   1_455     S
V12     V15    10.0   1_554     S
V12     V16    10.0   .     S
V12     V15    10.0   .     S
V13     V7    10.0   1_565     S
V13     V4    10.0   1_465     S
V13     V16    10.0   .     S
V13     V14    10.0   .     S
V13     V10    10.0   1_554     S
V14     V3    10.0   1_455     S
V14     V8    10.0   1_465     S
V14     V10    10.0   1_554     S
V14     V16    10.0   .     S
V14     V15    10.0   1_554     S
V14     V16    10.0   1_554     S
V15     V11    10.0   1_556     S
V15     V12    10.0   1_556     S
V15     V6    10.0   1_455     S
V15     V14    10.0   1_556     S
V15     V16    10.0   .     S
V16     V5    10.0   1_465     S
V16     V2    10.0   1_455     S
V16     V14    10.0   1_556     S
