data_wfx
_audit_creation_date              2020-02-04
_audit_creation_method            'Pymatgen'
_symmetry_space_group_name_H-M    'P1'
_symmetry_Int_Tables_number       1
loop_
_symmetry_equiv_pos_as_xyz
  x,y,z
_cell_length_a                    22.3608
_cell_length_b                    22.3608
_cell_length_c                    33.1155
_cell_angle_alpha                 90.0
_cell_angle_beta                 90.0
_cell_angle_gamma                 90.0
loop_
_atom_site_label
_atom_site_type_symbol
_atom_site_fract_x
_atom_site_fract_y
_atom_site_fract_z
V1     V     0.65   0.45   0.6068
V2     V     0.85   0.05   0.6068
V3     V     0.55   0.15   0.3932
V4     V     0.45   0.85   0.6068
V5     V     0.15   0.95   0.3932
V6     V     0.05   0.65   0.6068
V7     V     0.35   0.55   0.3932
V8     V     0.95   0.35   0.3932
V9     V     0.15   0.55   0.8932
V10     V     0.05   0.85   0.1068
V11     V     0.95   0.15   0.8932
V12     V     0.55   0.35   0.8932
V13     V     0.85   0.45   0.1068
V14     V     0.45   0.65   0.1068
V15     V     0.35   0.95   0.8932
V16     V     0.65   0.05   0.1068
loop_
_geom_bond_atom_site_label_1
_geom_bond_atom_site_label_2
_geom_bond_distance
_geom_bond_site_symmetry_2
_ccdc_geom_bond_type
V1     V3    10.0   .     S
V1     V8    10.0   .     S
V1     V6    10.0   1_655     S
V1     V4    10.0   .     S
V1     V2    10.0   .     S
V1     V7    10.0   .     S
V1     V12    10.0   .     S
V2     V5    10.0   1_645     S
V2     V8    10.0   .     S
V2     V3    10.0   .     S
V2     V6    10.0   1_645     S
V2     V4    10.0   1_545     S
V2     V11    10.0   .     S
V3     V4    10.0   1_545     S
V3     V8    10.0   .     S
V3     V7    10.0   .     S
V3     V5    10.0   1_545     S
V3     V16    10.0   .     S
V4     V7    10.0   .     S
V4     V6    10.0   .     S
V4     V5    10.0   .     S
V4     V3    10.0   1_565     S
V4     V2    10.0   1_565     S
V4     V15    10.0   .     S
V5     V2    10.0   1_465     S
V5     V6    10.0   .     S
V5     V7    10.0   .     S
V5     V8    10.0   1_465     S
V5     V3    10.0   1_565     S
V5     V10    10.0   .     S
V6     V1    10.0   1_455     S
V6     V8    10.0   1_455     S
V6     V2    10.0   1_465     S
V6     V7    10.0   .     S
V6     V9    10.0   .     S
V7     V8    10.0   1_455     S
V7     V14    10.0   .     S
V8     V6    10.0   1_655     S
V8     V5    10.0   1_645     S
V8     V7    10.0   1_655     S
V8     V13    10.0   .     S
V9     V10    10.0   1_556     S
V9     V14    10.0   1_556     S
V9     V11    10.0   1_455     S
V9     V13    10.0   1_456     S
V9     V12    10.0   .     S
V9     V15    10.0   .     S
V10     V9    10.0   1_554     S
V10     V15    10.0   1_554     S
V10     V11    10.0   1_464     S
V10     V13    10.0   1_455     S
V10     V16    10.0   1_465     S
V10     V14    10.0   .     S
V11     V13    10.0   1_556     S
V11     V9    10.0   1_655     S
V11     V16    10.0   1_556     S
V11     V15    10.0   1_645     S
V11     V10    10.0   1_646     S
V11     V12    10.0   .     S
V12     V13    10.0   1_556     S
V12     V16    10.0   1_556     S
V12     V14    10.0   1_556     S
V12     V15    10.0   1_545     S
V13     V11    10.0   1_554     S
V13     V12    10.0   1_554     S
V13     V14    10.0   .     S
V13     V9    10.0   1_654     S
V13     V10    10.0   1_655     S
V13     V16    10.0   .     S
V14     V9    10.0   1_554     S
V14     V12    10.0   1_554     S
V14     V15    10.0   1_554     S
V14     V16    10.0   1_565     S
V15     V10    10.0   1_556     S
V15     V11    10.0   1_465     S
V15     V14    10.0   1_556     S
V15     V16    10.0   1_566     S
V15     V12    10.0   1_565     S
V16     V11    10.0   1_554     S
V16     V12    10.0   1_554     S
V16     V14    10.0   1_545     S
V16     V15    10.0   1_544     S
V16     V10    10.0   1_645     S
