data_wga
_audit_creation_date              2020-02-04
_audit_creation_method            'Pymatgen'
_symmetry_space_group_name_H-M    'P1'
_symmetry_Int_Tables_number       1
loop_
_symmetry_equiv_pos_as_xyz
  x,y,z
_cell_length_a                    67.9159
_cell_length_b                    67.9159
_cell_length_c                    20.0
_cell_angle_alpha                 90.0
_cell_angle_beta                 90.0
_cell_angle_gamma                 90.0
loop_
_atom_site_label
_atom_site_type_symbol
_atom_site_fract_x
_atom_site_fract_y
_atom_site_fract_z
V1     V     0.0736   0.0728   0.4623
V2     V     0.0736   0.0728   0.9623
V3     V     0.1772   0.1764   0.4127
V4     V     0.1772   0.1764   0.9127
V5     V     0.9264   0.0728   0.4623
V6     V     0.9264   0.0728   0.9623
V7     V     0.8228   0.1764   0.4127
V8     V     0.8228   0.1764   0.9127
V9     V     0.1772   0.3236   0.4127
V10     V     0.1772   0.3236   0.9127
V11     V     0.0736   0.4272   0.4623
V12     V     0.0736   0.4272   0.9623
V13     V     0.8228   0.3236   0.4127
V14     V     0.8228   0.3236   0.9127
V15     V     0.9264   0.4272   0.4623
V16     V     0.9264   0.4272   0.9623
V17     V     0.4264   0.0728   0.2877
V18     V     0.4264   0.0728   0.7877
V19     V     0.3228   0.1764   0.3373
V20     V     0.3228   0.1764   0.8373
V21     V     0.5736   0.0728   0.2877
V22     V     0.5736   0.0728   0.7877
V23     V     0.6772   0.1764   0.3373
V24     V     0.6772   0.1764   0.8373
V25     V     0.3228   0.3236   0.3373
V26     V     0.3228   0.3236   0.8373
V27     V     0.4264   0.4272   0.2877
V28     V     0.4264   0.4272   0.7877
V29     V     0.6772   0.3236   0.3373
V30     V     0.6772   0.3236   0.8373
V31     V     0.5736   0.4272   0.2877
V32     V     0.5736   0.4272   0.7877
V33     V     0.4264   0.9272   0.2123
V34     V     0.4264   0.9272   0.7123
V35     V     0.3228   0.8236   0.1627
V36     V     0.3228   0.8236   0.6627
V37     V     0.6772   0.8236   0.1627
V38     V     0.6772   0.8236   0.6627
V39     V     0.5736   0.9272   0.2123
V40     V     0.5736   0.9272   0.7123
V41     V     0.6772   0.6764   0.1627
V42     V     0.6772   0.6764   0.6627
V43     V     0.5736   0.5728   0.2123
V44     V     0.5736   0.5728   0.7123
V45     V     0.4264   0.5728   0.2123
V46     V     0.4264   0.5728   0.7123
V47     V     0.3228   0.6764   0.1627
V48     V     0.3228   0.6764   0.6627
V49     V     0.0736   0.5728   0.0377
V50     V     0.0736   0.5728   0.5377
V51     V     0.1772   0.6764   0.0873
V52     V     0.1772   0.6764   0.5873
V53     V     0.9264   0.5728   0.0377
V54     V     0.9264   0.5728   0.5377
V55     V     0.8228   0.6764   0.0873
V56     V     0.8228   0.6764   0.5873
V57     V     0.0736   0.9272   0.0377
V58     V     0.0736   0.9272   0.5377
V59     V     0.1772   0.8236   0.0873
V60     V     0.1772   0.8236   0.5873
V61     V     0.9264   0.9272   0.0377
V62     V     0.9264   0.9272   0.5377
V63     V     0.8228   0.8236   0.0873
V64     V     0.8228   0.8236   0.5873
loop_
_geom_bond_atom_site_label_1
_geom_bond_atom_site_label_2
_geom_bond_distance
_geom_bond_site_symmetry_2
_ccdc_geom_bond_type
V1     V3    10.0   .     S
V1     V5    10.0   1_455     S
V1     V2    10.0   1_554     S
V1     V2    10.0   .     S
V1     V58    10.0   1_545     S
V2     V4    10.0   .     S
V2     V6    10.0   1_455     S
V2     V1    10.0   1_556     S
V2     V57    10.0   1_546     S
V3     V9    10.0   .     S
V3     V4    10.0   1_554     S
V3     V4    10.0   .     S
V3     V19    10.0   .     S
V4     V10    10.0   .     S
V4     V3    10.0   1_556     S
V4     V20    10.0   .     S
V5     V7    10.0   .     S
V5     V1    10.0   1_655     S
V5     V6    10.0   1_554     S
V5     V6    10.0   .     S
V5     V62    10.0   1_545     S
V6     V8    10.0   .     S
V6     V2    10.0   1_655     S
V6     V5    10.0   1_556     S
V6     V61    10.0   1_546     S
V7     V13    10.0   .     S
V7     V8    10.0   1_554     S
V7     V8    10.0   .     S
V7     V23    10.0   .     S
V8     V14    10.0   .     S
V8     V7    10.0   1_556     S
V8     V24    10.0   .     S
V9     V11    10.0   .     S
V9     V10    10.0   1_554     S
V9     V10    10.0   .     S
V9     V25    10.0   .     S
V10     V12    10.0   .     S
V10     V9    10.0   1_556     S
V10     V26    10.0   .     S
V11     V15    10.0   1_455     S
V11     V12    10.0   1_554     S
V11     V12    10.0   .     S
V11     V50    10.0   .     S
V12     V16    10.0   1_455     S
V12     V11    10.0   1_556     S
V12     V49    10.0   1_556     S
V13     V15    10.0   .     S
V13     V14    10.0   1_554     S
V13     V14    10.0   .     S
V13     V29    10.0   .     S
V14     V16    10.0   .     S
V14     V13    10.0   1_556     S
V14     V30    10.0   .     S
V15     V11    10.0   1_655     S
V15     V16    10.0   1_554     S
V15     V16    10.0   .     S
V15     V54    10.0   .     S
V16     V12    10.0   1_655     S
V16     V15    10.0   1_556     S
V16     V53    10.0   1_556     S
V17     V19    10.0   .     S
V17     V21    10.0   .     S
V17     V18    10.0   1_554     S
V17     V18    10.0   .     S
V17     V33    10.0   1_545     S
V18     V20    10.0   .     S
V18     V22    10.0   .     S
V18     V17    10.0   1_556     S
V18     V34    10.0   1_545     S
V19     V25    10.0   .     S
V19     V20    10.0   1_554     S
V19     V20    10.0   .     S
V20     V26    10.0   .     S
V20     V19    10.0   1_556     S
V21     V23    10.0   .     S
V21     V22    10.0   1_554     S
V21     V22    10.0   .     S
V21     V39    10.0   1_545     S
V22     V24    10.0   .     S
V22     V21    10.0   1_556     S
V22     V40    10.0   1_545     S
V23     V29    10.0   .     S
V23     V24    10.0   1_554     S
V23     V24    10.0   .     S
V24     V30    10.0   .     S
V24     V23    10.0   1_556     S
V25     V27    10.0   .     S
V25     V26    10.0   1_554     S
V25     V26    10.0   .     S
V26     V28    10.0   .     S
V26     V25    10.0   1_556     S
V27     V31    10.0   .     S
V27     V28    10.0   1_554     S
V27     V28    10.0   .     S
V27     V45    10.0   .     S
V28     V32    10.0   .     S
V28     V27    10.0   1_556     S
V28     V46    10.0   .     S
V29     V31    10.0   .     S
V29     V30    10.0   1_554     S
V29     V30    10.0   .     S
V30     V32    10.0   .     S
V30     V29    10.0   1_556     S
V31     V32    10.0   1_554     S
V31     V32    10.0   .     S
V31     V43    10.0   .     S
V32     V31    10.0   1_556     S
V32     V44    10.0   .     S
V33     V35    10.0   .     S
V33     V39    10.0   .     S
V33     V34    10.0   .     S
V33     V34    10.0   1_554     S
V33     V17    10.0   1_565     S
V34     V36    10.0   .     S
V34     V40    10.0   .     S
V34     V33    10.0   1_556     S
V34     V18    10.0   1_565     S
V35     V47    10.0   .     S
V35     V36    10.0   .     S
V35     V36    10.0   1_554     S
V35     V59    10.0   .     S
V36     V48    10.0   .     S
V36     V35    10.0   1_556     S
V36     V60    10.0   .     S
V37     V39    10.0   .     S
V37     V41    10.0   .     S
V37     V38    10.0   .     S
V37     V38    10.0   1_554     S
V37     V63    10.0   .     S
V38     V40    10.0   .     S
V38     V42    10.0   .     S
V38     V37    10.0   1_556     S
V38     V64    10.0   .     S
V39     V40    10.0   .     S
V39     V40    10.0   1_554     S
V39     V21    10.0   1_565     S
V40     V39    10.0   1_556     S
V40     V22    10.0   1_565     S
V41     V43    10.0   .     S
V41     V42    10.0   .     S
V41     V42    10.0   1_554     S
V41     V55    10.0   .     S
V42     V44    10.0   .     S
V42     V41    10.0   1_556     S
V42     V56    10.0   .     S
V43     V45    10.0   .     S
V43     V44    10.0   .     S
V43     V44    10.0   1_554     S
V44     V46    10.0   .     S
V44     V43    10.0   1_556     S
V45     V47    10.0   .     S
V45     V46    10.0   .     S
V45     V46    10.0   1_554     S
V46     V48    10.0   .     S
V46     V45    10.0   1_556     S
V47     V48    10.0   .     S
V47     V48    10.0   1_554     S
V47     V51    10.0   .     S
V48     V47    10.0   1_556     S
V48     V52    10.0   .     S
V49     V51    10.0   .     S
V49     V53    10.0   1_455     S
V49     V50    10.0   .     S
V49     V50    10.0   1_554     S
V49     V12    10.0   1_554     S
V50     V52    10.0   .     S
V50     V54    10.0   1_455     S
V50     V49    10.0   1_556     S
V51     V59    10.0   .     S
V51     V52    10.0   .     S
V51     V52    10.0   1_554     S
V52     V60    10.0   .     S
V52     V51    10.0   1_556     S
V53     V55    10.0   .     S
V53     V49    10.0   1_655     S
V53     V54    10.0   .     S
V53     V54    10.0   1_554     S
V53     V16    10.0   1_554     S
V54     V56    10.0   .     S
V54     V50    10.0   1_655     S
V54     V53    10.0   1_556     S
V55     V63    10.0   .     S
V55     V56    10.0   .     S
V55     V56    10.0   1_554     S
V56     V64    10.0   .     S
V56     V55    10.0   1_556     S
V57     V59    10.0   .     S
V57     V61    10.0   1_455     S
V57     V58    10.0   .     S
V57     V58    10.0   1_554     S
V57     V2    10.0   1_564     S
V58     V60    10.0   .     S
V58     V62    10.0   1_455     S
V58     V57    10.0   1_556     S
V58     V1    10.0   1_565     S
V59     V60    10.0   .     S
V59     V60    10.0   1_554     S
V60     V59    10.0   1_556     S
V61     V63    10.0   .     S
V61     V57    10.0   1_655     S
V61     V62    10.0   .     S
V61     V62    10.0   1_554     S
V61     V6    10.0   1_564     S
V62     V64    10.0   .     S
V62     V58    10.0   1_655     S
V62     V61    10.0   1_556     S
V62     V5    10.0   1_565     S
V63     V64    10.0   .     S
V63     V64    10.0   1_554     S
V64     V63    10.0   1_556     S
