data_wgd
_audit_creation_date              2020-02-04
_audit_creation_method            'Pymatgen'
_symmetry_space_group_name_H-M    'P1'
_symmetry_Int_Tables_number       1
loop_
_symmetry_equiv_pos_as_xyz
  x,y,z
_cell_length_a                    64.8512
_cell_length_b                    64.8512
_cell_length_c                    20.0
_cell_angle_alpha                 90.0
_cell_angle_beta                 90.0
_cell_angle_gamma                 90.0
loop_
_atom_site_label
_atom_site_type_symbol
_atom_site_fract_x
_atom_site_fract_y
_atom_site_fract_z
V1     V     0.8193   0.6729   0.4848
V2     V     0.8193   0.6729   0.9848
V3     V     0.9229   0.5693   0.1402
V4     V     0.9229   0.5693   0.6402
V5     V     0.8193   0.8271   0.4848
V6     V     0.8193   0.8271   0.9848
V7     V     0.9229   0.9307   0.1402
V8     V     0.9229   0.9307   0.6402
V9     V     0.0771   0.5693   0.1402
V10     V     0.0771   0.5693   0.6402
V11     V     0.1807   0.6729   0.4848
V12     V     0.1807   0.6729   0.9848
V13     V     0.0771   0.9307   0.1402
V14     V     0.0771   0.9307   0.6402
V15     V     0.1807   0.8271   0.4848
V16     V     0.1807   0.8271   0.9848
V17     V     0.4229   0.9307   0.1098
V18     V     0.4229   0.9307   0.6098
V19     V     0.3193   0.8271   0.2652
V20     V     0.3193   0.8271   0.7652
V21     V     0.3193   0.6729   0.2652
V22     V     0.3193   0.6729   0.7652
V23     V     0.4229   0.5693   0.1098
V24     V     0.4229   0.5693   0.6098
V25     V     0.6807   0.6729   0.2652
V26     V     0.6807   0.6729   0.7652
V27     V     0.5771   0.5693   0.1098
V28     V     0.5771   0.5693   0.6098
V29     V     0.5771   0.9307   0.1098
V30     V     0.5771   0.9307   0.6098
V31     V     0.6807   0.8271   0.2652
V32     V     0.6807   0.8271   0.7652
V33     V     0.6807   0.3271   0.2348
V34     V     0.6807   0.3271   0.7348
V35     V     0.5771   0.4307   0.3902
V36     V     0.5771   0.4307   0.8902
V37     V     0.3193   0.3271   0.2348
V38     V     0.3193   0.3271   0.7348
V39     V     0.4229   0.4307   0.3902
V40     V     0.4229   0.4307   0.8902
V41     V     0.4229   0.0693   0.3902
V42     V     0.4229   0.0693   0.8902
V43     V     0.3193   0.1729   0.2348
V44     V     0.3193   0.1729   0.7348
V45     V     0.5771   0.0693   0.3902
V46     V     0.5771   0.0693   0.8902
V47     V     0.6807   0.1729   0.2348
V48     V     0.6807   0.1729   0.7348
V49     V     0.1807   0.3271   0.0152
V50     V     0.1807   0.3271   0.5152
V51     V     0.0771   0.4307   0.3598
V52     V     0.0771   0.4307   0.8598
V53     V     0.1807   0.1729   0.0152
V54     V     0.1807   0.1729   0.5152
V55     V     0.0771   0.0693   0.3598
V56     V     0.0771   0.0693   0.8598
V57     V     0.8193   0.3271   0.0152
V58     V     0.8193   0.3271   0.5152
V59     V     0.9229   0.4307   0.3598
V60     V     0.9229   0.4307   0.8598
V61     V     0.9229   0.0693   0.3598
V62     V     0.9229   0.0693   0.8598
V63     V     0.8193   0.1729   0.0152
V64     V     0.8193   0.1729   0.5152
loop_
_geom_bond_atom_site_label_1
_geom_bond_atom_site_label_2
_geom_bond_distance
_geom_bond_site_symmetry_2
_ccdc_geom_bond_type
V1     V4    10.0   .     S
V1     V2    10.0   1_554     S
V1     V2    10.0   .     S
V1     V5    10.0   .     S
V1     V25    10.0   .     S
V2     V3    10.0   1_556     S
V2     V1    10.0   1_556     S
V2     V6    10.0   .     S
V2     V26    10.0   .     S
V3     V2    10.0   1_554     S
V3     V4    10.0   .     S
V3     V4    10.0   1_554     S
V3     V9    10.0   1_655     S
V3     V59    10.0   .     S
V4     V3    10.0   1_556     S
V4     V10    10.0   1_655     S
V4     V60    10.0   .     S
V5     V8    10.0   .     S
V5     V6    10.0   1_554     S
V5     V6    10.0   .     S
V5     V31    10.0   .     S
V6     V7    10.0   1_556     S
V6     V5    10.0   1_556     S
V6     V32    10.0   .     S
V7     V6    10.0   1_554     S
V7     V8    10.0   .     S
V7     V8    10.0   1_554     S
V7     V13    10.0   1_655     S
V7     V61    10.0   1_565     S
V8     V7    10.0   1_556     S
V8     V14    10.0   1_655     S
V8     V62    10.0   1_565     S
V9     V3    10.0   1_455     S
V9     V12    10.0   1_554     S
V9     V10    10.0   .     S
V9     V10    10.0   1_554     S
V9     V51    10.0   .     S
V10     V4    10.0   1_455     S
V10     V11    10.0   .     S
V10     V9    10.0   1_556     S
V10     V52    10.0   .     S
V11     V12    10.0   1_554     S
V11     V12    10.0   .     S
V11     V15    10.0   .     S
V11     V21    10.0   .     S
V12     V9    10.0   1_556     S
V12     V11    10.0   1_556     S
V12     V16    10.0   .     S
V12     V22    10.0   .     S
V13     V7    10.0   1_455     S
V13     V16    10.0   1_554     S
V13     V14    10.0   .     S
V13     V14    10.0   1_554     S
V13     V55    10.0   1_565     S
V14     V8    10.0   1_455     S
V14     V15    10.0   .     S
V14     V13    10.0   1_556     S
V14     V56    10.0   1_565     S
V15     V16    10.0   1_554     S
V15     V16    10.0   .     S
V15     V19    10.0   .     S
V16     V13    10.0   1_556     S
V16     V15    10.0   1_556     S
V16     V20    10.0   .     S
V17     V19    10.0   .     S
V17     V18    10.0   .     S
V17     V18    10.0   1_554     S
V17     V29    10.0   .     S
V17     V42    10.0   1_564     S
V18     V20    10.0   .     S
V18     V17    10.0   1_556     S
V18     V30    10.0   .     S
V18     V41    10.0   1_565     S
V19     V20    10.0   1_554     S
V19     V20    10.0   .     S
V19     V21    10.0   .     S
V20     V19    10.0   1_556     S
V20     V22    10.0   .     S
V21     V23    10.0   .     S
V21     V22    10.0   1_554     S
V21     V22    10.0   .     S
V22     V24    10.0   .     S
V22     V21    10.0   1_556     S
V23     V24    10.0   .     S
V23     V24    10.0   1_554     S
V23     V27    10.0   .     S
V23     V40    10.0   1_554     S
V24     V23    10.0   1_556     S
V24     V28    10.0   .     S
V24     V39    10.0   .     S
V25     V27    10.0   .     S
V25     V26    10.0   1_554     S
V25     V26    10.0   .     S
V25     V31    10.0   .     S
V26     V28    10.0   .     S
V26     V25    10.0   1_556     S
V26     V32    10.0   .     S
V27     V28    10.0   .     S
V27     V28    10.0   1_554     S
V27     V36    10.0   1_554     S
V28     V27    10.0   1_556     S
V28     V35    10.0   .     S
V29     V31    10.0   .     S
V29     V30    10.0   .     S
V29     V30    10.0   1_554     S
V29     V46    10.0   1_564     S
V30     V32    10.0   .     S
V30     V29    10.0   1_556     S
V30     V45    10.0   1_565     S
V31     V32    10.0   1_554     S
V31     V32    10.0   .     S
V32     V31    10.0   1_556     S
V33     V35    10.0   .     S
V33     V34    10.0   .     S
V33     V34    10.0   1_554     S
V33     V47    10.0   .     S
V33     V57    10.0   .     S
V34     V36    10.0   .     S
V34     V33    10.0   1_556     S
V34     V48    10.0   .     S
V34     V58    10.0   .     S
V35     V36    10.0   1_554     S
V35     V36    10.0   .     S
V35     V39    10.0   .     S
V36     V35    10.0   1_556     S
V36     V40    10.0   .     S
V36     V27    10.0   1_556     S
V37     V39    10.0   .     S
V37     V38    10.0   .     S
V37     V38    10.0   1_554     S
V37     V43    10.0   .     S
V37     V49    10.0   .     S
V38     V40    10.0   .     S
V38     V37    10.0   1_556     S
V38     V44    10.0   .     S
V38     V50    10.0   .     S
V39     V40    10.0   1_554     S
V39     V40    10.0   .     S
V40     V39    10.0   1_556     S
V40     V23    10.0   1_556     S
V41     V43    10.0   .     S
V41     V42    10.0   1_554     S
V41     V42    10.0   .     S
V41     V45    10.0   .     S
V41     V18    10.0   1_545     S
V42     V44    10.0   .     S
V42     V41    10.0   1_556     S
V42     V46    10.0   .     S
V42     V17    10.0   1_546     S
V43     V44    10.0   .     S
V43     V44    10.0   1_554     S
V43     V53    10.0   .     S
V44     V43    10.0   1_556     S
V44     V54    10.0   .     S
V45     V47    10.0   .     S
V45     V46    10.0   1_554     S
V45     V46    10.0   .     S
V45     V30    10.0   1_545     S
V46     V48    10.0   .     S
V46     V45    10.0   1_556     S
V46     V29    10.0   1_546     S
V47     V48    10.0   .     S
V47     V48    10.0   1_554     S
V47     V63    10.0   .     S
V48     V47    10.0   1_556     S
V48     V64    10.0   .     S
V49     V52    10.0   1_554     S
V49     V50    10.0   .     S
V49     V50    10.0   1_554     S
V49     V53    10.0   .     S
V50     V51    10.0   .     S
V50     V49    10.0   1_556     S
V50     V54    10.0   .     S
V51     V52    10.0   1_554     S
V51     V52    10.0   .     S
V51     V59    10.0   1_455     S
V52     V49    10.0   1_556     S
V52     V51    10.0   1_556     S
V52     V60    10.0   1_455     S
V53     V56    10.0   1_554     S
V53     V54    10.0   .     S
V53     V54    10.0   1_554     S
V54     V55    10.0   .     S
V54     V53    10.0   1_556     S
V55     V56    10.0   1_554     S
V55     V56    10.0   .     S
V55     V61    10.0   1_455     S
V55     V13    10.0   1_545     S
V56     V53    10.0   1_556     S
V56     V55    10.0   1_556     S
V56     V62    10.0   1_455     S
V56     V14    10.0   1_545     S
V57     V60    10.0   1_554     S
V57     V58    10.0   .     S
V57     V58    10.0   1_554     S
V57     V63    10.0   .     S
V58     V59    10.0   .     S
V58     V57    10.0   1_556     S
V58     V64    10.0   .     S
V59     V60    10.0   1_554     S
V59     V60    10.0   .     S
V59     V51    10.0   1_655     S
V60     V57    10.0   1_556     S
V60     V59    10.0   1_556     S
V60     V52    10.0   1_655     S
V61     V64    10.0   .     S
V61     V62    10.0   1_554     S
V61     V62    10.0   .     S
V61     V55    10.0   1_655     S
V61     V7    10.0   1_545     S
V62     V63    10.0   1_556     S
V62     V61    10.0   1_556     S
V62     V56    10.0   1_655     S
V62     V8    10.0   1_545     S
V63     V62    10.0   1_554     S
V63     V64    10.0   .     S
V63     V64    10.0   1_554     S
V64     V63    10.0   1_556     S
