data_wge
_audit_creation_date              2020-02-04
_audit_creation_method            'Pymatgen'
_symmetry_space_group_name_H-M    'P1'
_symmetry_Int_Tables_number       1
loop_
_symmetry_equiv_pos_as_xyz
  x,y,z
_cell_length_a                    42.7469
_cell_length_b                    42.7469
_cell_length_c                    23.0667
_cell_angle_alpha                 90.0
_cell_angle_beta                 90.0
_cell_angle_gamma                 90.0
loop_
_atom_site_label
_atom_site_type_symbol
_atom_site_fract_x
_atom_site_fract_y
_atom_site_fract_z
V1     V     0.883   0.4762   0.7122
V2     V     0.7262   0.367   0.4622
V3     V     0.617   0.5238   0.2122
V4     V     0.7738   0.633   0.9622
V5     V     0.7738   0.367   0.0378
V6     V     0.883   0.5238   0.2878
V7     V     0.7262   0.633   0.5378
V8     V     0.617   0.4762   0.7878
V9     V     0.617   0.0238   0.7878
V10     V     0.7738   0.133   0.0378
V11     V     0.883   0.9762   0.2878
V12     V     0.7262   0.867   0.5378
V13     V     0.7738   0.867   0.9622
V14     V     0.617   0.9762   0.2122
V15     V     0.7262   0.133   0.4622
V16     V     0.883   0.0238   0.7122
V17     V     0.2262   0.633   0.9622
V18     V     0.2738   0.367   0.4622
V19     V     0.383   0.5238   0.2122
V20     V     0.117   0.4762   0.7122
V21     V     0.2262   0.367   0.0378
V22     V     0.117   0.5238   0.2878
V23     V     0.2738   0.633   0.5378
V24     V     0.383   0.4762   0.7878
V25     V     0.2738   0.867   0.5378
V26     V     0.117   0.9762   0.2878
V27     V     0.2262   0.133   0.0378
V28     V     0.383   0.0238   0.7878
V29     V     0.2262   0.867   0.9622
V30     V     0.117   0.0238   0.7122
V31     V     0.383   0.9762   0.2122
V32     V     0.2738   0.133   0.4622
loop_
_geom_bond_atom_site_label_1
_geom_bond_atom_site_label_2
_geom_bond_distance
_geom_bond_site_symmetry_2
_ccdc_geom_bond_type
V1     V4    10.0   .     S
V1     V2    10.0   .     S
V1     V6    10.0   .     S
V1     V5    10.0   1_556     S
V1     V20    10.0   1_655     S
V2     V3    10.0   .     S
V2     V5    10.0   .     S
V2     V8    10.0   .     S
V2     V15    10.0   .     S
V3     V4    10.0   1_554     S
V3     V8    10.0   1_554     S
V3     V7    10.0   .     S
V3     V19    10.0   .     S
V4     V3    10.0   1_556     S
V4     V7    10.0   .     S
V4     V6    10.0   1_556     S
V4     V13    10.0   .     S
V5     V8    10.0   1_554     S
V5     V6    10.0   .     S
V5     V1    10.0   1_554     S
V5     V10    10.0   .     S
V6     V7    10.0   .     S
V6     V4    10.0   1_554     S
V6     V22    10.0   1_655     S
V7     V8    10.0   .     S
V7     V12    10.0   .     S
V8     V3    10.0   1_556     S
V8     V5    10.0   1_556     S
V8     V24    10.0   .     S
V9     V10    10.0   1_556     S
V9     V12    10.0   1_545     S
V9     V14    10.0   1_546     S
V9     V15    10.0   .     S
V9     V28    10.0   .     S
V10     V9    10.0   1_554     S
V10     V11    10.0   1_545     S
V10     V15    10.0   .     S
V10     V16    10.0   1_554     S
V11     V10    10.0   1_565     S
V11     V12    10.0   .     S
V11     V16    10.0   1_565     S
V11     V13    10.0   1_554     S
V11     V26    10.0   1_655     S
V12     V9    10.0   1_565     S
V12     V13    10.0   .     S
V12     V14    10.0   .     S
V13     V14    10.0   1_556     S
V13     V16    10.0   1_565     S
V13     V11    10.0   1_556     S
V14     V13    10.0   1_554     S
V14     V15    10.0   1_565     S
V14     V9    10.0   1_564     S
V14     V31    10.0   .     S
V15     V14    10.0   1_545     S
V15     V16    10.0   .     S
V16     V13    10.0   1_545     S
V16     V11    10.0   1_545     S
V16     V10    10.0   1_556     S
V16     V30    10.0   1_655     S
V17     V20    10.0   .     S
V17     V19    10.0   1_556     S
V17     V23    10.0   .     S
V17     V22    10.0   1_556     S
V17     V29    10.0   .     S
V18     V19    10.0   .     S
V18     V20    10.0   .     S
V18     V21    10.0   .     S
V18     V24    10.0   .     S
V18     V32    10.0   .     S
V19     V17    10.0   1_554     S
V19     V24    10.0   1_554     S
V19     V23    10.0   .     S
V20     V22    10.0   .     S
V20     V21    10.0   1_556     S
V20     V1    10.0   1_455     S
V21     V22    10.0   .     S
V21     V24    10.0   1_554     S
V21     V20    10.0   1_554     S
V21     V27    10.0   .     S
V22     V23    10.0   .     S
V22     V17    10.0   1_554     S
V22     V6    10.0   1_455     S
V23     V24    10.0   .     S
V23     V25    10.0   .     S
V24     V21    10.0   1_556     S
V24     V19    10.0   1_556     S
V25     V26    10.0   .     S
V25     V28    10.0   1_565     S
V25     V29    10.0   .     S
V25     V31    10.0   .     S
V26     V27    10.0   1_565     S
V26     V30    10.0   1_565     S
V26     V29    10.0   1_554     S
V26     V11    10.0   1_455     S
V27     V26    10.0   1_545     S
V27     V28    10.0   1_554     S
V27     V32    10.0   .     S
V27     V30    10.0   1_554     S
V28     V25    10.0   1_545     S
V28     V27    10.0   1_556     S
V28     V31    10.0   1_546     S
V28     V32    10.0   .     S
V29     V30    10.0   1_565     S
V29     V31    10.0   1_556     S
V29     V26    10.0   1_556     S
V30     V26    10.0   1_545     S
V30     V29    10.0   1_545     S
V30     V32    10.0   .     S
V30     V27    10.0   1_556     S
V30     V16    10.0   1_455     S
V31     V28    10.0   1_564     S
V31     V29    10.0   1_554     S
V31     V32    10.0   1_565     S
V32     V31    10.0   1_545     S
