data_wgf
_audit_creation_date              2020-02-04
_audit_creation_method            'Pymatgen'
_symmetry_space_group_name_H-M    'P1'
_symmetry_Int_Tables_number       1
loop_
_symmetry_equiv_pos_as_xyz
  x,y,z
_cell_length_a                    56.2311
_cell_length_b                    56.2311
_cell_length_c                    13.455
_cell_angle_alpha                 90.0
_cell_angle_beta                 90.0
_cell_angle_gamma                 90.0
loop_
_atom_site_label
_atom_site_type_symbol
_atom_site_fract_x
_atom_site_fract_y
_atom_site_fract_z
V1     V     0.0658   0.5658   0.0
V2     V     0.1842   0.6842   0.75
V3     V     0.4342   0.5658   0.0
V4     V     0.3158   0.6842   0.25
V5     V     0.9342   0.5658   0.5
V6     V     0.8158   0.6842   0.25
V7     V     0.5658   0.5658   0.5
V8     V     0.6842   0.6842   0.75
V9     V     0.5658   0.4342   0.0
V10     V     0.6842   0.3158   0.75
V11     V     0.5658   0.9342   0.0
V12     V     0.6842   0.8158   0.25
V13     V     0.5658   0.0658   0.5
V14     V     0.6842   0.1842   0.25
V15     V     0.3158   0.3158   0.25
V16     V     0.4342   0.4342   0.5
V17     V     0.0658   0.4342   0.5
V18     V     0.1842   0.3158   0.75
V19     V     0.9342   0.4342   0.0
V20     V     0.8158   0.3158   0.25
V21     V     0.9342   0.0658   0.5
V22     V     0.8158   0.1842   0.75
V23     V     0.9342   0.9342   0.0
V24     V     0.8158   0.8158   0.75
V25     V     0.0658   0.9342   0.5
V26     V     0.1842   0.8158   0.25
V27     V     0.4342   0.9342   0.5
V28     V     0.3158   0.8158   0.75
V29     V     0.0658   0.0658   0.0
V30     V     0.1842   0.1842   0.25
V31     V     0.4342   0.0658   0.0
V32     V     0.3158   0.1842   0.75
loop_
_geom_bond_atom_site_label_1
_geom_bond_atom_site_label_2
_geom_bond_distance
_geom_bond_site_symmetry_2
_ccdc_geom_bond_type
V1     V2    10.0   1_554     S
V1     V5    10.0   1_454     S
V1     V5    10.0   1_455     S
V1     V17    10.0   .     S
V1     V17    10.0   1_554     S
V2     V1    10.0   1_556     S
V2     V4    10.0   .     S
V2     V4    10.0   1_556     S
V2     V26    10.0   1_556     S
V2     V26    10.0   .     S
V3     V4    10.0   .     S
V3     V16    10.0   1_554     S
V3     V7    10.0   .     S
V3     V7    10.0   1_554     S
V3     V16    10.0   .     S
V4     V2    10.0   1_554     S
V4     V28    10.0   1_554     S
V4     V28    10.0   .     S
V5     V1    10.0   1_656     S
V5     V1    10.0   1_655     S
V5     V6    10.0   .     S
V5     V19    10.0   1_556     S
V5     V19    10.0   .     S
V6     V8    10.0   1_554     S
V6     V24    10.0   .     S
V6     V24    10.0   1_554     S
V6     V8    10.0   .     S
V7     V8    10.0   .     S
V7     V9    10.0   .     S
V7     V3    10.0   1_556     S
V7     V9    10.0   1_556     S
V8     V6    10.0   1_556     S
V8     V12    10.0   .     S
V8     V12    10.0   1_556     S
V9     V10    10.0   1_554     S
V9     V16    10.0   .     S
V9     V16    10.0   1_554     S
V9     V7    10.0   1_554     S
V10     V9    10.0   1_556     S
V10     V14    10.0   1_556     S
V10     V14    10.0   .     S
V10     V20    10.0   .     S
V10     V20    10.0   1_556     S
V11     V12    10.0   .     S
V11     V13    10.0   1_564     S
V11     V13    10.0   1_565     S
V11     V27    10.0   .     S
V11     V27    10.0   1_554     S
V12     V24    10.0   .     S
V12     V8    10.0   1_554     S
V12     V24    10.0   1_554     S
V13     V14    10.0   .     S
V13     V11    10.0   1_546     S
V13     V11    10.0   1_545     S
V13     V31    10.0   .     S
V13     V31    10.0   1_556     S
V14     V10    10.0   1_554     S
V14     V22    10.0   1_554     S
V14     V22    10.0   .     S
V15     V16    10.0   .     S
V15     V18    10.0   1_554     S
V15     V18    10.0   .     S
V15     V32    10.0   .     S
V15     V32    10.0   1_554     S
V16     V3    10.0   1_556     S
V16     V9    10.0   1_556     S
V17     V18    10.0   .     S
V17     V19    10.0   1_456     S
V17     V19    10.0   1_455     S
V17     V1    10.0   1_556     S
V18     V15    10.0   1_556     S
V18     V30    10.0   .     S
V18     V30    10.0   1_556     S
V19     V17    10.0   1_654     S
V19     V17    10.0   1_655     S
V19     V20    10.0   .     S
V19     V5    10.0   1_554     S
V20     V22    10.0   1_554     S
V20     V22    10.0   .     S
V20     V10    10.0   1_554     S
V21     V22    10.0   .     S
V21     V23    10.0   1_545     S
V21     V23    10.0   1_546     S
V21     V29    10.0   1_656     S
V21     V29    10.0   1_655     S
V22     V20    10.0   1_556     S
V22     V14    10.0   1_556     S
V23     V21    10.0   1_565     S
V23     V21    10.0   1_564     S
V23     V24    10.0   1_554     S
V23     V25    10.0   1_654     S
V23     V25    10.0   1_655     S
V24     V23    10.0   1_556     S
V24     V6    10.0   1_556     S
V24     V12    10.0   1_556     S
V25     V26    10.0   .     S
V25     V23    10.0   1_456     S
V25     V23    10.0   1_455     S
V25     V29    10.0   1_566     S
V25     V29    10.0   1_565     S
V26     V28    10.0   1_554     S
V26     V28    10.0   .     S
V26     V2    10.0   1_554     S
V27     V28    10.0   .     S
V27     V31    10.0   1_565     S
V27     V31    10.0   1_566     S
V27     V11    10.0   1_556     S
V28     V26    10.0   1_556     S
V28     V4    10.0   1_556     S
V29     V30    10.0   .     S
V29     V25    10.0   1_544     S
V29     V21    10.0   1_454     S
V29     V21    10.0   1_455     S
V29     V25    10.0   1_545     S
V30     V32    10.0   .     S
V30     V18    10.0   1_554     S
V30     V32    10.0   1_554     S
V31     V32    10.0   1_554     S
V31     V27    10.0   1_545     S
V31     V27    10.0   1_544     S
V31     V13    10.0   1_554     S
V32     V30    10.0   1_556     S
V32     V31    10.0   1_556     S
V32     V15    10.0   1_556     S
