data_wgh
_audit_creation_date              2020-02-04
_audit_creation_method            'Pymatgen'
_symmetry_space_group_name_H-M    'P1'
_symmetry_Int_Tables_number       1
loop_
_symmetry_equiv_pos_as_xyz
  x,y,z
_cell_length_a                    55.7054
_cell_length_b                    55.7054
_cell_length_c                    12.956
_cell_angle_alpha                 90.0
_cell_angle_beta                 90.0
_cell_angle_gamma                 90.0
loop_
_atom_site_label
_atom_site_type_symbol
_atom_site_fract_x
_atom_site_fract_y
_atom_site_fract_z
V1     V     0.4316   0.9151   0.375
V2     V     0.3349   0.8184   0.875
V3     V     0.1651   0.8184   0.125
V4     V     0.0684   0.9151   0.625
V5     V     0.4316   0.0849   0.125
V6     V     0.3349   0.1816   0.625
V7     V     0.1651   0.1816   0.375
V8     V     0.0684   0.0849   0.875
V9     V     0.6651   0.8184   0.375
V10     V     0.5684   0.9151   0.875
V11     V     0.9316   0.9151   0.125
V12     V     0.8349   0.8184   0.625
V13     V     0.6651   0.1816   0.125
V14     V     0.5684   0.0849   0.625
V15     V     0.9316   0.0849   0.375
V16     V     0.8349   0.1816   0.875
V17     V     0.9316   0.4151   0.875
V18     V     0.8349   0.3184   0.375
V19     V     0.5684   0.4151   0.125
V20     V     0.6651   0.3184   0.625
V21     V     0.6651   0.6816   0.875
V22     V     0.5684   0.5849   0.375
V23     V     0.8349   0.6816   0.125
V24     V     0.9316   0.5849   0.625
V25     V     0.4316   0.4151   0.625
V26     V     0.3349   0.3184   0.125
V27     V     0.1651   0.3184   0.875
V28     V     0.0684   0.4151   0.375
V29     V     0.1651   0.6816   0.625
V30     V     0.0684   0.5849   0.125
V31     V     0.3349   0.6816   0.375
V32     V     0.4316   0.5849   0.875
loop_
_geom_bond_atom_site_label_1
_geom_bond_atom_site_label_2
_geom_bond_distance
_geom_bond_site_symmetry_2
_ccdc_geom_bond_type
V1     V2    10.0   1_554     S
V1     V2    10.0   .     S
V1     V5    10.0   1_565     S
V1     V10    10.0   .     S
V1     V10    10.0   1_554     S
V2     V1    10.0   1_556     S
V2     V3    10.0   1_556     S
V2     V31    10.0   .     S
V2     V31    10.0   1_556     S
V3     V4    10.0   .     S
V3     V4    10.0   1_554     S
V3     V2    10.0   1_554     S
V3     V29    10.0   .     S
V3     V29    10.0   1_554     S
V4     V3    10.0   1_556     S
V4     V8    10.0   1_565     S
V4     V11    10.0   1_455     S
V4     V11    10.0   1_456     S
V5     V1    10.0   1_545     S
V5     V6    10.0   .     S
V5     V6    10.0   1_554     S
V5     V14    10.0   .     S
V5     V14    10.0   1_554     S
V6     V5    10.0   1_556     S
V6     V7    10.0   .     S
V6     V26    10.0   .     S
V6     V26    10.0   1_556     S
V7     V8    10.0   .     S
V7     V8    10.0   1_554     S
V7     V27    10.0   1_554     S
V7     V27    10.0   .     S
V8     V4    10.0   1_545     S
V8     V7    10.0   1_556     S
V8     V15    10.0   1_456     S
V8     V15    10.0   1_455     S
V9     V10    10.0   .     S
V9     V10    10.0   1_554     S
V9     V12    10.0   .     S
V9     V21    10.0   1_554     S
V9     V21    10.0   .     S
V10     V9    10.0   1_556     S
V10     V14    10.0   1_565     S
V10     V1    10.0   1_556     S
V11     V12    10.0   .     S
V11     V12    10.0   1_554     S
V11     V15    10.0   1_565     S
V11     V4    10.0   1_655     S
V11     V4    10.0   1_654     S
V12     V11    10.0   1_556     S
V12     V23    10.0   1_556     S
V12     V23    10.0   .     S
V13     V14    10.0   .     S
V13     V14    10.0   1_554     S
V13     V16    10.0   1_554     S
V13     V20    10.0   .     S
V13     V20    10.0   1_554     S
V14     V10    10.0   1_545     S
V14     V13    10.0   1_556     S
V14     V5    10.0   1_556     S
V15     V11    10.0   1_545     S
V15     V16    10.0   1_554     S
V15     V16    10.0   .     S
V15     V8    10.0   1_654     S
V15     V8    10.0   1_655     S
V16     V15    10.0   1_556     S
V16     V13    10.0   1_556     S
V16     V18    10.0   .     S
V16     V18    10.0   1_556     S
V17     V18    10.0   .     S
V17     V18    10.0   1_556     S
V17     V24    10.0   .     S
V17     V28    10.0   1_656     S
V17     V28    10.0   1_655     S
V18     V17    10.0   1_554     S
V18     V20    10.0   .     S
V18     V16    10.0   1_554     S
V19     V20    10.0   .     S
V19     V20    10.0   1_554     S
V19     V22    10.0   .     S
V19     V25    10.0   .     S
V19     V25    10.0   1_554     S
V20     V19    10.0   1_556     S
V20     V13    10.0   1_556     S
V21     V9    10.0   1_556     S
V21     V22    10.0   1_556     S
V21     V22    10.0   .     S
V21     V23    10.0   1_556     S
V22     V21    10.0   1_554     S
V22     V32    10.0   .     S
V22     V32    10.0   1_554     S
V23     V12    10.0   1_554     S
V23     V24    10.0   .     S
V23     V24    10.0   1_554     S
V23     V21    10.0   1_554     S
V24     V23    10.0   1_556     S
V24     V30    10.0   1_655     S
V24     V30    10.0   1_656     S
V25     V26    10.0   .     S
V25     V26    10.0   1_556     S
V25     V32    10.0   .     S
V25     V19    10.0   1_556     S
V26     V25    10.0   1_554     S
V26     V27    10.0   1_554     S
V26     V6    10.0   1_554     S
V27     V28    10.0   1_556     S
V27     V28    10.0   .     S
V27     V26    10.0   1_556     S
V27     V7    10.0   1_556     S
V28     V17    10.0   1_454     S
V28     V17    10.0   1_455     S
V28     V27    10.0   1_554     S
V28     V30    10.0   .     S
V29     V3    10.0   1_556     S
V29     V30    10.0   .     S
V29     V30    10.0   1_556     S
V29     V31    10.0   .     S
V30     V24    10.0   1_455     S
V30     V24    10.0   1_454     S
V30     V29    10.0   1_554     S
V31     V2    10.0   1_554     S
V31     V32    10.0   .     S
V31     V32    10.0   1_554     S
V32     V31    10.0   1_556     S
V32     V22    10.0   1_556     S
