data_wgi
_audit_creation_date              2020-02-04
_audit_creation_method            'Pymatgen'
_symmetry_space_group_name_H-M    'P1'
_symmetry_Int_Tables_number       1
loop_
_symmetry_equiv_pos_as_xyz
  x,y,z
_cell_length_a                    43.1184
_cell_length_b                    43.1184
_cell_length_c                    17.9453
_cell_angle_alpha                 90.0
_cell_angle_beta                 90.0
_cell_angle_gamma                 90.0
loop_
_atom_site_label
_atom_site_type_symbol
_atom_site_fract_x
_atom_site_fract_y
_atom_site_fract_z
V1     V     0.6464   0.676   0.875
V2     V     0.8536   0.676   0.125
V3     V     0.926   0.6036   0.625
V4     V     0.926   0.3964   0.875
V5     V     0.574   0.6036   0.375
V6     V     0.574   0.3964   0.125
V7     V     0.6464   0.324   0.625
V8     V     0.8536   0.324   0.375
V9     V     0.926   0.1036   0.375
V10     V     0.926   0.8964   0.125
V11     V     0.6464   0.176   0.125
V12     V     0.8536   0.176   0.875
V13     V     0.6464   0.824   0.375
V14     V     0.8536   0.824   0.625
V15     V     0.574   0.1036   0.625
V16     V     0.574   0.8964   0.875
V17     V     0.426   0.1036   0.125
V18     V     0.426   0.8964   0.375
V19     V     0.1464   0.824   0.125
V20     V     0.3536   0.824   0.875
V21     V     0.3536   0.176   0.625
V22     V     0.1464   0.176   0.375
V23     V     0.074   0.1036   0.875
V24     V     0.074   0.8964   0.625
V25     V     0.3536   0.676   0.375
V26     V     0.1464   0.676   0.625
V27     V     0.3536   0.324   0.125
V28     V     0.1464   0.324   0.875
V29     V     0.426   0.3964   0.625
V30     V     0.426   0.6036   0.875
V31     V     0.074   0.3964   0.375
V32     V     0.074   0.6036   0.125
loop_
_geom_bond_atom_site_label_1
_geom_bond_atom_site_label_2
_geom_bond_distance
_geom_bond_site_symmetry_2
_ccdc_geom_bond_type
V1     V2    10.0   1_556     S
V1     V16    10.0   .     S
V1     V5    10.0   1_556     S
V1     V5    10.0   .     S
V1     V30    10.0   .     S
V2     V1    10.0   1_554     S
V2     V10    10.0   .     S
V2     V3    10.0   .     S
V2     V3    10.0   1_554     S
V2     V32    10.0   1_655     S
V3     V4    10.0   .     S
V3     V26    10.0   1_655     S
V3     V2    10.0   1_556     S
V3     V14    10.0   .     S
V4     V28    10.0   1_655     S
V4     V8    10.0   1_556     S
V4     V8    10.0   .     S
V4     V12    10.0   .     S
V5     V6    10.0   .     S
V5     V25    10.0   .     S
V5     V1    10.0   1_554     S
V5     V13    10.0   .     S
V6     V27    10.0   .     S
V6     V7    10.0   .     S
V6     V7    10.0   1_554     S
V6     V11    10.0   .     S
V7     V8    10.0   .     S
V7     V15    10.0   .     S
V7     V6    10.0   1_556     S
V7     V29    10.0   .     S
V8     V9    10.0   .     S
V8     V4    10.0   1_554     S
V8     V31    10.0   1_655     S
V9     V10    10.0   1_545     S
V9     V22    10.0   1_655     S
V9     V12    10.0   1_554     S
V9     V12    10.0   .     S
V10     V9    10.0   1_565     S
V10     V19    10.0   1_655     S
V10     V14    10.0   .     S
V10     V14    10.0   1_554     S
V11     V12    10.0   1_554     S
V11     V15    10.0   .     S
V11     V15    10.0   1_554     S
V11     V17    10.0   .     S
V12     V9    10.0   1_556     S
V12     V11    10.0   1_556     S
V12     V23    10.0   1_655     S
V13     V14    10.0   .     S
V13     V16    10.0   .     S
V13     V16    10.0   1_554     S
V13     V18    10.0   .     S
V14     V10    10.0   1_556     S
V14     V24    10.0   1_655     S
V15     V16    10.0   1_545     S
V15     V21    10.0   .     S
V15     V11    10.0   1_556     S
V16     V15    10.0   1_565     S
V16     V20    10.0   .     S
V16     V13    10.0   1_556     S
V17     V18    10.0   1_545     S
V17     V21    10.0   .     S
V17     V21    10.0   1_554     S
V17     V27    10.0   .     S
V18     V17    10.0   1_565     S
V18     V20    10.0   1_554     S
V18     V20    10.0   .     S
V18     V25    10.0   .     S
V19     V10    10.0   1_455     S
V19     V20    10.0   1_554     S
V19     V32    10.0   .     S
V19     V24    10.0   1_554     S
V19     V24    10.0   .     S
V20     V18    10.0   1_556     S
V20     V19    10.0   1_556     S
V20     V30    10.0   .     S
V21     V17    10.0   1_556     S
V21     V22    10.0   .     S
V21     V29    10.0   .     S
V22     V9    10.0   1_455     S
V22     V31    10.0   .     S
V22     V23    10.0   1_554     S
V22     V23    10.0   .     S
V23     V22    10.0   1_556     S
V23     V24    10.0   1_545     S
V23     V12    10.0   1_455     S
V23     V28    10.0   .     S
V24     V23    10.0   1_565     S
V24     V14    10.0   1_455     S
V24     V19    10.0   1_556     S
V24     V26    10.0   .     S
V25     V26    10.0   .     S
V25     V30    10.0   .     S
V25     V30    10.0   1_554     S
V26     V3    10.0   1_455     S
V26     V32    10.0   .     S
V26     V32    10.0   1_556     S
V27     V28    10.0   1_554     S
V27     V29    10.0   1_554     S
V27     V29    10.0   .     S
V28     V4    10.0   1_455     S
V28     V27    10.0   1_556     S
V28     V31    10.0   .     S
V28     V31    10.0   1_556     S
V29     V30    10.0   .     S
V29     V27    10.0   1_556     S
V30     V25    10.0   1_556     S
V31     V32    10.0   .     S
V31     V8    10.0   1_455     S
V31     V28    10.0   1_554     S
V32     V2    10.0   1_455     S
V32     V26    10.0   1_554     S
