data_wgk
_audit_creation_date              2020-02-04
_audit_creation_method            'Pymatgen'
_symmetry_space_group_name_H-M    'P1'
_symmetry_Int_Tables_number       1
loop_
_symmetry_equiv_pos_as_xyz
  x,y,z
_cell_length_a                    32.2963
_cell_length_b                    32.2963
_cell_length_c                    32.9824
_cell_angle_alpha                 90.0
_cell_angle_beta                 90.0
_cell_angle_gamma                 90.0
loop_
_atom_site_label
_atom_site_type_symbol
_atom_site_fract_x
_atom_site_fract_y
_atom_site_fract_z
V1     V     0.8678   0.8472   0.7253
V2     V     0.8678   0.1528   0.7747
V3     V     0.5973   0.1178   0.5247
V4     V     0.9028   0.1178   0.4754
V5     V     0.5973   0.8822   0.9754
V6     V     0.9028   0.8822   0.0246
V7     V     0.6322   0.8472   0.2746
V8     V     0.6322   0.1528   0.2254
V9     V     0.0972   0.8822   0.5246
V10     V     0.4028   0.8822   0.4754
V11     V     0.3678   0.8472   0.7746
V12     V     0.3678   0.1528   0.7253
V13     V     0.1322   0.8472   0.2254
V14     V     0.1322   0.1528   0.2746
V15     V     0.0972   0.1178   0.9754
V16     V     0.4028   0.1178   0.0247
V17     V     0.5972   0.6178   0.4754
V18     V     0.9028   0.6178   0.5247
V19     V     0.6322   0.3472   0.7254
V20     V     0.6322   0.6528   0.7746
V21     V     0.5972   0.3822   0.0247
V22     V     0.9028   0.3822   0.9754
V23     V     0.8678   0.3472   0.2747
V24     V     0.8678   0.6528   0.2254
V25     V     0.4028   0.6178   0.9754
V26     V     0.0972   0.6178   0.0246
V27     V     0.3678   0.3472   0.2254
V28     V     0.3678   0.6528   0.2746
V29     V     0.1322   0.3472   0.7746
V30     V     0.1322   0.6528   0.7253
V31     V     0.4028   0.3822   0.5246
V32     V     0.0972   0.3822   0.4754
loop_
_geom_bond_atom_site_label_1
_geom_bond_atom_site_label_2
_geom_bond_distance
_geom_bond_site_symmetry_2
_ccdc_geom_bond_type
V1     V2    10.0   1_565     S
V1     V6    10.0   1_556     S
V1     V20    10.0   .     S
V1     V9    10.0   1_655     S
V1     V18    10.0   .     S
V2     V1    10.0   1_545     S
V2     V4    10.0   .     S
V2     V19    10.0   .     S
V2     V15    10.0   1_655     S
V2     V22    10.0   .     S
V3     V4    10.0   .     S
V3     V8    10.0   .     S
V3     V10    10.0   1_545     S
V3     V19    10.0   .     S
V3     V12    10.0   .     S
V4     V9    10.0   1_645     S
V4     V14    10.0   1_655     S
V4     V23    10.0   .     S
V5     V6    10.0   1_556     S
V5     V7    10.0   1_556     S
V5     V16    10.0   1_566     S
V5     V20    10.0   .     S
V5     V11    10.0   .     S
V6     V5    10.0   1_554     S
V6     V1    10.0   1_554     S
V6     V15    10.0   1_664     S
V6     V13    10.0   1_655     S
V6     V24    10.0   .     S
V7     V8    10.0   1_565     S
V7     V5    10.0   1_554     S
V7     V24    10.0   .     S
V7     V10    10.0   .     S
V7     V17    10.0   .     S
V8     V7    10.0   1_545     S
V8     V23    10.0   .     S
V8     V16    10.0   .     S
V8     V21    10.0   .     S
V9     V10    10.0   .     S
V9     V13    10.0   .     S
V9     V4    10.0   1_465     S
V9     V1    10.0   1_455     S
V9     V30    10.0   .     S
V10     V11    10.0   .     S
V10     V3    10.0   1_565     S
V10     V28    10.0   .     S
V11     V12    10.0   1_565     S
V11     V30    10.0   .     S
V11     V25    10.0   .     S
V12     V11    10.0   1_545     S
V12     V16    10.0   1_556     S
V12     V29    10.0   .     S
V12     V31    10.0   .     S
V13     V14    10.0   1_565     S
V13     V28    10.0   .     S
V13     V6    10.0   1_455     S
V13     V26    10.0   .     S
V14     V13    10.0   1_545     S
V14     V15    10.0   1_554     S
V14     V27    10.0   .     S
V14     V32    10.0   .     S
V14     V4    10.0   1_455     S
V15     V16    10.0   1_556     S
V15     V14    10.0   1_556     S
V15     V6    10.0   1_446     S
V15     V2    10.0   1_455     S
V15     V29    10.0   .     S
V16     V15    10.0   1_554     S
V16     V12    10.0   1_554     S
V16     V5    10.0   1_544     S
V16     V27    10.0   .     S
V17     V18    10.0   .     S
V17     V20    10.0   .     S
V17     V31    10.0   .     S
V17     V28    10.0   .     S
V18     V24    10.0   .     S
V18     V32    10.0   1_655     S
V18     V30    10.0   1_655     S
V19     V20    10.0   .     S
V19     V21    10.0   1_556     S
V19     V31    10.0   .     S
V20     V25    10.0   .     S
V21     V19    10.0   1_554     S
V21     V22    10.0   1_554     S
V21     V25    10.0   1_554     S
V21     V27    10.0   .     S
V22     V21    10.0   1_556     S
V22     V23    10.0   1_556     S
V22     V26    10.0   1_656     S
V22     V29    10.0   1_655     S
V23     V22    10.0   1_554     S
V23     V24    10.0   .     S
V23     V32    10.0   1_655     S
V24     V26    10.0   1_655     S
V25     V21    10.0   1_556     S
V25     V26    10.0   1_556     S
V25     V28    10.0   1_556     S
V26     V22    10.0   1_454     S
V26     V25    10.0   1_554     S
V26     V30    10.0   1_554     S
V26     V24    10.0   1_455     S
V27     V28    10.0   .     S
V27     V31    10.0   .     S
V28     V25    10.0   1_554     S
V29     V30    10.0   .     S
V29     V32    10.0   .     S
V29     V22    10.0   1_455     S
V30     V26    10.0   1_556     S
V30     V18    10.0   1_455     S
V31     V32    10.0   .     S
V32     V18    10.0   1_455     S
V32     V23    10.0   1_455     S
