data_wgl
_audit_creation_date              2020-02-04
_audit_creation_method            'Pymatgen'
_symmetry_space_group_name_H-M    'P1'
_symmetry_Int_Tables_number       1
loop_
_symmetry_equiv_pos_as_xyz
  x,y,z
_cell_length_a                    31.6753
_cell_length_b                    31.6753
_cell_length_c                    37.2294
_cell_angle_alpha                 90.0
_cell_angle_beta                 90.0
_cell_angle_gamma                 90.0
loop_
_atom_site_label
_atom_site_type_symbol
_atom_site_fract_x
_atom_site_fract_y
_atom_site_fract_z
V1     V     0.937   0.4639   0.8808
V2     V     0.937   0.5361   0.6193
V3     V     0.7139   0.687   0.8692
V4     V     0.7861   0.687   0.1308
V5     V     0.563   0.5361   0.3808
V6     V     0.563   0.4639   0.1192
V7     V     0.7861   0.313   0.3692
V8     V     0.7139   0.313   0.6307
V9     V     0.063   0.5361   0.1193
V10     V     0.063   0.4639   0.3807
V11     V     0.2861   0.313   0.1308
V12     V     0.2139   0.313   0.8692
V13     V     0.2139   0.687   0.6308
V14     V     0.2861   0.687   0.3692
V15     V     0.437   0.4639   0.6192
V16     V     0.437   0.5361   0.8808
V17     V     0.937   0.9639   0.1192
V18     V     0.937   0.0361   0.3808
V19     V     0.7861   0.813   0.6308
V20     V     0.7139   0.813   0.3692
V21     V     0.563   0.0361   0.6192
V22     V     0.563   0.9639   0.8808
V23     V     0.7861   0.187   0.8692
V24     V     0.7139   0.187   0.1307
V25     V     0.437   0.9639   0.3808
V26     V     0.437   0.0361   0.1192
V27     V     0.2139   0.813   0.1308
V28     V     0.2861   0.813   0.8692
V29     V     0.063   0.0361   0.8808
V30     V     0.063   0.9639   0.6193
V31     V     0.2861   0.187   0.6308
V32     V     0.2139   0.187   0.3692
loop_
_geom_bond_atom_site_label_1
_geom_bond_atom_site_label_2
_geom_bond_distance
_geom_bond_site_symmetry_2
_ccdc_geom_bond_type
V1     V23    10.0   .     S
V1     V2    10.0   .     S
V1     V3    10.0   .     S
V1     V12    10.0   1_655     S
V1     V9    10.0   1_656     S
V2     V19    10.0   .     S
V2     V8    10.0   .     S
V2     V13    10.0   1_655     S
V2     V10    10.0   1_655     S
V3     V16    10.0   .     S
V3     V4    10.0   1_556     S
V3     V22    10.0   .     S
V3     V19    10.0   .     S
V4     V9    10.0   1_655     S
V4     V3    10.0   1_554     S
V4     V6    10.0   .     S
V4     V20    10.0   .     S
V4     V17    10.0   .     S
V5     V20    10.0   .     S
V5     V6    10.0   .     S
V5     V7    10.0   .     S
V5     V14    10.0   .     S
V5     V15    10.0   .     S
V6     V24    10.0   .     S
V6     V11    10.0   .     S
V6     V16    10.0   1_554     S
V7     V10    10.0   1_655     S
V7     V8    10.0   .     S
V7     V24    10.0   .     S
V7     V18    10.0   .     S
V8     V15    10.0   .     S
V8     V21    10.0   .     S
V8     V23    10.0   .     S
V9     V4    10.0   1_455     S
V9     V27    10.0   .     S
V9     V10    10.0   .     S
V9     V11    10.0   .     S
V9     V1    10.0   1_454     S
V10     V7    10.0   1_455     S
V10     V32    10.0   .     S
V10     V14    10.0   .     S
V10     V2    10.0   1_455     S
V11     V12    10.0   1_554     S
V11     V32    10.0   .     S
V11     V26    10.0   .     S
V12     V1    10.0   1_455     S
V12     V11    10.0   1_556     S
V12     V16    10.0   .     S
V12     V29    10.0   .     S
V12     V31    10.0   .     S
V13     V2    10.0   1_455     S
V13     V14    10.0   .     S
V13     V15    10.0   .     S
V13     V28    10.0   .     S
V13     V30    10.0   .     S
V14     V25    10.0   .     S
V14     V27    10.0   .     S
V15     V31    10.0   .     S
V15     V16    10.0   .     S
V16     V28    10.0   .     S
V16     V6    10.0   1_556     S
V17     V18    10.0   1_565     S
V17     V24    10.0   1_565     S
V17     V27    10.0   1_655     S
V17     V29    10.0   1_664     S
V18     V17    10.0   1_545     S
V18     V20    10.0   1_545     S
V18     V32    10.0   1_655     S
V18     V30    10.0   1_645     S
V19     V30    10.0   1_655     S
V19     V20    10.0   .     S
V19     V21    10.0   1_565     S
V20     V18    10.0   1_565     S
V20     V25    10.0   .     S
V21     V22    10.0   1_545     S
V21     V19    10.0   1_545     S
V21     V25    10.0   1_545     S
V21     V31    10.0   .     S
V22     V21    10.0   1_565     S
V22     V23    10.0   1_565     S
V22     V28    10.0   .     S
V22     V26    10.0   1_566     S
V23     V29    10.0   1_655     S
V23     V24    10.0   1_556     S
V23     V22    10.0   1_545     S
V24     V26    10.0   .     S
V24     V23    10.0   1_554     S
V24     V17    10.0   1_545     S
V25     V21    10.0   1_565     S
V25     V26    10.0   1_565     S
V25     V32    10.0   1_565     S
V26     V25    10.0   1_545     S
V26     V27    10.0   1_545     S
V26     V22    10.0   1_544     S
V27     V26    10.0   1_565     S
V27     V17    10.0   1_455     S
V27     V28    10.0   1_554     S
V28     V27    10.0   1_556     S
V28     V29    10.0   1_565     S
V29     V23    10.0   1_455     S
V29     V28    10.0   1_545     S
V29     V30    10.0   1_545     S
V29     V17    10.0   1_446     S
V30     V19    10.0   1_455     S
V30     V29    10.0   1_565     S
V30     V31    10.0   1_565     S
V30     V18    10.0   1_465     S
V31     V32    10.0   .     S
V31     V30    10.0   1_545     S
V32     V25    10.0   1_545     S
V32     V18    10.0   1_455     S
