data_wgm
_audit_creation_date              2020-02-04
_audit_creation_method            'Pymatgen'
_symmetry_space_group_name_H-M    'P1'
_symmetry_Int_Tables_number       1
loop_
_symmetry_equiv_pos_as_xyz
  x,y,z
_cell_length_a                    28.5782
_cell_length_b                    28.5782
_cell_length_c                    46.385
_cell_angle_alpha                 90.0
_cell_angle_beta                 90.0
_cell_angle_gamma                 90.0
loop_
_atom_site_label
_atom_site_type_symbol
_atom_site_fract_x
_atom_site_fract_y
_atom_site_fract_z
V1     V     0.8859   0.4261   0.9321
V2     V     0.6141   0.4261   0.0679
V3     V     0.3859   0.5739   0.9321
V4     V     0.1141   0.5739   0.0679
V5     V     0.8239   0.6359   0.1821
V6     V     0.8239   0.3641   0.3179
V7     V     0.6761   0.1359   0.1821
V8     V     0.6761   0.8641   0.3179
V9     V     0.8859   0.9261   0.0679
V10     V     0.6141   0.9261   0.9321
V11     V     0.1141   0.0739   0.9321
V12     V     0.3859   0.0739   0.0679
V13     V     0.1141   0.4261   0.4321
V14     V     0.3859   0.4261   0.5679
V15     V     0.8859   0.5739   0.5679
V16     V     0.6141   0.5739   0.4321
V17     V     0.6761   0.6359   0.8179
V18     V     0.6761   0.3641   0.6821
V19     V     0.8239   0.1359   0.8179
V20     V     0.8239   0.8641   0.6821
V21     V     0.3239   0.6359   0.3179
V22     V     0.3239   0.3641   0.1821
V23     V     0.1761   0.1359   0.3179
V24     V     0.1761   0.8641   0.1821
V25     V     0.8859   0.0739   0.4321
V26     V     0.6141   0.0739   0.5679
V27     V     0.1141   0.9261   0.5679
V28     V     0.3859   0.9261   0.4321
V29     V     0.3239   0.1359   0.6821
V30     V     0.3239   0.8641   0.8179
V31     V     0.1761   0.3641   0.8179
V32     V     0.1761   0.6359   0.6821
loop_
_geom_bond_atom_site_label_1
_geom_bond_atom_site_label_2
_geom_bond_distance
_geom_bond_site_symmetry_2
_ccdc_geom_bond_type
V1     V2    10.0   1_556     S
V1     V4    10.0   1_656     S
V1     V17    10.0   .     S
V1     V19    10.0   .     S
V1     V31    10.0   1_655     S
V2     V1    10.0   1_554     S
V2     V3    10.0   1_554     S
V2     V5    10.0   .     S
V2     V22    10.0   .     S
V2     V7    10.0   .     S
V3     V4    10.0   1_556     S
V3     V2    10.0   1_556     S
V3     V31    10.0   .     S
V3     V30    10.0   .     S
V3     V17    10.0   .     S
V4     V1    10.0   1_454     S
V4     V3    10.0   1_554     S
V4     V22    10.0   .     S
V4     V24    10.0   .     S
V4     V5    10.0   1_455     S
V5     V6    10.0   .     S
V5     V8    10.0   .     S
V5     V9    10.0   .     S
V5     V4    10.0   1_655     S
V6     V7    10.0   .     S
V6     V16    10.0   .     S
V6     V13    10.0   1_655     S
V6     V25    10.0   .     S
V7     V8    10.0   1_545     S
V7     V9    10.0   1_545     S
V7     V12    10.0   .     S
V8     V7    10.0   1_565     S
V8     V25    10.0   1_565     S
V8     V28    10.0   .     S
V8     V16    10.0   .     S
V9     V10    10.0   1_554     S
V9     V11    10.0   1_664     S
V9     V7    10.0   1_565     S
V9     V24    10.0   1_655     S
V10     V9    10.0   1_556     S
V10     V12    10.0   1_566     S
V10     V19    10.0   1_565     S
V10     V30    10.0   .     S
V10     V17    10.0   .     S
V11     V12    10.0   1_556     S
V11     V9    10.0   1_446     S
V11     V30    10.0   1_545     S
V11     V19    10.0   1_455     S
V11     V31    10.0   .     S
V12     V11    10.0   1_554     S
V12     V10    10.0   1_544     S
V12     V24    10.0   1_545     S
V12     V22    10.0   .     S
V13     V14    10.0   .     S
V13     V15    10.0   1_455     S
V13     V21    10.0   .     S
V13     V6    10.0   1_455     S
V13     V23    10.0   .     S
V14     V16    10.0   .     S
V14     V32    10.0   .     S
V14     V18    10.0   .     S
V14     V29    10.0   .     S
V15     V16    10.0   .     S
V15     V13    10.0   1_655     S
V15     V18    10.0   .     S
V15     V20    10.0   .     S
V15     V32    10.0   1_655     S
V16     V21    10.0   .     S
V17     V18    10.0   .     S
V17     V20    10.0   .     S
V18     V19    10.0   .     S
V18     V26    10.0   .     S
V19     V10    10.0   1_545     S
V19     V20    10.0   1_545     S
V19     V11    10.0   1_655     S
V20     V19    10.0   1_565     S
V20     V26    10.0   1_565     S
V20     V27    10.0   1_655     S
V21     V22    10.0   .     S
V21     V24    10.0   .     S
V21     V28    10.0   .     S
V22     V23    10.0   .     S
V23     V24    10.0   1_545     S
V23     V28    10.0   1_545     S
V23     V25    10.0   1_455     S
V24     V12    10.0   1_565     S
V24     V23    10.0   1_565     S
V24     V9    10.0   1_455     S
V25     V26    10.0   .     S
V25     V27    10.0   1_645     S
V25     V8    10.0   1_545     S
V25     V23    10.0   1_655     S
V26     V28    10.0   1_545     S
V26     V20    10.0   1_545     S
V26     V29    10.0   .     S
V27     V28    10.0   .     S
V27     V25    10.0   1_465     S
V27     V29    10.0   1_565     S
V27     V32    10.0   .     S
V27     V20    10.0   1_455     S
V28     V26    10.0   1_565     S
V28     V23    10.0   1_565     S
V29     V27    10.0   1_545     S
V29     V30    10.0   1_545     S
V29     V31    10.0   .     S
V30     V11    10.0   1_565     S
V30     V29    10.0   1_565     S
V30     V32    10.0   .     S
V31     V32    10.0   .     S
V31     V1    10.0   1_455     S
V32     V15    10.0   1_455     S
