data_wgo
_audit_creation_date              2020-02-04
_audit_creation_method            'Pymatgen'
_symmetry_space_group_name_H-M    'P1'
_symmetry_Int_Tables_number       1
loop_
_symmetry_equiv_pos_as_xyz
  x,y,z
_cell_length_a                    19.9863
_cell_length_b                    19.9863
_cell_length_c                    72.1178
_cell_angle_alpha                 90.0
_cell_angle_beta                 90.0
_cell_angle_gamma                 90.0
loop_
_atom_site_label
_atom_site_type_symbol
_atom_site_fract_x
_atom_site_fract_y
_atom_site_fract_z
V1     V     0.2408   0.318   0.8167
V2     V     0.2592   0.182   0.6833
V3     V     0.2592   0.818   0.8167
V4     V     0.2408   0.682   0.6833
V5     V     0.7408   0.682   0.8167
V6     V     0.7592   0.818   0.6833
V7     V     0.7592   0.182   0.8167
V8     V     0.7408   0.318   0.6833
V9     V     0.568   0.5092   0.4333
V10     V     0.432   0.4908   0.5667
V11     V     0.068   0.4908   0.4333
V12     V     0.932   0.5092   0.5667
V13     V     0.432   0.9908   0.4333
V14     V     0.568   0.0092   0.5667
V15     V     0.932   0.0092   0.4333
V16     V     0.068   0.9908   0.5667
V17     V     0.932   0.4908   0.9333
V18     V     0.068   0.5092   0.0667
V19     V     0.432   0.5092   0.9333
V20     V     0.568   0.4908   0.0667
V21     V     0.068   0.0092   0.9333
V22     V     0.932   0.9908   0.0667
V23     V     0.568   0.9908   0.9333
V24     V     0.432   0.0092   0.0667
V25     V     0.2408   0.182   0.3167
V26     V     0.2592   0.318   0.1833
V27     V     0.2592   0.682   0.3167
V28     V     0.2408   0.818   0.1833
V29     V     0.7592   0.318   0.3167
V30     V     0.7408   0.182   0.1833
V31     V     0.7408   0.818   0.3167
V32     V     0.7592   0.682   0.1833
loop_
_geom_bond_atom_site_label_1
_geom_bond_atom_site_label_2
_geom_bond_distance
_geom_bond_site_symmetry_2
_ccdc_geom_bond_type
V1     V2    10.0   .     S
V1     V3    10.0   .     S
V1     V3    10.0   1_545     S
V1     V7    10.0   1_455     S
V1     V19    10.0   .     S
V2     V4    10.0   .     S
V2     V4    10.0   1_545     S
V2     V8    10.0   .     S
V2     V16    10.0   1_545     S
V3     V4    10.0   .     S
V3     V1    10.0   1_565     S
V3     V5    10.0   .     S
V3     V21    10.0   1_565     S
V4     V2    10.0   1_565     S
V4     V6    10.0   1_455     S
V4     V10    10.0   .     S
V5     V6    10.0   .     S
V5     V7    10.0   1_565     S
V5     V7    10.0   .     S
V5     V17    10.0   .     S
V6     V8    10.0   .     S
V6     V8    10.0   1_565     S
V6     V4    10.0   1_655     S
V6     V14    10.0   1_565     S
V7     V8    10.0   .     S
V7     V5    10.0   1_545     S
V7     V1    10.0   1_655     S
V7     V23    10.0   1_545     S
V8     V6    10.0   1_545     S
V8     V12    10.0   .     S
V9     V10    10.0   .     S
V9     V11    10.0   .     S
V9     V11    10.0   1_655     S
V9     V13    10.0   .     S
V9     V29    10.0   .     S
V10     V12    10.0   1_455     S
V10     V12    10.0   .     S
V10     V14    10.0   .     S
V11     V12    10.0   1_455     S
V11     V9    10.0   1_455     S
V11     V15    10.0   1_455     S
V11     V27    10.0   .     S
V12     V10    10.0   1_655     S
V12     V11    10.0   1_655     S
V12     V16    10.0   1_655     S
V13     V14    10.0   1_565     S
V13     V15    10.0   1_465     S
V13     V15    10.0   1_565     S
V13     V25    10.0   1_565     S
V14     V13    10.0   1_545     S
V14     V16    10.0   1_645     S
V14     V16    10.0   1_545     S
V14     V6    10.0   1_545     S
V15     V13    10.0   1_645     S
V15     V16    10.0   1_645     S
V15     V13    10.0   1_545     S
V15     V11    10.0   1_655     S
V15     V31    10.0   1_545     S
V16     V15    10.0   1_465     S
V16     V14    10.0   1_465     S
V16     V14    10.0   1_565     S
V16     V12    10.0   1_455     S
V16     V2    10.0   1_565     S
V17     V18    10.0   1_656     S
V17     V19    10.0   1_655     S
V17     V19    10.0   .     S
V17     V21    10.0   1_655     S
V18     V17    10.0   1_454     S
V18     V20    10.0   .     S
V18     V20    10.0   1_455     S
V18     V22    10.0   1_455     S
V18     V26    10.0   .     S
V19     V20    10.0   1_556     S
V19     V17    10.0   1_455     S
V19     V23    10.0   .     S
V20     V19    10.0   1_554     S
V20     V18    10.0   1_655     S
V20     V24    10.0   .     S
V20     V32    10.0   .     S
V21     V22    10.0   1_446     S
V21     V23    10.0   1_445     S
V21     V23    10.0   1_545     S
V21     V17    10.0   1_455     S
V21     V3    10.0   1_545     S
V22     V21    10.0   1_664     S
V22     V24    10.0   1_665     S
V22     V24    10.0   1_565     S
V22     V18    10.0   1_655     S
V22     V30    10.0   1_565     S
V23     V24    10.0   1_566     S
V23     V21    10.0   1_665     S
V23     V21    10.0   1_565     S
V23     V7    10.0   1_565     S
V24     V23    10.0   1_544     S
V24     V22    10.0   1_445     S
V24     V22    10.0   1_545     S
V24     V28    10.0   1_545     S
V25     V13    10.0   1_545     S
V25     V26    10.0   .     S
V25     V27    10.0   .     S
V25     V27    10.0   1_545     S
V25     V29    10.0   1_455     S
V26     V28    10.0   .     S
V26     V28    10.0   1_545     S
V26     V30    10.0   .     S
V27     V28    10.0   .     S
V27     V25    10.0   1_565     S
V27     V31    10.0   .     S
V28     V26    10.0   1_565     S
V28     V32    10.0   1_455     S
V28     V24    10.0   1_565     S
V29     V30    10.0   .     S
V29     V31    10.0   .     S
V29     V31    10.0   1_545     S
V29     V25    10.0   1_655     S
V30     V32    10.0   1_545     S
V30     V32    10.0   .     S
V30     V22    10.0   1_545     S
V31     V15    10.0   1_565     S
V31     V32    10.0   .     S
V31     V29    10.0   1_565     S
V32     V30    10.0   1_565     S
V32     V28    10.0   1_655     S
