data_wgs
_audit_creation_date              2020-02-04
_audit_creation_method            'Pymatgen'
_symmetry_space_group_name_H-M    'P1'
_symmetry_Int_Tables_number       1
loop_
_symmetry_equiv_pos_as_xyz
  x,y,z
_cell_length_a                    19.588
_cell_length_b                    19.588
_cell_length_c                    77.2413
_cell_angle_alpha                 90.0
_cell_angle_beta                 90.0
_cell_angle_gamma                 90.0
loop_
_atom_site_label
_atom_site_type_symbol
_atom_site_fract_x
_atom_site_fract_y
_atom_site_fract_z
V1     V     0.6985   0.0895   0.8106
V2     V     0.6605   0.0515   0.9394
V3     V     0.3015   0.4105   0.8106
V4     V     0.3395   0.4485   0.9394
V5     V     0.1985   0.9105   0.8106
V6     V     0.1605   0.9485   0.9394
V7     V     0.8015   0.5895   0.8106
V8     V     0.8395   0.5515   0.9394
V9     V     0.3015   0.9105   0.1894
V10     V     0.3395   0.9485   0.0606
V11     V     0.6985   0.5895   0.1894
V12     V     0.6605   0.5515   0.0606
V13     V     0.8395   0.0515   0.0606
V14     V     0.8015   0.0895   0.1894
V15     V     0.1985   0.4105   0.1894
V16     V     0.1605   0.4485   0.0606
V17     V     0.6985   0.9105   0.6894
V18     V     0.6605   0.9485   0.5606
V19     V     0.3015   0.5895   0.6894
V20     V     0.3395   0.5515   0.5606
V21     V     0.1985   0.0895   0.6894
V22     V     0.1605   0.0515   0.5606
V23     V     0.8015   0.4105   0.6894
V24     V     0.8395   0.4485   0.5606
V25     V     0.8395   0.9485   0.4394
V26     V     0.8015   0.9105   0.3106
V27     V     0.1985   0.5895   0.3106
V28     V     0.1605   0.5515   0.4394
V29     V     0.3015   0.0895   0.3106
V30     V     0.3395   0.0515   0.4394
V31     V     0.6605   0.4485   0.4394
V32     V     0.6985   0.4105   0.3106
loop_
_geom_bond_atom_site_label_1
_geom_bond_atom_site_label_2
_geom_bond_distance
_geom_bond_site_symmetry_2
_ccdc_geom_bond_type
V1     V2    9.999   .     S
V1     V3    10.0   .     S
V1     V7    10.0   1_545     S
V1     V7    10.0   .     S
V1     V17    10.001   1_545     S
V2     V4    10.0   .     S
V2     V6    10.0   1_645     S
V2     V6    10.0   1_545     S
V2     V13    10.001   1_556     S
V3     V4    9.999   .     S
V3     V5    10.0   1_545     S
V3     V5    10.0   .     S
V3     V19    10.001   .     S
V4     V8    10.0   1_455     S
V4     V8    10.0   .     S
V4     V16    10.001   1_556     S
V5     V6    9.999   .     S
V5     V7    10.0   1_455     S
V5     V3    10.0   1_565     S
V5     V21    10.001   1_565     S
V6     V8    10.0   1_455     S
V6     V2    10.0   1_465     S
V6     V2    10.0   1_565     S
V6     V10    10.001   1_556     S
V7     V8    9.999   .     S
V7     V5    10.0   1_655     S
V7     V1    10.0   1_565     S
V7     V23    10.001   .     S
V8     V6    10.0   1_655     S
V8     V4    10.0   1_655     S
V8     V12    10.001   1_556     S
V9     V10    9.999   .     S
V9     V11    10.0   .     S
V9     V15    10.0   1_565     S
V9     V15    10.0   .     S
V9     V29    10.001   1_565     S
V10     V6    10.001   1_554     S
V10     V12    10.0   .     S
V10     V13    10.0   1_565     S
V10     V13    10.0   1_465     S
V11     V12    9.999   .     S
V11     V14    10.0   1_565     S
V11     V14    10.0   .     S
V11     V32    10.001   .     S
V12     V8    10.001   1_554     S
V12     V16    10.0   1_655     S
V12     V16    10.0   .     S
V13     V2    10.001   1_554     S
V13     V14    9.999   .     S
V13     V16    10.0   1_655     S
V13     V10    10.0   1_545     S
V13     V10    10.0   1_645     S
V14     V11    10.0   1_545     S
V14     V15    10.0   1_655     S
V14     V26    10.001   1_545     S
V15     V9    10.0   1_545     S
V15     V16    9.999   .     S
V15     V14    10.0   1_455     S
V15     V27    10.001   .     S
V16     V4    10.001   1_554     S
V16     V12    10.0   1_455     S
V16     V13    10.0   1_455     S
V17     V18    9.999   .     S
V17     V19    10.0   .     S
V17     V23    10.0   1_565     S
V17     V23    10.0   .     S
V17     V1    10.001   1_565     S
V18     V20    10.0   .     S
V18     V22    10.0   1_665     S
V18     V22    10.0   1_565     S
V18     V25    10.001   .     S
V19     V20    9.999   .     S
V19     V21    10.0   1_565     S
V19     V21    10.0   .     S
V20     V24    10.0   1_455     S
V20     V24    10.0   .     S
V20     V28    10.001   .     S
V21     V19    10.0   1_545     S
V21     V22    9.999   .     S
V21     V23    10.0   1_455     S
V21     V5    10.001   1_545     S
V22     V24    10.0   1_455     S
V22     V18    10.0   1_445     S
V22     V18    10.0   1_545     S
V22     V30    10.001   .     S
V23     V17    10.0   1_545     S
V23     V24    9.999   .     S
V23     V21    10.0   1_655     S
V24     V22    10.0   1_655     S
V24     V20    10.0   1_655     S
V24     V31    10.001   .     S
V25     V26    9.999   .     S
V25     V28    10.0   1_655     S
V25     V30    10.0   1_565     S
V25     V30    10.0   1_665     S
V26     V14    10.001   1_565     S
V26     V27    10.0   1_655     S
V26     V32    10.0   1_565     S
V26     V32    10.0   .     S
V27     V28    9.999   .     S
V27     V26    10.0   1_455     S
V27     V29    10.0   1_565     S
V27     V29    10.0   .     S
V28     V25    10.0   1_455     S
V28     V31    10.0   1_455     S
V28     V31    10.0   .     S
V29     V27    10.0   1_545     S
V29     V30    9.999   .     S
V29     V32    10.0   .     S
V29     V9    10.001   1_545     S
V30     V25    10.0   1_545     S
V30     V31    10.0   .     S
V30     V25    10.0   1_445     S
V31     V32    9.999   .     S
V31     V28    10.0   1_655     S
V32     V26    10.0   1_545     S
