data_wgz
_audit_creation_date              2020-02-04
_audit_creation_method            'Pymatgen'
_symmetry_space_group_name_H-M    'P1'
_symmetry_Int_Tables_number       1
loop_
_symmetry_equiv_pos_as_xyz
  x,y,z
_cell_length_a                    21.4746
_cell_length_b                    21.4746
_cell_length_c                    36.3636
_cell_angle_alpha                 90.0
_cell_angle_beta                 90.0
_cell_angle_gamma                 90.0
loop_
_atom_site_label
_atom_site_type_symbol
_atom_site_fract_x
_atom_site_fract_y
_atom_site_fract_z
V1     V     0.126   0.6958   0.6156
V2     V     0.3042   0.874   0.3844
V3     V     0.6958   0.874   0.6156
V4     V     0.874   0.6958   0.3844
V5     V     0.874   0.3042   0.6156
V6     V     0.6958   0.126   0.3844
V7     V     0.3042   0.126   0.6156
V8     V     0.126   0.3042   0.3844
V9     V     0.8042   0.626   0.1156
V10     V     0.626   0.8042   0.8844
V11     V     0.626   0.1958   0.1156
V12     V     0.8042   0.374   0.8844
V13     V     0.1958   0.374   0.1156
V14     V     0.374   0.1958   0.8844
V15     V     0.374   0.8042   0.1156
V16     V     0.1958   0.626   0.8844
loop_
_geom_bond_atom_site_label_1
_geom_bond_atom_site_label_2
_geom_bond_distance
_geom_bond_site_symmetry_2
_ccdc_geom_bond_type
V1     V3    10.0   1_455     S
V1     V4    10.0   1_455     S
V1     V2    10.0   .     S
V1     V7    10.0   1_565     S
V1     V5    10.0   1_455     S
V1     V16    10.0   .     S
V2     V4    10.0   1_455     S
V2     V7    10.0   1_565     S
V2     V8    10.0   1_565     S
V2     V6    10.0   1_565     S
V2     V15    10.0   .     S
V3     V1    10.0   1_655     S
V3     V4    10.0   .     S
V3     V5    10.0   1_565     S
V3     V6    10.0   1_565     S
V3     V7    10.0   1_565     S
V3     V10    10.0   .     S
V4     V1    10.0   1_655     S
V4     V2    10.0   1_655     S
V4     V6    10.0   1_565     S
V4     V8    10.0   1_655     S
V4     V9    10.0   .     S
V5     V3    10.0   1_545     S
V5     V6    10.0   .     S
V5     V7    10.0   1_655     S
V5     V8    10.0   1_655     S
V5     V1    10.0   1_655     S
V5     V12    10.0   .     S
V6     V3    10.0   1_545     S
V6     V4    10.0   1_545     S
V6     V8    10.0   1_655     S
V6     V2    10.0   1_545     S
V6     V11    10.0   .     S
V7     V5    10.0   1_455     S
V7     V1    10.0   1_545     S
V7     V2    10.0   1_545     S
V7     V8    10.0   .     S
V7     V3    10.0   1_545     S
V7     V14    10.0   .     S
V8     V5    10.0   1_455     S
V8     V6    10.0   1_455     S
V8     V2    10.0   1_545     S
V8     V4    10.0   1_455     S
V8     V13    10.0   .     S
V9     V10    10.0   1_554     S
V9     V11    10.0   .     S
V9     V12    10.0   1_554     S
V9     V15    10.0   .     S
V9     V13    10.0   1_655     S
V10     V9    10.0   1_556     S
V10     V12    10.0   .     S
V10     V15    10.0   1_556     S
V10     V16    10.0   .     S
V10     V14    10.0   1_565     S
V11     V12    10.0   1_554     S
V11     V13    10.0   .     S
V11     V14    10.0   1_554     S
V11     V15    10.0   1_545     S
V12     V9    10.0   1_556     S
V12     V11    10.0   1_556     S
V12     V14    10.0   .     S
V12     V16    10.0   1_655     S
V13     V15    10.0   .     S
V13     V16    10.0   1_554     S
V13     V14    10.0   1_554     S
V13     V9    10.0   1_455     S
V14     V16    10.0   .     S
V14     V13    10.0   1_556     S
V14     V11    10.0   1_556     S
V14     V10    10.0   1_545     S
V15     V16    10.0   1_554     S
V15     V10    10.0   1_554     S
V15     V11    10.0   1_565     S
V16     V13    10.0   1_556     S
V16     V15    10.0   1_556     S
V16     V12    10.0   1_455     S
