data_whh
_audit_creation_date              2020-02-04
_audit_creation_method            'Pymatgen'
_symmetry_space_group_name_H-M    'P1'
_symmetry_Int_Tables_number       1
loop_
_symmetry_equiv_pos_as_xyz
  x,y,z
_cell_length_a                    21.4746
_cell_length_b                    21.4746
_cell_length_c                    33.0931
_cell_angle_alpha                 90.0
_cell_angle_beta                 90.0
_cell_angle_gamma                 90.0
loop_
_atom_site_label
_atom_site_type_symbol
_atom_site_fract_x
_atom_site_fract_y
_atom_site_fract_z
V1     V     0.5542   0.124   0.877
V2     V     0.376   0.9458   0.623
V3     V     0.124   0.9458   0.877
V4     V     0.9458   0.124   0.623
V5     V     0.376   0.5542   0.877
V6     V     0.5542   0.376   0.623
V7     V     0.9458   0.376   0.877
V8     V     0.124   0.5542   0.623
V9     V     0.4458   0.624   0.377
V10     V     0.624   0.4458   0.123
V11     V     0.624   0.0542   0.377
V12     V     0.4458   0.876   0.123
V13     V     0.0542   0.624   0.123
V14     V     0.876   0.4458   0.377
V15     V     0.0542   0.876   0.377
V16     V     0.876   0.0542   0.123
loop_
_geom_bond_atom_site_label_1
_geom_bond_atom_site_label_2
_geom_bond_distance
_geom_bond_site_symmetry_2
_ccdc_geom_bond_type
V1     V2    10.0   1_545     S
V1     V5    10.0   .     S
V1     V6    10.0   .     S
V1     V3    10.0   1_545     S
V1     V12    10.0   1_546     S
V1     V7    10.0   .     S
V2     V1    10.0   1_565     S
V2     V6    10.0   1_565     S
V2     V3    10.0   .     S
V2     V4    10.0   1_465     S
V2     V11    10.0   1_565     S
V2     V8    10.0   .     S
V3     V1    10.0   1_565     S
V3     V7    10.0   1_465     S
V3     V4    10.0   1_465     S
V3     V16    10.0   1_466     S
V3     V5    10.0   .     S
V4     V2    10.0   1_645     S
V4     V7    10.0   .     S
V4     V8    10.0   1_655     S
V4     V3    10.0   1_645     S
V4     V15    10.0   1_645     S
V4     V6    10.0   .     S
V5     V6    10.0   .     S
V5     V7    10.0   1_455     S
V5     V8    10.0   .     S
V5     V10    10.0   1_556     S
V6     V2    10.0   1_545     S
V6     V8    10.0   .     S
V6     V9    10.0   .     S
V7     V3    10.0   1_645     S
V7     V5    10.0   1_655     S
V7     V8    10.0   1_655     S
V7     V13    10.0   1_656     S
V8     V4    10.0   1_455     S
V8     V7    10.0   1_455     S
V8     V14    10.0   1_455     S
V9     V10    10.0   .     S
V9     V12    10.0   .     S
V9     V11    10.0   1_565     S
V9     V14    10.0   .     S
V9     V15    10.0   .     S
V10     V12    10.0   .     S
V10     V14    10.0   .     S
V10     V13    10.0   1_655     S
V10     V5    10.0   1_554     S
V10     V16    10.0   .     S
V11     V9    10.0   1_545     S
V11     V12    10.0   1_545     S
V11     V16    10.0   .     S
V11     V15    10.0   1_645     S
V11     V2    10.0   1_545     S
V11     V14    10.0   .     S
V12     V1    10.0   1_564     S
V12     V11    10.0   1_565     S
V12     V16    10.0   1_565     S
V12     V13    10.0   .     S
V13     V14    10.0   1_455     S
V13     V10    10.0   1_455     S
V13     V15    10.0   .     S
V13     V16    10.0   1_465     S
V13     V7    10.0   1_454     S
V14     V8    10.0   1_655     S
V14     V13    10.0   1_655     S
V14     V15    10.0   1_655     S
V15     V4    10.0   1_465     S
V15     V11    10.0   1_465     S
V15     V14    10.0   1_455     S
V15     V16    10.0   1_465     S
V16     V3    10.0   1_644     S
V16     V12    10.0   1_545     S
V16     V13    10.0   1_645     S
V16     V15    10.0   1_645     S
