data_whj
_audit_creation_date              2020-02-04
_audit_creation_method            'Pymatgen'
_symmetry_space_group_name_H-M    'P1'
_symmetry_Int_Tables_number       1
loop_
_symmetry_equiv_pos_as_xyz
  x,y,z
_cell_length_a                    24.1662
_cell_length_b                    24.1662
_cell_length_c                    29.5572
_cell_angle_alpha                 90.0
_cell_angle_beta                 90.0
_cell_angle_gamma                 90.0
loop_
_atom_site_label
_atom_site_type_symbol
_atom_site_fract_x
_atom_site_fract_y
_atom_site_fract_z
V1     V     0.9702   0.1644   0.9002
V2     V     0.8356   0.0298   0.5998
V3     V     0.0298   0.8356   0.0998
V4     V     0.1644   0.9702   0.4002
V5     V     0.3356   0.9702   0.9002
V6     V     0.4702   0.8356   0.5998
V7     V     0.6644   0.0298   0.0998
V8     V     0.5298   0.1644   0.4002
V9     V     0.5298   0.3356   0.9002
V10     V     0.6644   0.4702   0.5998
V11     V     0.3356   0.5298   0.4002
V12     V     0.4702   0.6644   0.0998
V13     V     0.1644   0.5298   0.9002
V14     V     0.0298   0.6644   0.5998
V15     V     0.9702   0.3356   0.4002
V16     V     0.8356   0.4702   0.0998
loop_
_geom_bond_atom_site_label_1
_geom_bond_atom_site_label_2
_geom_bond_distance
_geom_bond_site_symmetry_2
_ccdc_geom_bond_type
V1     V5    10.0   1_645     S
V1     V13    10.0   1_655     S
V1     V16    10.0   1_556     S
V1     V2    10.0   .     S
V1     V3    10.0   1_646     S
V1     V7    10.0   1_556     S
V2     V6    10.0   1_545     S
V2     V8    10.0   .     S
V2     V4    10.0   1_645     S
V2     V15    10.0   .     S
V2     V14    10.0   1_645     S
V3     V5    10.0   1_554     S
V3     V4    10.0   .     S
V3     V1    10.0   1_464     S
V3     V7    10.0   1_465     S
V3     V16    10.0   1_455     S
V3     V13    10.0   1_554     S
V4     V2    10.0   1_465     S
V4     V8    10.0   1_565     S
V4     V6    10.0   .     S
V4     V15    10.0   1_465     S
V4     V14    10.0   .     S
V5     V1    10.0   1_465     S
V5     V3    10.0   1_556     S
V5     V9    10.0   1_565     S
V5     V6    10.0   .     S
V5     V7    10.0   1_566     S
V5     V12    10.0   1_556     S
V6     V2    10.0   1_565     S
V6     V8    10.0   1_565     S
V6     V10    10.0   .     S
V6     V11    10.0   .     S
V7     V9    10.0   1_554     S
V7     V3    10.0   1_645     S
V7     V1    10.0   1_554     S
V7     V8    10.0   .     S
V7     V5    10.0   1_544     S
V7     V12    10.0   1_545     S
V8     V4    10.0   1_545     S
V8     V6    10.0   1_545     S
V8     V11    10.0   .     S
V8     V10    10.0   .     S
V9     V13    10.0   .     S
V9     V5    10.0   1_545     S
V9     V7    10.0   1_556     S
V9     V16    10.0   1_556     S
V9     V10    10.0   .     S
V9     V12    10.0   1_556     S
V10     V14    10.0   1_655     S
V10     V15    10.0   .     S
V10     V11    10.0   .     S
V11     V12    10.0   .     S
V11     V15    10.0   1_455     S
V11     V14    10.0   .     S
V12     V13    10.0   1_554     S
V12     V7    10.0   1_565     S
V12     V5    10.0   1_554     S
V12     V16    10.0   .     S
V12     V9    10.0   1_554     S
V13     V1    10.0   1_455     S
V13     V12    10.0   1_556     S
V13     V3    10.0   1_556     S
V13     V14    10.0   .     S
V13     V16    10.0   1_456     S
V14     V10    10.0   1_455     S
V14     V2    10.0   1_465     S
V14     V15    10.0   1_455     S
V15     V11    10.0   1_655     S
V15     V4    10.0   1_645     S
V15     V16    10.0   .     S
V15     V14    10.0   1_655     S
V16     V1    10.0   1_554     S
V16     V9    10.0   1_554     S
V16     V3    10.0   1_655     S
V16     V13    10.0   1_654     S
