data_whq
_audit_creation_date              2020-02-04
_audit_creation_method            'Pymatgen'
_symmetry_space_group_name_H-M    'P1'
_symmetry_Int_Tables_number       1
loop_
_symmetry_equiv_pos_as_xyz
  x,y,z
_cell_length_a                    32.6197
_cell_length_b                    32.6197
_cell_length_c                    36.8179
_cell_angle_alpha                 90.0
_cell_angle_beta                 90.0
_cell_angle_gamma                 90.0
loop_
_atom_site_label
_atom_site_type_symbol
_atom_site_fract_x
_atom_site_fract_y
_atom_site_fract_z
V1     V     0.417   0.7003   0.1358
V2     V     0.417   0.7003   0.8642
V3     V     0.7003   0.583   0.1358
V4     V     0.7003   0.583   0.8642
V5     V     0.583   0.2997   0.1358
V6     V     0.583   0.2997   0.8642
V7     V     0.2997   0.417   0.1358
V8     V     0.2997   0.417   0.8642
V9     V     0.7003   0.417   0.3642
V10     V     0.7003   0.417   0.6358
V11     V     0.583   0.7003   0.3642
V12     V     0.583   0.7003   0.6358
V13     V     0.2997   0.583   0.3642
V14     V     0.2997   0.583   0.6358
V15     V     0.417   0.2997   0.3642
V16     V     0.417   0.2997   0.6358
V17     V     0.917   0.2003   0.6358
V18     V     0.917   0.2003   0.3642
V19     V     0.083   0.7997   0.6358
V20     V     0.083   0.7997   0.3642
V21     V     0.7997   0.917   0.6358
V22     V     0.7997   0.917   0.3642
V23     V     0.2003   0.083   0.6358
V24     V     0.2003   0.083   0.3642
V25     V     0.7997   0.083   0.1358
V26     V     0.7997   0.083   0.8642
V27     V     0.917   0.7997   0.1358
V28     V     0.917   0.7997   0.8642
V29     V     0.2003   0.917   0.1358
V30     V     0.2003   0.917   0.8642
V31     V     0.083   0.2003   0.1358
V32     V     0.083   0.2003   0.8642
loop_
_geom_bond_atom_site_label_1
_geom_bond_atom_site_label_2
_geom_bond_distance
_geom_bond_site_symmetry_2
_ccdc_geom_bond_type
V1     V13    10.0   .     S
V1     V11    10.0   .     S
V1     V2    10.0   1_554     S
V1     V7    10.0   .     S
V1     V3    10.0   .     S
V1     V29    10.0   .     S
V2     V1    10.0   1_556     S
V2     V8    10.0   .     S
V2     V4    10.0   .     S
V2     V14    10.0   .     S
V2     V12    10.0   .     S
V2     V30    10.0   .     S
V3     V9    10.0   .     S
V3     V11    10.0   .     S
V3     V4    10.0   1_554     S
V3     V5    10.0   .     S
V3     V27    10.0   .     S
V4     V3    10.0   1_556     S
V4     V6    10.0   .     S
V4     V10    10.0   .     S
V4     V12    10.0   .     S
V4     V28    10.0   .     S
V5     V15    10.0   .     S
V5     V9    10.0   .     S
V5     V6    10.0   1_554     S
V5     V7    10.0   .     S
V5     V25    10.0   .     S
V6     V5    10.0   1_556     S
V6     V8    10.0   .     S
V6     V16    10.0   .     S
V6     V10    10.0   .     S
V6     V26    10.0   .     S
V7     V15    10.0   .     S
V7     V13    10.0   .     S
V7     V8    10.0   1_554     S
V7     V31    10.0   .     S
V8     V7    10.0   1_556     S
V8     V16    10.0   .     S
V8     V14    10.0   .     S
V8     V32    10.0   .     S
V9     V10    10.0   .     S
V9     V15    10.0   .     S
V9     V11    10.0   .     S
V9     V18    10.0   .     S
V10     V16    10.0   .     S
V10     V12    10.0   .     S
V10     V17    10.0   .     S
V11     V12    10.0   .     S
V11     V13    10.0   .     S
V11     V22    10.0   .     S
V12     V14    10.0   .     S
V12     V21    10.0   .     S
V13     V14    10.0   .     S
V13     V15    10.0   .     S
V13     V20    10.0   .     S
V14     V16    10.0   .     S
V14     V19    10.0   .     S
V15     V16    10.0   .     S
V15     V24    10.0   .     S
V16     V23    10.0   .     S
V17     V26    10.0   .     S
V17     V32    10.0   1_655     S
V17     V18    10.0   .     S
V17     V21    10.0   1_545     S
V17     V23    10.0   1_655     S
V18     V22    10.0   1_545     S
V18     V24    10.0   1_655     S
V18     V31    10.0   1_655     S
V18     V25    10.0   .     S
V19     V30    10.0   .     S
V19     V28    10.0   1_455     S
V19     V20    10.0   .     S
V19     V23    10.0   1_565     S
V19     V21    10.0   1_455     S
V20     V24    10.0   1_565     S
V20     V22    10.0   1_455     S
V20     V29    10.0   .     S
V20     V27    10.0   1_455     S
V21     V26    10.0   1_565     S
V21     V28    10.0   .     S
V21     V22    10.0   .     S
V21     V19    10.0   1_655     S
V21     V17    10.0   1_565     S
V22     V20    10.0   1_655     S
V22     V18    10.0   1_565     S
V22     V25    10.0   1_565     S
V22     V27    10.0   .     S
V23     V32    10.0   .     S
V23     V30    10.0   1_545     S
V23     V19    10.0   1_545     S
V23     V24    10.0   .     S
V23     V17    10.0   1_455     S
V24     V20    10.0   1_545     S
V24     V18    10.0   1_455     S
V24     V31    10.0   .     S
V24     V29    10.0   1_545     S
V25     V26    10.0   1_554     S
V25     V31    10.0   1_655     S
V25     V27    10.0   1_545     S
V25     V22    10.0   1_545     S
V26     V21    10.0   1_545     S
V26     V25    10.0   1_556     S
V26     V32    10.0   1_655     S
V26     V28    10.0   1_545     S
V27     V28    10.0   1_554     S
V27     V25    10.0   1_565     S
V27     V29    10.0   1_655     S
V27     V20    10.0   1_655     S
V28     V19    10.0   1_655     S
V28     V27    10.0   1_556     S
V28     V26    10.0   1_565     S
V28     V30    10.0   1_655     S
V29     V27    10.0   1_455     S
V29     V30    10.0   1_554     S
V29     V31    10.0   1_565     S
V29     V24    10.0   1_565     S
V30     V23    10.0   1_565     S
V30     V28    10.0   1_455     S
V30     V29    10.0   1_556     S
V30     V32    10.0   1_565     S
V31     V25    10.0   1_455     S
V31     V32    10.0   1_554     S
V31     V29    10.0   1_545     S
V31     V18    10.0   1_455     S
V32     V17    10.0   1_455     S
V32     V26    10.0   1_455     S
V32     V31    10.0   1_556     S
V32     V30    10.0   1_545     S
