data_whr
_audit_creation_date              2020-02-04
_audit_creation_method            'Pymatgen'
_symmetry_space_group_name_H-M    'P1'
_symmetry_Int_Tables_number       1
loop_
_symmetry_equiv_pos_as_xyz
  x,y,z
_cell_length_a                    32.0237
_cell_length_b                    32.0237
_cell_length_c                    17.7022
_cell_angle_alpha                 90.0
_cell_angle_beta                 90.0
_cell_angle_gamma                 90.0
loop_
_atom_site_label
_atom_site_type_symbol
_atom_site_fract_x
_atom_site_fract_y
_atom_site_fract_z
V1     V     0.5727   0.7075   0.9737
V2     V     0.7075   0.5727   0.5263
V3     V     0.5727   0.2925   0.4737
V4     V     0.7075   0.4273   0.0263
V5     V     0.4273   0.2925   0.9737
V6     V     0.2925   0.4273   0.5263
V7     V     0.4273   0.7075   0.4737
V8     V     0.2925   0.5727   0.0263
V9     V     0.0727   0.2075   0.4737
V10     V     0.2075   0.0727   0.0263
V11     V     0.0727   0.7925   0.9737
V12     V     0.2075   0.9273   0.5263
V13     V     0.9273   0.7925   0.4737
V14     V     0.7925   0.9273   0.0263
V15     V     0.9273   0.2075   0.9737
V16     V     0.7925   0.0727   0.5263
loop_
_geom_bond_atom_site_label_1
_geom_bond_atom_site_label_2
_geom_bond_distance
_geom_bond_site_symmetry_2
_ccdc_geom_bond_type
V1     V4    10.0   1_556     S
V1     V2    10.0   .     S
V1     V7    10.0   .     S
V1     V8    10.0   1_556     S
V1     V7    10.0   1_556     S
V1     V14    10.0   1_556     S
V2     V4    10.0   1_556     S
V2     V7    10.0   .     S
V2     V3    10.0   .     S
V2     V4    10.0   .     S
V2     V13    10.0   .     S
V3     V4    10.0   .     S
V3     V5    10.0   1_554     S
V3     V6    10.0   .     S
V3     V5    10.0   .     S
V3     V16    10.0   .     S
V4     V1    10.0   1_554     S
V4     V2    10.0   1_554     S
V4     V5    10.0   1_554     S
V4     V15    10.0   1_554     S
V5     V4    10.0   1_556     S
V5     V3    10.0   1_556     S
V5     V8    10.0   1_556     S
V5     V6    10.0   .     S
V5     V10    10.0   1_556     S
V6     V8    10.0   1_556     S
V6     V7    10.0   .     S
V6     V8    10.0   .     S
V6     V9    10.0   .     S
V7     V1    10.0   1_554     S
V7     V8    10.0   .     S
V7     V12    10.0   .     S
V8     V5    10.0   1_554     S
V8     V6    10.0   1_554     S
V8     V1    10.0   1_554     S
V8     V11    10.0   1_554     S
V9     V12    10.0   1_545     S
V9     V10    10.0   .     S
V9     V15    10.0   1_454     S
V9     V16    10.0   1_455     S
V9     V15    10.0   1_455     S
V10     V12    10.0   1_545     S
V10     V15    10.0   1_454     S
V10     V11    10.0   1_544     S
V10     V12    10.0   1_544     S
V10     V5    10.0   1_554     S
V11     V13    10.0   1_455     S
V11     V12    10.0   .     S
V11     V10    10.0   1_566     S
V11     V14    10.0   1_456     S
V11     V13    10.0   1_456     S
V11     V8    10.0   1_556     S
V12     V9    10.0   1_565     S
V12     V10    10.0   1_565     S
V12     V13    10.0   1_455     S
V12     V10    10.0   1_566     S
V13     V12    10.0   1_655     S
V13     V11    10.0   1_655     S
V13     V11    10.0   1_654     S
V13     V16    10.0   1_565     S
V13     V14    10.0   .     S
V14     V11    10.0   1_654     S
V14     V16    10.0   1_565     S
V14     V15    10.0   1_564     S
V14     V16    10.0   1_564     S
V14     V1    10.0   1_554     S
V15     V10    10.0   1_656     S
V15     V9    10.0   1_656     S
V15     V14    10.0   1_546     S
V15     V16    10.0   .     S
V15     V9    10.0   1_655     S
V15     V4    10.0   1_556     S
V16     V13    10.0   1_545     S
V16     V14    10.0   1_545     S
V16     V14    10.0   1_546     S
V16     V9    10.0   1_655     S
