data_wie
_audit_creation_date              2020-02-04
_audit_creation_method            'Pymatgen'
_symmetry_space_group_name_H-M    'P1'
_symmetry_Int_Tables_number       1
loop_
_symmetry_equiv_pos_as_xyz
  x,y,z
_cell_length_a                    17.6151
_cell_length_b                    17.6151
_cell_length_c                    45.0414
_cell_angle_alpha                 90.0
_cell_angle_beta                 90.0
_cell_angle_gamma                 90.0
loop_
_atom_site_label
_atom_site_type_symbol
_atom_site_fract_x
_atom_site_fract_y
_atom_site_fract_z
V1     V     0.7993   0.0493   0.4239
V2     V     0.2007   0.9507   0.5761
V3     V     0.7993   0.5493   0.5761
V4     V     0.2007   0.4507   0.4239
V5     V     0.2993   0.4507   0.6739
V6     V     0.2007   0.0493   0.8261
V7     V     0.7007   0.0493   0.6739
V8     V     0.7993   0.4507   0.8261
V9     V     0.2007   0.5493   0.1739
V10     V     0.2993   0.9507   0.3261
V11     V     0.7007   0.5493   0.3261
V12     V     0.7993   0.9507   0.1739
V13     V     0.7007   0.4507   0.0761
V14     V     0.2993   0.5493   0.9239
V15     V     0.2993   0.0493   0.0761
V16     V     0.7007   0.9507   0.9239
loop_
_geom_bond_atom_site_label_1
_geom_bond_atom_site_label_2
_geom_bond_distance
_geom_bond_site_symmetry_2
_ccdc_geom_bond_type
V1     V10    10.0   1_645     S
V1     V10    10.0   1_545     S
V1     V11    10.0   1_545     S
V1     V2    10.0   1_645     S
V1     V4    10.0   1_655     S
V1     V11    10.0   .     S
V2     V7    10.0   1_465     S
V2     V1    10.0   1_465     S
V2     V3    10.0   1_455     S
V2     V7    10.0   1_565     S
V2     V5    10.0   1_565     S
V2     V5    10.0   .     S
V3     V7    10.0   1_565     S
V3     V4    10.0   1_655     S
V3     V2    10.0   1_655     S
V3     V5    10.0   .     S
V3     V7    10.0   .     S
V3     V5    10.0   1_655     S
V4     V10    10.0   1_545     S
V4     V3    10.0   1_455     S
V4     V1    10.0   1_455     S
V4     V11    10.0   .     S
V4     V10    10.0   .     S
V4     V11    10.0   1_455     S
V5     V2    10.0   1_545     S
V5     V3    10.0   1_455     S
V5     V6    10.0   .     S
V5     V7    10.0   .     S
V6     V14    10.0   1_545     S
V6     V16    10.0   1_545     S
V6     V16    10.0   1_445     S
V6     V8    10.0   1_455     S
V6     V14    10.0   .     S
V7     V3    10.0   1_545     S
V7     V2    10.0   1_645     S
V7     V2    10.0   1_545     S
V7     V8    10.0   .     S
V8     V16    10.0   .     S
V8     V14    10.0   .     S
V8     V16    10.0   1_545     S
V8     V6    10.0   1_655     S
V8     V14    10.0   1_655     S
V9     V13    10.0   1_455     S
V9     V15    10.0   .     S
V9     V13    10.0   .     S
V9     V10    10.0   .     S
V9     V12    10.0   1_455     S
V9     V15    10.0   1_565     S
V10     V4    10.0   1_565     S
V10     V1    10.0   1_465     S
V10     V1    10.0   1_565     S
V10     V11    10.0   .     S
V11     V1    10.0   1_565     S
V11     V4    10.0   1_655     S
V11     V12    10.0   .     S
V12     V13    10.0   1_565     S
V12     V15    10.0   1_565     S
V12     V13    10.0   .     S
V12     V9    10.0   1_655     S
V12     V15    10.0   1_665     S
V13     V12    10.0   1_545     S
V13     V9    10.0   1_655     S
V13     V14    10.0   1_554     S
V13     V15    10.0   .     S
V14     V6    10.0   1_565     S
V14     V8    10.0   1_455     S
V14     V13    10.0   1_556     S
V14     V16    10.0   .     S
V15     V12    10.0   1_545     S
V15     V12    10.0   1_445     S
V15     V9    10.0   1_545     S
V15     V16    10.0   1_544     S
V16     V6    10.0   1_565     S
V16     V6    10.0   1_665     S
V16     V8    10.0   1_565     S
V16     V15    10.0   1_566     S
