data_wif
_audit_creation_date              2020-02-04
_audit_creation_method            'Pymatgen'
_symmetry_space_group_name_H-M    'P1'
_symmetry_Int_Tables_number       1
loop_
_symmetry_equiv_pos_as_xyz
  x,y,z
_cell_length_a                    23.072
_cell_length_b                    23.072
_cell_length_c                    23.1375
_cell_angle_alpha                 90.0
_cell_angle_beta                 90.0
_cell_angle_gamma                 90.0
loop_
_atom_site_label
_atom_site_type_symbol
_atom_site_fract_x
_atom_site_fract_y
_atom_site_fract_z
V1     V     0.2862   0.4649   0.1528
V2     V     0.7138   0.5351   0.1528
V3     V     0.2862   0.0351   0.0972
V4     V     0.7138   0.9649   0.0972
V5     V     0.0351   0.7862   0.3472
V6     V     0.9649   0.2138   0.3472
V7     V     0.4649   0.7862   0.4028
V8     V     0.5351   0.2138   0.4028
V9     V     0.7862   0.9649   0.6528
V10     V     0.2138   0.0351   0.6528
V11     V     0.7862   0.5351   0.5972
V12     V     0.2138   0.4649   0.5972
V13     V     0.0351   0.7138   0.9028
V14     V     0.9649   0.2862   0.9028
V15     V     0.5351   0.2862   0.8472
V16     V     0.4649   0.7138   0.8472
loop_
_geom_bond_atom_site_label_1
_geom_bond_atom_site_label_2
_geom_bond_distance
_geom_bond_site_symmetry_2
_ccdc_geom_bond_type
V1     V2    10.0   .     S
V1     V3    10.0   .     S
V1     V8    10.0   .     S
V1     V16    10.0   1_554     S
V1     V15    10.0   1_554     S
V1     V13    10.0   1_554     S
V2     V4    10.0   .     S
V2     V7    10.0   .     S
V2     V16    10.0   1_554     S
V2     V15    10.0   1_554     S
V2     V14    10.0   1_554     S
V3     V4    10.0   1_545     S
V3     V7    10.0   1_545     S
V3     V8    10.0   .     S
V3     V5    10.0   1_545     S
V3     V15    10.0   1_554     S
V4     V3    10.0   1_565     S
V4     V7    10.0   .     S
V4     V8    10.0   1_565     S
V4     V6    10.0   1_565     S
V4     V16    10.0   1_554     S
V5     V6    10.0   1_465     S
V5     V7    10.0   .     S
V5     V3    10.0   1_565     S
V5     V9    10.0   1_455     S
V5     V10    10.0   1_565     S
V5     V11    10.0   1_455     S
V6     V5    10.0   1_645     S
V6     V8    10.0   .     S
V6     V4    10.0   1_545     S
V6     V9    10.0   1_545     S
V6     V10    10.0   1_655     S
V6     V12    10.0   1_655     S
V7     V8    10.0   1_565     S
V7     V3    10.0   1_565     S
V7     V10    10.0   1_565     S
V8     V7    10.0   1_545     S
V8     V4    10.0   1_545     S
V8     V9    10.0   1_545     S
V9     V13    10.0   1_655     S
V9     V10    10.0   1_665     S
V9     V11    10.0   .     S
V9     V6    10.0   1_565     S
V9     V5    10.0   1_655     S
V9     V8    10.0   1_565     S
V10     V14    10.0   1_455     S
V10     V9    10.0   1_445     S
V10     V12    10.0   .     S
V10     V6    10.0   1_455     S
V10     V5    10.0   1_545     S
V10     V7    10.0   1_545     S
V11     V13    10.0   1_655     S
V11     V14    10.0   .     S
V11     V15    10.0   .     S
V11     V12    10.0   1_655     S
V11     V5    10.0   1_655     S
V12     V14    10.0   1_455     S
V12     V13    10.0   .     S
V12     V16    10.0   .     S
V12     V11    10.0   1_455     S
V12     V6    10.0   1_455     S
V13     V11    10.0   1_455     S
V13     V9    10.0   1_455     S
V13     V1    10.0   1_556     S
V13     V14    10.0   1_455     S
V13     V16    10.0   .     S
V14     V12    10.0   1_655     S
V14     V10    10.0   1_655     S
V14     V2    10.0   1_556     S
V14     V13    10.0   1_655     S
V14     V15    10.0   .     S
V15     V2    10.0   1_556     S
V15     V1    10.0   1_556     S
V15     V3    10.0   1_556     S
V15     V16    10.0   .     S
V16     V1    10.0   1_556     S
V16     V2    10.0   1_556     S
V16     V4    10.0   1_556     S
