data_wih
_audit_creation_date              2020-02-04
_audit_creation_method            'Pymatgen'
_symmetry_space_group_name_H-M    'P1'
_symmetry_Int_Tables_number       1
loop_
_symmetry_equiv_pos_as_xyz
  x,y,z
_cell_length_a                    64.7065
_cell_length_b                    64.7065
_cell_length_c                    20.0
_cell_angle_alpha                 90.0
_cell_angle_beta                 90.0
_cell_angle_gamma                 90.0
loop_
_atom_site_label
_atom_site_type_symbol
_atom_site_fract_x
_atom_site_fract_y
_atom_site_fract_z
V1     V     0.6831   0.1727   0.25
V2     V     0.6831   0.1727   0.75
V3     V     0.6831   0.3273   0.25
V4     V     0.6831   0.3273   0.75
V5     V     0.8169   0.1727   0.0
V6     V     0.8169   0.1727   0.5
V7     V     0.8169   0.3273   0.0
V8     V     0.8169   0.3273   0.5
V9     V     0.8169   0.8273   0.0
V10     V     0.8169   0.8273   0.5
V11     V     0.8169   0.6727   0.0
V12     V     0.8169   0.6727   0.5
V13     V     0.6831   0.8273   0.25
V14     V     0.6831   0.8273   0.75
V15     V     0.6831   0.6727   0.25
V16     V     0.6831   0.6727   0.75
V17     V     0.9227   0.5669   0.125
V18     V     0.9227   0.5669   0.625
V19     V     0.0773   0.5669   0.125
V20     V     0.0773   0.5669   0.625
V21     V     0.9227   0.4331   0.375
V22     V     0.9227   0.4331   0.875
V23     V     0.0773   0.4331   0.375
V24     V     0.0773   0.4331   0.875
V25     V     0.5773   0.5669   0.125
V26     V     0.5773   0.5669   0.625
V27     V     0.4227   0.5669   0.125
V28     V     0.4227   0.5669   0.625
V29     V     0.5773   0.4331   0.375
V30     V     0.5773   0.4331   0.875
V31     V     0.4227   0.4331   0.375
V32     V     0.4227   0.4331   0.875
V33     V     0.9227   0.0669   0.375
V34     V     0.9227   0.0669   0.875
V35     V     0.0773   0.0669   0.375
V36     V     0.0773   0.0669   0.875
V37     V     0.9227   0.9331   0.125
V38     V     0.9227   0.9331   0.625
V39     V     0.0773   0.9331   0.125
V40     V     0.0773   0.9331   0.625
V41     V     0.5773   0.0669   0.375
V42     V     0.5773   0.0669   0.875
V43     V     0.4227   0.0669   0.375
V44     V     0.4227   0.0669   0.875
V45     V     0.5773   0.9331   0.125
V46     V     0.5773   0.9331   0.625
V47     V     0.4227   0.9331   0.125
V48     V     0.4227   0.9331   0.625
V49     V     0.1831   0.1727   0.0
V50     V     0.1831   0.1727   0.5
V51     V     0.1831   0.3273   0.0
V52     V     0.1831   0.3273   0.5
V53     V     0.3169   0.1727   0.25
V54     V     0.3169   0.1727   0.75
V55     V     0.3169   0.3273   0.25
V56     V     0.3169   0.3273   0.75
V57     V     0.3169   0.8273   0.25
V58     V     0.3169   0.8273   0.75
V59     V     0.3169   0.6727   0.25
V60     V     0.3169   0.6727   0.75
V61     V     0.1831   0.8273   0.0
V62     V     0.1831   0.8273   0.5
V63     V     0.1831   0.6727   0.0
V64     V     0.1831   0.6727   0.5
loop_
_geom_bond_atom_site_label_1
_geom_bond_atom_site_label_2
_geom_bond_distance
_geom_bond_site_symmetry_2
_ccdc_geom_bond_type
V1     V3    10.0   .     S
V1     V2    10.0   1_554     S
V1     V2    10.0   .     S
V1     V6    10.0   .     S
V1     V5    10.0   .     S
V1     V41    10.0   .     S
V2     V4    10.0   .     S
V2     V1    10.0   1_556     S
V2     V5    10.0   1_556     S
V2     V6    10.0   .     S
V2     V42    10.0   .     S
V3     V8    10.0   .     S
V3     V7    10.0   .     S
V3     V4    10.0   1_554     S
V3     V4    10.0   .     S
V3     V29    10.0   .     S
V4     V7    10.0   1_556     S
V4     V8    10.0   .     S
V4     V3    10.0   1_556     S
V4     V30    10.0   .     S
V5     V7    10.0   .     S
V5     V6    10.0   .     S
V5     V6    10.0   1_554     S
V5     V2    10.0   1_554     S
V5     V34    10.0   1_554     S
V6     V8    10.0   .     S
V6     V5    10.0   1_556     S
V6     V33    10.0   .     S
V7     V4    10.0   1_554     S
V7     V8    10.0   .     S
V7     V8    10.0   1_554     S
V7     V22    10.0   1_554     S
V8     V7    10.0   1_556     S
V8     V21    10.0   .     S
V9     V11    10.0   .     S
V9     V10    10.0   .     S
V9     V10    10.0   1_554     S
V9     V13    10.0   .     S
V9     V14    10.0   1_554     S
V9     V37    10.0   .     S
V10     V12    10.0   .     S
V10     V9    10.0   1_556     S
V10     V14    10.0   .     S
V10     V13    10.0   .     S
V10     V38    10.0   .     S
V11     V15    10.0   .     S
V11     V16    10.0   1_554     S
V11     V12    10.0   .     S
V11     V12    10.0   1_554     S
V11     V17    10.0   .     S
V12     V16    10.0   .     S
V12     V15    10.0   .     S
V12     V11    10.0   1_556     S
V12     V18    10.0   .     S
V13     V15    10.0   .     S
V13     V14    10.0   1_554     S
V13     V14    10.0   .     S
V13     V45    10.0   .     S
V14     V16    10.0   .     S
V14     V13    10.0   1_556     S
V14     V9    10.0   1_556     S
V14     V46    10.0   .     S
V15     V16    10.0   1_554     S
V15     V16    10.0   .     S
V15     V25    10.0   .     S
V16     V11    10.0   1_556     S
V16     V15    10.0   1_556     S
V16     V26    10.0   .     S
V17     V19    10.0   1_655     S
V17     V18    10.0   .     S
V17     V18    10.0   1_554     S
V17     V22    10.0   1_554     S
V17     V21    10.0   .     S
V18     V20    10.0   1_655     S
V18     V17    10.0   1_556     S
V18     V21    10.0   .     S
V18     V22    10.0   .     S
V19     V17    10.0   1_455     S
V19     V20    10.0   .     S
V19     V20    10.0   1_554     S
V19     V24    10.0   1_554     S
V19     V23    10.0   .     S
V19     V63    10.0   .     S
V20     V18    10.0   1_455     S
V20     V19    10.0   1_556     S
V20     V23    10.0   .     S
V20     V24    10.0   .     S
V20     V64    10.0   .     S
V21     V23    10.0   1_655     S
V21     V22    10.0   1_554     S
V21     V22    10.0   .     S
V22     V24    10.0   1_655     S
V22     V21    10.0   1_556     S
V22     V17    10.0   1_556     S
V22     V7    10.0   1_556     S
V23     V21    10.0   1_455     S
V23     V24    10.0   1_554     S
V23     V24    10.0   .     S
V23     V52    10.0   .     S
V24     V19    10.0   1_556     S
V24     V22    10.0   1_455     S
V24     V23    10.0   1_556     S
V24     V51    10.0   1_556     S
V25     V27    10.0   .     S
V25     V26    10.0   .     S
V25     V26    10.0   1_554     S
V25     V29    10.0   .     S
V25     V30    10.0   1_554     S
V26     V28    10.0   .     S
V26     V25    10.0   1_556     S
V26     V30    10.0   .     S
V26     V29    10.0   .     S
V27     V28    10.0   .     S
V27     V28    10.0   1_554     S
V27     V31    10.0   .     S
V27     V32    10.0   1_554     S
V27     V59    10.0   .     S
V28     V27    10.0   1_556     S
V28     V32    10.0   .     S
V28     V31    10.0   .     S
V28     V60    10.0   .     S
V29     V31    10.0   .     S
V29     V30    10.0   1_554     S
V29     V30    10.0   .     S
V30     V32    10.0   .     S
V30     V29    10.0   1_556     S
V30     V25    10.0   1_556     S
V31     V32    10.0   1_554     S
V31     V32    10.0   .     S
V31     V55    10.0   .     S
V32     V27    10.0   1_556     S
V32     V31    10.0   1_556     S
V32     V56    10.0   .     S
V33     V35    10.0   1_655     S
V33     V34    10.0   1_554     S
V33     V34    10.0   .     S
V33     V38    10.0   1_545     S
V33     V37    10.0   1_545     S
V34     V36    10.0   1_655     S
V34     V33    10.0   1_556     S
V34     V37    10.0   1_546     S
V34     V38    10.0   1_545     S
V34     V5    10.0   1_556     S
V35     V33    10.0   1_455     S
V35     V36    10.0   1_554     S
V35     V36    10.0   .     S
V35     V40    10.0   1_545     S
V35     V39    10.0   1_545     S
V35     V50    10.0   .     S
V36     V34    10.0   1_455     S
V36     V35    10.0   1_556     S
V36     V39    10.0   1_546     S
V36     V40    10.0   1_545     S
V36     V49    10.0   1_556     S
V37     V34    10.0   1_564     S
V37     V33    10.0   1_565     S
V37     V39    10.0   1_655     S
V37     V38    10.0   .     S
V37     V38    10.0   1_554     S
V38     V33    10.0   1_565     S
V38     V34    10.0   1_565     S
V38     V40    10.0   1_655     S
V38     V37    10.0   1_556     S
V39     V37    10.0   1_455     S
V39     V40    10.0   .     S
V39     V40    10.0   1_554     S
V39     V36    10.0   1_564     S
V39     V35    10.0   1_565     S
V39     V61    10.0   .     S
V40     V38    10.0   1_455     S
V40     V39    10.0   1_556     S
V40     V35    10.0   1_565     S
V40     V36    10.0   1_565     S
V40     V62    10.0   .     S
V41     V43    10.0   .     S
V41     V42    10.0   1_554     S
V41     V42    10.0   .     S
V41     V45    10.0   1_545     S
V41     V46    10.0   1_545     S
V42     V44    10.0   .     S
V42     V41    10.0   1_556     S
V42     V46    10.0   1_545     S
V42     V45    10.0   1_546     S
V43     V44    10.0   1_554     S
V43     V44    10.0   .     S
V43     V47    10.0   1_545     S
V43     V48    10.0   1_545     S
V43     V53    10.0   .     S
V44     V43    10.0   1_556     S
V44     V48    10.0   1_545     S
V44     V47    10.0   1_546     S
V44     V54    10.0   .     S
V45     V41    10.0   1_565     S
V45     V42    10.0   1_564     S
V45     V47    10.0   .     S
V45     V46    10.0   .     S
V45     V46    10.0   1_554     S
V46     V42    10.0   1_565     S
V46     V41    10.0   1_565     S
V46     V48    10.0   .     S
V46     V45    10.0   1_556     S
V47     V48    10.0   .     S
V47     V48    10.0   1_554     S
V47     V43    10.0   1_565     S
V47     V44    10.0   1_564     S
V47     V57    10.0   .     S
V48     V47    10.0   1_556     S
V48     V44    10.0   1_565     S
V48     V43    10.0   1_565     S
V48     V58    10.0   .     S
V49     V36    10.0   1_554     S
V49     V51    10.0   .     S
V49     V50    10.0   .     S
V49     V50    10.0   1_554     S
V49     V54    10.0   1_554     S
V49     V53    10.0   .     S
V50     V52    10.0   .     S
V50     V49    10.0   1_556     S
V50     V53    10.0   .     S
V50     V54    10.0   .     S
V51     V24    10.0   1_554     S
V51     V56    10.0   1_554     S
V51     V55    10.0   .     S
V51     V52    10.0   .     S
V51     V52    10.0   1_554     S
V52     V55    10.0   .     S
V52     V56    10.0   .     S
V52     V51    10.0   1_556     S
V53     V55    10.0   .     S
V53     V54    10.0   1_554     S
V53     V54    10.0   .     S
V54     V56    10.0   .     S
V54     V53    10.0   1_556     S
V54     V49    10.0   1_556     S
V55     V56    10.0   1_554     S
V55     V56    10.0   .     S
V56     V51    10.0   1_556     S
V56     V55    10.0   1_556     S
V57     V59    10.0   .     S
V57     V58    10.0   1_554     S
V57     V58    10.0   .     S
V57     V61    10.0   .     S
V57     V62    10.0   .     S
V58     V60    10.0   .     S
V58     V57    10.0   1_556     S
V58     V62    10.0   .     S
V58     V61    10.0   1_556     S
V59     V63    10.0   .     S
V59     V64    10.0   .     S
V59     V60    10.0   1_554     S
V59     V60    10.0   .     S
V60     V64    10.0   .     S
V60     V63    10.0   1_556     S
V60     V59    10.0   1_556     S
V61     V63    10.0   .     S
V61     V62    10.0   .     S
V61     V62    10.0   1_554     S
V61     V58    10.0   1_554     S
V62     V64    10.0   .     S
V62     V61    10.0   1_556     S
V63     V60    10.0   1_554     S
V63     V64    10.0   .     S
V63     V64    10.0   1_554     S
V64     V63    10.0   1_556     S
