data_wii
_audit_creation_date              2020-02-04
_audit_creation_method            'Pymatgen'
_symmetry_space_group_name_H-M    'P1'
_symmetry_Int_Tables_number       1
loop_
_symmetry_equiv_pos_as_xyz
  x,y,z
_cell_length_a                    63.8599
_cell_length_b                    63.8599
_cell_length_c                    20.0
_cell_angle_alpha                 90.0
_cell_angle_beta                 90.0
_cell_angle_gamma                 90.0
loop_
_atom_site_label
_atom_site_type_symbol
_atom_site_fract_x
_atom_site_fract_y
_atom_site_fract_z
V1     V     0.3258   0.1717   0.1875
V2     V     0.3258   0.1717   0.6875
V3     V     0.4217   0.0758   0.4375
V4     V     0.4217   0.0758   0.9375
V5     V     0.3258   0.8283   0.3125
V6     V     0.3258   0.8283   0.8125
V7     V     0.4217   0.9242   0.0625
V8     V     0.4217   0.9242   0.5625
V9     V     0.0783   0.9242   0.1875
V10     V     0.0783   0.9242   0.6875
V11     V     0.1742   0.8283   0.4375
V12     V     0.1742   0.8283   0.9375
V13     V     0.0783   0.0758   0.3125
V14     V     0.0783   0.0758   0.8125
V15     V     0.1742   0.1717   0.0625
V16     V     0.1742   0.1717   0.5625
V17     V     0.1742   0.6717   0.4375
V18     V     0.1742   0.6717   0.9375
V19     V     0.0783   0.5758   0.1875
V20     V     0.0783   0.5758   0.6875
V21     V     0.3258   0.6717   0.3125
V22     V     0.3258   0.6717   0.8125
V23     V     0.4217   0.5758   0.0625
V24     V     0.4217   0.5758   0.5625
V25     V     0.3258   0.3283   0.1875
V26     V     0.3258   0.3283   0.6875
V27     V     0.4217   0.4242   0.4375
V28     V     0.4217   0.4242   0.9375
V29     V     0.0783   0.4242   0.3125
V30     V     0.0783   0.4242   0.8125
V31     V     0.1742   0.3283   0.0625
V32     V     0.1742   0.3283   0.5625
V33     V     0.5783   0.0758   0.4375
V34     V     0.5783   0.0758   0.9375
V35     V     0.6742   0.1717   0.1875
V36     V     0.6742   0.1717   0.6875
V37     V     0.9217   0.0758   0.3125
V38     V     0.9217   0.0758   0.8125
V39     V     0.8258   0.1717   0.0625
V40     V     0.8258   0.1717   0.5625
V41     V     0.5783   0.9242   0.0625
V42     V     0.5783   0.9242   0.5625
V43     V     0.6742   0.8283   0.3125
V44     V     0.6742   0.8283   0.8125
V45     V     0.9217   0.9242   0.1875
V46     V     0.9217   0.9242   0.6875
V47     V     0.8258   0.8283   0.4375
V48     V     0.8258   0.8283   0.9375
V49     V     0.5783   0.5758   0.0625
V50     V     0.5783   0.5758   0.5625
V51     V     0.6742   0.6717   0.3125
V52     V     0.6742   0.6717   0.8125
V53     V     0.6742   0.3283   0.1875
V54     V     0.6742   0.3283   0.6875
V55     V     0.5783   0.4242   0.4375
V56     V     0.5783   0.4242   0.9375
V57     V     0.8258   0.3283   0.0625
V58     V     0.8258   0.3283   0.5625
V59     V     0.9217   0.4242   0.3125
V60     V     0.9217   0.4242   0.8125
V61     V     0.8258   0.6717   0.4375
V62     V     0.8258   0.6717   0.9375
V63     V     0.9217   0.5758   0.1875
V64     V     0.9217   0.5758   0.6875
loop_
_geom_bond_atom_site_label_1
_geom_bond_atom_site_label_2
_geom_bond_distance
_geom_bond_site_symmetry_2
_ccdc_geom_bond_type
V1     V4    10.0   1_554     S
V1     V2    10.0   .     S
V1     V2    10.0   1_554     S
V1     V3    10.0   .     S
V1     V15    10.0   .     S
V1     V25    10.0   .     S
V2     V3    10.0   .     S
V2     V1    10.0   1_556     S
V2     V4    10.0   .     S
V2     V16    10.0   .     S
V2     V26    10.0   .     S
V3     V4    10.0   1_554     S
V3     V4    10.0   .     S
V3     V8    10.0   1_545     S
V3     V33    10.0   .     S
V4     V1    10.0   1_556     S
V4     V3    10.0   1_556     S
V4     V7    10.0   1_546     S
V4     V34    10.0   .     S
V5     V8    10.0   .     S
V5     V6    10.0   1_554     S
V5     V6    10.0   .     S
V5     V7    10.0   .     S
V5     V11    10.0   .     S
V5     V21    10.0   .     S
V6     V7    10.0   1_556     S
V6     V5    10.0   1_556     S
V6     V8    10.0   .     S
V6     V12    10.0   .     S
V6     V22    10.0   .     S
V7     V4    10.0   1_564     S
V7     V6    10.0   1_554     S
V7     V8    10.0   .     S
V7     V8    10.0   1_554     S
V7     V41    10.0   .     S
V8     V3    10.0   1_565     S
V8     V7    10.0   1_556     S
V8     V42    10.0   .     S
V9     V11    10.0   .     S
V9     V10    10.0   .     S
V9     V10    10.0   1_554     S
V9     V12    10.0   1_554     S
V9     V13    10.0   1_565     S
V9     V45    10.0   1_455     S
V10     V12    10.0   .     S
V10     V9    10.0   1_556     S
V10     V11    10.0   .     S
V10     V14    10.0   1_565     S
V10     V46    10.0   1_455     S
V11     V12    10.0   1_554     S
V11     V12    10.0   .     S
V11     V17    10.0   .     S
V12     V9    10.0   1_556     S
V12     V11    10.0   1_556     S
V12     V18    10.0   .     S
V13     V15    10.0   .     S
V13     V14    10.0   1_554     S
V13     V14    10.0   .     S
V13     V16    10.0   .     S
V13     V9    10.0   1_545     S
V13     V37    10.0   1_455     S
V14     V16    10.0   .     S
V14     V13    10.0   1_556     S
V14     V15    10.0   1_556     S
V14     V10    10.0   1_545     S
V14     V38    10.0   1_455     S
V15     V14    10.0   1_554     S
V15     V16    10.0   .     S
V15     V16    10.0   1_554     S
V15     V31    10.0   .     S
V16     V15    10.0   1_556     S
V16     V32    10.0   .     S
V17     V19    10.0   .     S
V17     V18    10.0   1_554     S
V17     V18    10.0   .     S
V17     V20    10.0   .     S
V17     V21    10.0   .     S
V18     V20    10.0   .     S
V18     V17    10.0   1_556     S
V18     V19    10.0   1_556     S
V18     V22    10.0   .     S
V19     V18    10.0   1_554     S
V19     V20    10.0   .     S
V19     V20    10.0   1_554     S
V19     V29    10.0   .     S
V19     V63    10.0   1_455     S
V20     V19    10.0   1_556     S
V20     V30    10.0   .     S
V20     V64    10.0   1_455     S
V21     V24    10.0   .     S
V21     V22    10.0   1_554     S
V21     V22    10.0   .     S
V21     V23    10.0   .     S
V22     V23    10.0   1_556     S
V22     V21    10.0   1_556     S
V22     V24    10.0   .     S
V23     V22    10.0   1_554     S
V23     V24    10.0   .     S
V23     V24    10.0   1_554     S
V23     V28    10.0   1_554     S
V23     V49    10.0   .     S
V24     V23    10.0   1_556     S
V24     V27    10.0   .     S
V24     V50    10.0   .     S
V25     V28    10.0   1_554     S
V25     V26    10.0   .     S
V25     V26    10.0   1_554     S
V25     V27    10.0   .     S
V25     V31    10.0   .     S
V26     V27    10.0   .     S
V26     V25    10.0   1_556     S
V26     V28    10.0   .     S
V26     V32    10.0   .     S
V27     V28    10.0   1_554     S
V27     V28    10.0   .     S
V27     V55    10.0   .     S
V28     V23    10.0   1_556     S
V28     V25    10.0   1_556     S
V28     V27    10.0   1_556     S
V28     V56    10.0   .     S
V29     V31    10.0   .     S
V29     V30    10.0   1_554     S
V29     V30    10.0   .     S
V29     V32    10.0   .     S
V29     V59    10.0   1_455     S
V30     V32    10.0   .     S
V30     V29    10.0   1_556     S
V30     V31    10.0   1_556     S
V30     V60    10.0   1_455     S
V31     V30    10.0   1_554     S
V31     V32    10.0   .     S
V31     V32    10.0   1_554     S
V32     V31    10.0   1_556     S
V33     V36    10.0   .     S
V33     V34    10.0   1_554     S
V33     V34    10.0   .     S
V33     V35    10.0   .     S
V33     V42    10.0   1_545     S
V34     V35    10.0   1_556     S
V34     V33    10.0   1_556     S
V34     V36    10.0   .     S
V34     V41    10.0   1_546     S
V35     V34    10.0   1_554     S
V35     V36    10.0   .     S
V35     V36    10.0   1_554     S
V35     V39    10.0   .     S
V35     V53    10.0   .     S
V36     V35    10.0   1_556     S
V36     V40    10.0   .     S
V36     V54    10.0   .     S
V37     V13    10.0   1_655     S
V37     V39    10.0   .     S
V37     V38    10.0   1_554     S
V37     V38    10.0   .     S
V37     V40    10.0   .     S
V37     V45    10.0   1_545     S
V38     V14    10.0   1_655     S
V38     V40    10.0   .     S
V38     V37    10.0   1_556     S
V38     V39    10.0   1_556     S
V38     V46    10.0   1_545     S
V39     V38    10.0   1_554     S
V39     V40    10.0   .     S
V39     V40    10.0   1_554     S
V39     V57    10.0   .     S
V40     V39    10.0   1_556     S
V40     V58    10.0   .     S
V41     V44    10.0   1_554     S
V41     V42    10.0   .     S
V41     V42    10.0   1_554     S
V41     V43    10.0   .     S
V41     V34    10.0   1_564     S
V42     V43    10.0   .     S
V42     V41    10.0   1_556     S
V42     V44    10.0   .     S
V42     V33    10.0   1_565     S
V43     V44    10.0   1_554     S
V43     V44    10.0   .     S
V43     V47    10.0   .     S
V43     V51    10.0   .     S
V44     V41    10.0   1_556     S
V44     V43    10.0   1_556     S
V44     V48    10.0   .     S
V44     V52    10.0   .     S
V45     V9    10.0   1_655     S
V45     V47    10.0   .     S
V45     V46    10.0   .     S
V45     V46    10.0   1_554     S
V45     V48    10.0   1_554     S
V45     V37    10.0   1_565     S
V46     V10    10.0   1_655     S
V46     V48    10.0   .     S
V46     V45    10.0   1_556     S
V46     V47    10.0   .     S
V46     V38    10.0   1_565     S
V47     V48    10.0   1_554     S
V47     V48    10.0   .     S
V47     V61    10.0   .     S
V48     V45    10.0   1_556     S
V48     V47    10.0   1_556     S
V48     V62    10.0   .     S
V49     V52    10.0   1_554     S
V49     V50    10.0   .     S
V49     V50    10.0   1_554     S
V49     V51    10.0   .     S
V49     V56    10.0   1_554     S
V50     V51    10.0   .     S
V50     V49    10.0   1_556     S
V50     V52    10.0   .     S
V50     V55    10.0   .     S
V51     V52    10.0   1_554     S
V51     V52    10.0   .     S
V51     V61    10.0   .     S
V52     V49    10.0   1_556     S
V52     V51    10.0   1_556     S
V52     V62    10.0   .     S
V53     V56    10.0   1_554     S
V53     V54    10.0   .     S
V53     V54    10.0   1_554     S
V53     V55    10.0   .     S
V53     V57    10.0   .     S
V54     V55    10.0   .     S
V54     V53    10.0   1_556     S
V54     V56    10.0   .     S
V54     V58    10.0   .     S
V55     V56    10.0   1_554     S
V55     V56    10.0   .     S
V56     V53    10.0   1_556     S
V56     V55    10.0   1_556     S
V56     V49    10.0   1_556     S
V57     V59    10.0   .     S
V57     V58    10.0   .     S
V57     V58    10.0   1_554     S
V57     V60    10.0   1_554     S
V58     V60    10.0   .     S
V58     V57    10.0   1_556     S
V58     V59    10.0   .     S
V59     V29    10.0   1_655     S
V59     V60    10.0   1_554     S
V59     V60    10.0   .     S
V59     V63    10.0   .     S
V60     V30    10.0   1_655     S
V60     V57    10.0   1_556     S
V60     V59    10.0   1_556     S
V60     V64    10.0   .     S
V61     V63    10.0   .     S
V61     V62    10.0   1_554     S
V61     V62    10.0   .     S
V61     V64    10.0   .     S
V62     V64    10.0   .     S
V62     V61    10.0   1_556     S
V62     V63    10.0   1_556     S
V63     V19    10.0   1_655     S
V63     V64    10.0   .     S
V63     V64    10.0   1_554     S
V63     V62    10.0   1_554     S
V64     V20    10.0   1_655     S
V64     V63    10.0   1_556     S
