data_wij
_audit_creation_date              2020-02-04
_audit_creation_method            'Pymatgen'
_symmetry_space_group_name_H-M    'P1'
_symmetry_Int_Tables_number       1
loop_
_symmetry_equiv_pos_as_xyz
  x,y,z
_cell_length_a                    65.2373
_cell_length_b                    65.2373
_cell_length_c                    19.9998
_cell_angle_alpha                 90.0
_cell_angle_beta                 90.0
_cell_angle_gamma                 90.0
loop_
_atom_site_label
_atom_site_type_symbol
_atom_site_fract_x
_atom_site_fract_y
_atom_site_fract_z
V1     V     0.8258   0.3164   0.0361
V2     V     0.8258   0.3164   0.5361
V3     V     0.9336   0.4242   0.0889
V4     V     0.9336   0.4242   0.5889
V5     V     0.5664   0.4242   0.4111
V6     V     0.5664   0.4242   0.9111
V7     V     0.6742   0.3164   0.4639
V8     V     0.6742   0.3164   0.9639
V9     V     0.8258   0.6836   0.2139
V10     V     0.8258   0.6836   0.7139
V11     V     0.9336   0.5758   0.1611
V12     V     0.9336   0.5758   0.6611
V13     V     0.6742   0.6836   0.2861
V14     V     0.6742   0.6836   0.7861
V15     V     0.5664   0.5758   0.3389
V16     V     0.5664   0.5758   0.8389
V17     V     0.0664   0.4242   0.3389
V18     V     0.0664   0.4242   0.8389
V19     V     0.1742   0.3164   0.2861
V20     V     0.1742   0.3164   0.7861
V21     V     0.1742   0.6836   0.4639
V22     V     0.1742   0.6836   0.9639
V23     V     0.0664   0.5758   0.4111
V24     V     0.0664   0.5758   0.9111
V25     V     0.3258   0.6836   0.0361
V26     V     0.3258   0.6836   0.5361
V27     V     0.4336   0.5758   0.0889
V28     V     0.4336   0.5758   0.5889
V29     V     0.3258   0.3164   0.2139
V30     V     0.3258   0.3164   0.7139
V31     V     0.4336   0.4242   0.1611
V32     V     0.4336   0.4242   0.6611
V33     V     0.6742   0.8164   0.0361
V34     V     0.6742   0.8164   0.5361
V35     V     0.5664   0.9242   0.0889
V36     V     0.5664   0.9242   0.5889
V37     V     0.6742   0.1836   0.2139
V38     V     0.6742   0.1836   0.7139
V39     V     0.5664   0.0758   0.1611
V40     V     0.5664   0.0758   0.6611
V41     V     0.8258   0.8164   0.4639
V42     V     0.8258   0.8164   0.9639
V43     V     0.9336   0.9242   0.4111
V44     V     0.9336   0.9242   0.9111
V45     V     0.8258   0.1836   0.2861
V46     V     0.8258   0.1836   0.7861
V47     V     0.9336   0.0758   0.3389
V48     V     0.9336   0.0758   0.8389
V49     V     0.1742   0.8164   0.2139
V50     V     0.1742   0.8164   0.7139
V51     V     0.0664   0.9242   0.1611
V52     V     0.0664   0.9242   0.6611
V53     V     0.3258   0.8164   0.2861
V54     V     0.3258   0.8164   0.7861
V55     V     0.4336   0.9242   0.3389
V56     V     0.4336   0.9242   0.8389
V57     V     0.1742   0.1836   0.0361
V58     V     0.1742   0.1836   0.5361
V59     V     0.0664   0.0758   0.0889
V60     V     0.0664   0.0758   0.5889
V61     V     0.3258   0.1836   0.4639
V62     V     0.3258   0.1836   0.9639
V63     V     0.4336   0.0758   0.4111
V64     V     0.4336   0.0758   0.9111
loop_
_geom_bond_atom_site_label_1
_geom_bond_atom_site_label_2
_geom_bond_distance
_geom_bond_site_symmetry_2
_ccdc_geom_bond_type
V1     V3    10.0   .     S
V1     V2    10.0   .     S
V1     V2    10.0   1_554     S
V1     V8    10.0   1_554     S
V1     V46    10.001   1_554     S
V1     V45    10.001   .     S
V2     V4    10.0   .     S
V2     V1    10.0   1_556     S
V2     V7    10.0   .     S
V2     V45    10.001   .     S
V2     V46    10.001   .     S
V3     V18    10.001   1_654     S
V3     V17    10.001   1_655     S
V3     V4    10.0   .     S
V3     V4    10.0   1_554     S
V3     V11    10.0   .     S
V4     V17    10.001   1_655     S
V4     V18    10.001   1_655     S
V4     V3    10.0   1_556     S
V4     V12    10.0   .     S
V5     V32    10.001   .     S
V5     V31    10.001   .     S
V5     V7    10.0   .     S
V5     V6    10.0   1_554     S
V5     V6    10.0   .     S
V5     V15    10.0   .     S
V6     V31    10.001   1_556     S
V6     V32    10.001   .     S
V6     V8    10.0   .     S
V6     V5    10.0   1_556     S
V6     V16    10.0   .     S
V7     V38    10.001   .     S
V7     V37    10.001   .     S
V7     V8    10.0   1_554     S
V7     V8    10.0   .     S
V8     V37    10.001   1_556     S
V8     V38    10.001   .     S
V8     V7    10.0   1_556     S
V8     V1    10.0   1_556     S
V9     V41    10.001   .     S
V9     V42    10.001   1_554     S
V9     V11    10.0   .     S
V9     V10    10.0   .     S
V9     V10    10.0   1_554     S
V9     V13    10.0   .     S
V10     V42    10.001   .     S
V10     V41    10.001   .     S
V10     V12    10.0   .     S
V10     V9    10.0   1_556     S
V10     V14    10.0   .     S
V11     V23    10.001   1_655     S
V11     V24    10.001   1_654     S
V11     V12    10.0   .     S
V11     V12    10.0   1_554     S
V12     V24    10.001   1_655     S
V12     V23    10.001   1_655     S
V12     V11    10.0   1_556     S
V13     V33    10.001   .     S
V13     V34    10.001   .     S
V13     V15    10.0   .     S
V13     V14    10.0   1_554     S
V13     V14    10.0   .     S
V14     V34    10.001   .     S
V14     V33    10.001   1_556     S
V14     V16    10.0   .     S
V14     V13    10.0   1_556     S
V15     V16    10.0   1_554     S
V15     V16    10.0   .     S
V15     V27    10.001   .     S
V15     V28    10.001   .     S
V16     V15    10.0   1_556     S
V16     V28    10.001   .     S
V16     V27    10.001   1_556     S
V17     V4    10.001   1_455     S
V17     V3    10.001   1_455     S
V17     V19    10.0   .     S
V17     V18    10.0   1_554     S
V17     V18    10.0   .     S
V17     V23    10.0   .     S
V18     V3    10.001   1_456     S
V18     V4    10.001   1_455     S
V18     V20    10.0   .     S
V18     V17    10.0   1_556     S
V18     V24    10.0   .     S
V19     V57    10.001   .     S
V19     V58    10.001   .     S
V19     V20    10.0   1_554     S
V19     V20    10.0   .     S
V19     V29    10.0   .     S
V20     V58    10.001   .     S
V20     V57    10.001   1_556     S
V20     V19    10.0   1_556     S
V20     V30    10.0   .     S
V21     V50    10.001   .     S
V21     V49    10.001   .     S
V21     V23    10.0   .     S
V21     V22    10.0   1_554     S
V21     V22    10.0   .     S
V21     V26    10.0   .     S
V22     V49    10.001   1_556     S
V22     V50    10.001   .     S
V22     V24    10.0   .     S
V22     V21    10.0   1_556     S
V22     V25    10.0   1_556     S
V23     V11    10.001   1_455     S
V23     V12    10.001   1_455     S
V23     V24    10.0   1_554     S
V23     V24    10.0   .     S
V24     V12    10.001   1_455     S
V24     V11    10.001   1_456     S
V24     V23    10.0   1_556     S
V25     V54    10.001   1_554     S
V25     V53    10.001   .     S
V25     V22    10.0   1_554     S
V25     V27    10.0   .     S
V25     V26    10.0   .     S
V25     V26    10.0   1_554     S
V26     V53    10.001   .     S
V26     V54    10.001   .     S
V26     V28    10.0   .     S
V26     V25    10.0   1_556     S
V27     V16    10.001   1_554     S
V27     V28    10.0   .     S
V27     V28    10.0   1_554     S
V27     V31    10.0   .     S
V28     V27    10.0   1_556     S
V28     V32    10.0   .     S
V29     V31    10.0   .     S
V29     V30    10.0   .     S
V29     V30    10.0   1_554     S
V29     V61    10.001   .     S
V29     V62    10.001   1_554     S
V30     V32    10.0   .     S
V30     V29    10.0   1_556     S
V30     V62    10.001   .     S
V30     V61    10.001   .     S
V31     V6    10.001   1_554     S
V31     V32    10.0   .     S
V31     V32    10.0   1_554     S
V32     V31    10.0   1_556     S
V33     V14    10.001   1_554     S
V33     V35    10.0   .     S
V33     V34    10.0   .     S
V33     V34    10.0   1_554     S
V33     V42    10.0   1_554     S
V34     V36    10.0   .     S
V34     V33    10.0   1_556     S
V34     V41    10.0   .     S
V35     V55    10.001   .     S
V35     V56    10.001   1_554     S
V35     V36    10.0   .     S
V35     V36    10.0   1_554     S
V35     V39    10.0   1_565     S
V36     V56    10.001   .     S
V36     V55    10.001   .     S
V36     V35    10.0   1_556     S
V36     V40    10.0   1_565     S
V37     V8    10.001   1_554     S
V37     V39    10.0   .     S
V37     V38    10.0   .     S
V37     V38    10.0   1_554     S
V37     V45    10.0   .     S
V38     V40    10.0   .     S
V38     V37    10.0   1_556     S
V38     V46    10.0   .     S
V39     V64    10.001   1_554     S
V39     V63    10.001   .     S
V39     V40    10.0   .     S
V39     V40    10.0   1_554     S
V39     V35    10.0   1_545     S
V40     V63    10.001   .     S
V40     V64    10.001   .     S
V40     V39    10.0   1_556     S
V40     V36    10.0   1_545     S
V41     V43    10.0   .     S
V41     V42    10.0   1_554     S
V41     V42    10.0   .     S
V42     V9    10.001   1_556     S
V42     V33    10.0   1_556     S
V42     V44    10.0   .     S
V42     V41    10.0   1_556     S
V43     V51    10.001   1_655     S
V43     V52    10.001   1_655     S
V43     V44    10.0   1_554     S
V43     V44    10.0   .     S
V43     V47    10.0   1_565     S
V44     V52    10.001   1_655     S
V44     V51    10.001   1_656     S
V44     V43    10.0   1_556     S
V44     V48    10.0   1_565     S
V45     V47    10.0   .     S
V45     V46    10.0   1_554     S
V45     V46    10.0   .     S
V46     V1    10.001   1_556     S
V46     V48    10.0   .     S
V46     V45    10.0   1_556     S
V47     V48    10.0   1_554     S
V47     V48    10.0   .     S
V47     V43    10.0   1_545     S
V47     V60    10.001   1_655     S
V47     V59    10.001   1_655     S
V48     V47    10.0   1_556     S
V48     V44    10.0   1_545     S
V48     V59    10.001   1_656     S
V48     V60    10.001   1_655     S
V49     V22    10.001   1_554     S
V49     V51    10.0   .     S
V49     V50    10.0   .     S
V49     V50    10.0   1_554     S
V49     V53    10.0   .     S
V50     V52    10.0   .     S
V50     V49    10.0   1_556     S
V50     V54    10.0   .     S
V51     V43    10.001   1_455     S
V51     V44    10.001   1_454     S
V51     V52    10.0   .     S
V51     V52    10.0   1_554     S
V51     V59    10.0   1_565     S
V52     V44    10.001   1_455     S
V52     V43    10.001   1_455     S
V52     V51    10.0   1_556     S
V52     V60    10.0   1_565     S
V53     V55    10.0   .     S
V53     V54    10.0   1_554     S
V53     V54    10.0   .     S
V54     V25    10.001   1_556     S
V54     V56    10.0   .     S
V54     V53    10.0   1_556     S
V55     V56    10.0   1_554     S
V55     V56    10.0   .     S
V55     V63    10.0   1_565     S
V56     V35    10.001   1_556     S
V56     V55    10.0   1_556     S
V56     V64    10.0   1_565     S
V57     V20    10.001   1_554     S
V57     V59    10.0   .     S
V57     V58    10.0   .     S
V57     V58    10.0   1_554     S
V57     V62    10.0   1_554     S
V58     V60    10.0   .     S
V58     V57    10.0   1_556     S
V58     V61    10.0   .     S
V59     V48    10.001   1_454     S
V59     V47    10.001   1_455     S
V59     V60    10.0   .     S
V59     V60    10.0   1_554     S
V59     V51    10.0   1_545     S
V60     V47    10.001   1_455     S
V60     V48    10.001   1_455     S
V60     V59    10.0   1_556     S
V60     V52    10.0   1_545     S
V61     V63    10.0   .     S
V61     V62    10.0   1_554     S
V61     V62    10.0   .     S
V62     V29    10.001   1_556     S
V62     V57    10.0   1_556     S
V62     V64    10.0   .     S
V62     V61    10.0   1_556     S
V63     V64    10.0   1_554     S
V63     V64    10.0   .     S
V63     V55    10.0   1_545     S
V64     V39    10.001   1_556     S
V64     V63    10.0   1_556     S
V64     V56    10.0   1_545     S
