data_wik
_audit_creation_date              2020-02-04
_audit_creation_method            'Pymatgen'
_symmetry_space_group_name_H-M    'P1'
_symmetry_Int_Tables_number       1
loop_
_symmetry_equiv_pos_as_xyz
  x,y,z
_cell_length_a                    62.1741
_cell_length_b                    62.1741
_cell_length_c                    20.0
_cell_angle_alpha                 90.0
_cell_angle_beta                 90.0
_cell_angle_gamma                 90.0
loop_
_atom_site_label
_atom_site_type_symbol
_atom_site_fract_x
_atom_site_fract_y
_atom_site_fract_z
V1     V     0.4304   0.4274   0.0174
V2     V     0.4304   0.4274   0.5174
V3     V     0.5696   0.4274   0.2674
V4     V     0.5696   0.4274   0.7674
V5     V     0.6774   0.3196   0.1076
V6     V     0.6774   0.3196   0.6076
V7     V     0.6774   0.1804   0.3576
V8     V     0.6774   0.1804   0.8576
V9     V     0.4304   0.0726   0.2674
V10     V     0.4304   0.0726   0.7674
V11     V     0.5696   0.0726   0.0174
V12     V     0.5696   0.0726   0.5174
V13     V     0.3226   0.3196   0.3576
V14     V     0.3226   0.3196   0.8576
V15     V     0.3226   0.1804   0.1076
V16     V     0.3226   0.1804   0.6076
V17     V     0.6774   0.8196   0.3924
V18     V     0.6774   0.8196   0.8924
V19     V     0.6774   0.6804   0.1424
V20     V     0.6774   0.6804   0.6424
V21     V     0.4304   0.9274   0.4826
V22     V     0.4304   0.9274   0.9826
V23     V     0.5696   0.9274   0.2326
V24     V     0.5696   0.9274   0.7326
V25     V     0.3226   0.6804   0.3924
V26     V     0.3226   0.6804   0.8924
V27     V     0.3226   0.8196   0.1424
V28     V     0.3226   0.8196   0.6424
V29     V     0.4304   0.5726   0.2326
V30     V     0.4304   0.5726   0.7326
V31     V     0.5696   0.5726   0.4826
V32     V     0.5696   0.5726   0.9826
V33     V     0.8226   0.6804   0.3576
V34     V     0.8226   0.6804   0.8576
V35     V     0.8226   0.8196   0.1076
V36     V     0.8226   0.8196   0.6076
V37     V     0.0696   0.9274   0.0174
V38     V     0.0696   0.9274   0.5174
V39     V     0.9304   0.9274   0.2674
V40     V     0.9304   0.9274   0.7674
V41     V     0.1774   0.6804   0.1076
V42     V     0.1774   0.6804   0.6076
V43     V     0.1774   0.8196   0.3576
V44     V     0.1774   0.8196   0.8576
V45     V     0.0696   0.5726   0.2674
V46     V     0.0696   0.5726   0.7674
V47     V     0.9304   0.5726   0.0174
V48     V     0.9304   0.5726   0.5174
V49     V     0.0696   0.0726   0.2326
V50     V     0.0696   0.0726   0.7326
V51     V     0.9304   0.0726   0.4826
V52     V     0.9304   0.0726   0.9826
V53     V     0.8226   0.3196   0.3924
V54     V     0.8226   0.3196   0.8924
V55     V     0.8226   0.1804   0.1424
V56     V     0.8226   0.1804   0.6424
V57     V     0.1774   0.3196   0.1424
V58     V     0.1774   0.3196   0.6424
V59     V     0.1774   0.1804   0.3924
V60     V     0.1774   0.1804   0.8924
V61     V     0.0696   0.4274   0.4826
V62     V     0.0696   0.4274   0.9826
V63     V     0.9304   0.4274   0.2326
V64     V     0.9304   0.4274   0.7326
loop_
_geom_bond_atom_site_label_1
_geom_bond_atom_site_label_2
_geom_bond_distance
_geom_bond_site_symmetry_2
_ccdc_geom_bond_type
V1     V2    10.0   .     S
V1     V2    10.0   1_554     S
V1     V3    9.999   .     S
V1     V4    9.999   1_554     S
V1     V14    10.0   1_554     S
V1     V29    10.0   .     S
V2     V1    10.0   1_556     S
V2     V4    9.999   .     S
V2     V3    9.999   .     S
V2     V13    10.0   .     S
V2     V30    10.0   .     S
V3     V4    10.0   1_554     S
V3     V4    10.0   .     S
V3     V5    10.0   .     S
V3     V31    10.0   .     S
V4     V1    9.999   1_556     S
V4     V3    10.0   1_556     S
V4     V6    10.0   .     S
V4     V32    10.0   .     S
V5     V6    10.0   .     S
V5     V6    10.0   1_554     S
V5     V8    9.999   1_554     S
V5     V7    9.999   .     S
V5     V54    10.0   1_554     S
V6     V5    10.0   1_556     S
V6     V7    9.999   .     S
V6     V8    9.999   .     S
V6     V53    10.0   .     S
V7     V8    10.0   1_554     S
V7     V8    10.0   .     S
V7     V12    10.0   .     S
V7     V55    10.0   .     S
V8     V5    9.999   1_556     S
V8     V7    10.0   1_556     S
V8     V11    10.0   1_556     S
V8     V56    10.0   .     S
V9     V10    10.0   1_554     S
V9     V10    10.0   .     S
V9     V11    9.999   .     S
V9     V12    9.999   .     S
V9     V15    10.0   .     S
V9     V21    10.0   1_545     S
V10     V9    10.0   1_556     S
V10     V12    9.999   .     S
V10     V11    9.999   1_556     S
V10     V16    10.0   .     S
V10     V22    10.0   1_545     S
V11     V12    10.0   .     S
V11     V12    10.0   1_554     S
V11     V10    9.999   1_554     S
V11     V8    10.0   1_554     S
V11     V23    10.0   1_545     S
V12     V11    10.0   1_556     S
V12     V24    10.0   1_545     S
V13     V16    9.999   .     S
V13     V14    10.0   1_554     S
V13     V14    10.0   .     S
V13     V15    9.999   .     S
V13     V57    10.0   .     S
V14     V1    10.0   1_556     S
V14     V15    9.999   1_556     S
V14     V13    10.0   1_556     S
V14     V16    9.999   .     S
V14     V58    10.0   .     S
V15     V14    9.999   1_554     S
V15     V16    10.0   .     S
V15     V16    10.0   1_554     S
V15     V60    10.0   1_554     S
V16     V15    10.0   1_556     S
V16     V59    10.0   .     S
V17     V20    9.999   .     S
V17     V18    10.0   1_554     S
V17     V18    10.0   .     S
V17     V19    9.999   .     S
V17     V23    10.0   .     S
V17     V36    10.0   .     S
V18     V19    9.999   1_556     S
V18     V17    10.0   1_556     S
V18     V20    9.999   .     S
V18     V24    10.0   .     S
V18     V35    10.0   1_556     S
V19     V18    9.999   1_554     S
V19     V20    10.0   .     S
V19     V20    10.0   1_554     S
V19     V32    10.0   1_554     S
V19     V33    10.0   .     S
V20     V19    10.0   1_556     S
V20     V31    10.0   .     S
V20     V34    10.0   .     S
V21     V9    10.0   1_565     S
V21     V22    10.0   1_554     S
V21     V22    10.0   .     S
V21     V24    9.999   .     S
V21     V23    9.999   .     S
V21     V28    10.0   .     S
V22     V10    10.0   1_565     S
V22     V21    10.0   1_556     S
V22     V23    9.999   1_556     S
V22     V24    9.999   .     S
V22     V27    10.0   1_556     S
V23     V22    9.999   1_554     S
V23     V24    10.0   .     S
V23     V24    10.0   1_554     S
V23     V11    10.0   1_565     S
V24     V23    10.0   1_556     S
V24     V12    10.0   1_565     S
V25     V28    9.999   .     S
V25     V26    10.0   1_554     S
V25     V26    10.0   .     S
V25     V27    9.999   .     S
V25     V29    10.0   .     S
V25     V42    10.0   .     S
V26     V27    9.999   1_556     S
V26     V25    10.0   1_556     S
V26     V28    9.999   .     S
V26     V30    10.0   .     S
V26     V41    10.0   1_556     S
V27     V22    10.0   1_554     S
V27     V26    9.999   1_554     S
V27     V28    10.0   .     S
V27     V28    10.0   1_554     S
V27     V43    10.0   .     S
V28     V27    10.0   1_556     S
V28     V44    10.0   .     S
V29     V30    10.0   .     S
V29     V30    10.0   1_554     S
V29     V31    9.999   .     S
V29     V32    9.999   1_554     S
V30     V29    10.0   1_556     S
V30     V32    9.999   .     S
V30     V31    9.999   .     S
V31     V32    10.0   1_554     S
V31     V32    10.0   .     S
V32     V19    10.0   1_556     S
V32     V29    9.999   1_556     S
V32     V31    10.0   1_556     S
V33     V36    9.999   .     S
V33     V34    10.0   1_554     S
V33     V34    10.0   .     S
V33     V35    9.999   .     S
V33     V48    10.0   .     S
V34     V35    9.999   1_556     S
V34     V33    10.0   1_556     S
V34     V36    9.999   .     S
V34     V47    10.0   1_556     S
V35     V18    10.0   1_554     S
V35     V34    9.999   1_554     S
V35     V36    10.0   .     S
V35     V36    10.0   1_554     S
V35     V39    10.0   .     S
V36     V35    10.0   1_556     S
V36     V40    10.0   .     S
V37     V38    10.0   .     S
V37     V38    10.0   1_554     S
V37     V39    9.999   1_455     S
V37     V40    9.999   1_454     S
V37     V44    10.0   1_554     S
V37     V49    10.0   1_565     S
V38     V37    10.0   1_556     S
V38     V40    9.999   1_455     S
V38     V39    9.999   1_455     S
V38     V43    10.0   .     S
V38     V50    10.0   1_565     S
V39     V37    9.999   1_655     S
V39     V38    9.999   1_655     S
V39     V40    10.0   1_554     S
V39     V40    10.0   .     S
V39     V51    10.0   1_565     S
V40     V38    9.999   1_655     S
V40     V37    9.999   1_656     S
V40     V39    10.0   1_556     S
V40     V52    10.0   1_565     S
V41     V43    9.999   .     S
V41     V42    10.0   .     S
V41     V42    10.0   1_554     S
V41     V44    9.999   1_554     S
V41     V45    10.0   .     S
V41     V26    10.0   1_554     S
V42     V44    9.999   .     S
V42     V41    10.0   1_556     S
V42     V43    9.999   .     S
V42     V46    10.0   .     S
V43     V44    10.0   1_554     S
V43     V44    10.0   .     S
V44     V37    10.0   1_556     S
V44     V43    10.0   1_556     S
V44     V41    9.999   1_556     S
V45     V47    9.999   1_455     S
V45     V46    10.0   1_554     S
V45     V46    10.0   .     S
V45     V48    9.999   1_455     S
V45     V61    10.0   .     S
V46     V48    9.999   1_455     S
V46     V45    10.0   1_556     S
V46     V47    9.999   1_456     S
V46     V62    10.0   .     S
V47     V34    10.0   1_554     S
V47     V45    9.999   1_655     S
V47     V46    9.999   1_654     S
V47     V48    10.0   .     S
V47     V48    10.0   1_554     S
V47     V63    10.0   .     S
V48     V46    9.999   1_655     S
V48     V45    9.999   1_655     S
V48     V47    10.0   1_556     S
V48     V64    10.0   .     S
V49     V52    9.999   1_454     S
V49     V50    10.0   .     S
V49     V50    10.0   1_554     S
V49     V51    9.999   1_455     S
V49     V59    10.0   .     S
V49     V37    10.0   1_545     S
V50     V51    9.999   1_455     S
V50     V49    10.0   1_556     S
V50     V52    9.999   1_455     S
V50     V60    10.0   .     S
V50     V38    10.0   1_545     S
V51     V50    9.999   1_655     S
V51     V49    9.999   1_655     S
V51     V52    10.0   1_554     S
V51     V52    10.0   .     S
V51     V56    10.0   .     S
V51     V39    10.0   1_545     S
V52     V49    9.999   1_656     S
V52     V50    9.999   1_655     S
V52     V51    10.0   1_556     S
V52     V55    10.0   1_556     S
V52     V40    10.0   1_545     S
V53     V54    10.0   1_554     S
V53     V54    10.0   .     S
V53     V55    9.999   .     S
V53     V56    9.999   .     S
V53     V63    10.0   .     S
V54     V5    10.0   1_556     S
V54     V53    10.0   1_556     S
V54     V56    9.999   .     S
V54     V55    9.999   1_556     S
V54     V64    10.0   .     S
V55     V52    10.0   1_554     S
V55     V54    9.999   1_554     S
V55     V56    10.0   .     S
V55     V56    10.0   1_554     S
V56     V55    10.0   1_556     S
V57     V59    9.999   .     S
V57     V58    10.0   .     S
V57     V58    10.0   1_554     S
V57     V60    9.999   1_554     S
V57     V62    10.0   1_554     S
V58     V60    9.999   .     S
V58     V57    10.0   1_556     S
V58     V59    9.999   .     S
V58     V61    10.0   .     S
V59     V60    10.0   1_554     S
V59     V60    10.0   .     S
V60     V57    9.999   1_556     S
V60     V59    10.0   1_556     S
V60     V15    10.0   1_556     S
V61     V62    10.0   1_554     S
V61     V62    10.0   .     S
V61     V63    9.999   1_455     S
V61     V64    9.999   1_455     S
V62     V61    10.0   1_556     S
V62     V64    9.999   1_455     S
V62     V63    9.999   1_456     S
V62     V57    10.0   1_556     S
V63     V61    9.999   1_655     S
V63     V62    9.999   1_654     S
V63     V64    10.0   .     S
V63     V64    10.0   1_554     S
V64     V62    9.999   1_655     S
V64     V61    9.999   1_655     S
V64     V63    10.0   1_556     S
