data_wim
_audit_creation_date              2020-02-04
_audit_creation_method            'Pymatgen'
_symmetry_space_group_name_H-M    'P1'
_symmetry_Int_Tables_number       1
loop_
_symmetry_equiv_pos_as_xyz
  x,y,z
_cell_length_a                    45.8773
_cell_length_b                    45.8773
_cell_length_c                    19.6548
_cell_angle_alpha                 90.0
_cell_angle_beta                 90.0
_cell_angle_gamma                 90.0
loop_
_atom_site_label
_atom_site_type_symbol
_atom_site_fract_x
_atom_site_fract_y
_atom_site_fract_z
V1     V     0.8582   0.2298   0.4688
V2     V     0.6418   0.2298   0.5312
V3     V     0.8582   0.2702   0.9688
V4     V     0.6418   0.2702   0.0312
V5     V     0.5202   0.3918   0.7188
V6     V     0.5202   0.6082   0.7812
V7     V     0.4798   0.3918   0.2188
V8     V     0.4798   0.6082   0.2812
V9     V     0.3582   0.7298   0.9688
V10     V     0.1418   0.7298   0.0312
V11     V     0.3582   0.7702   0.4688
V12     V     0.1418   0.7702   0.5312
V13     V     0.0202   0.3918   0.7812
V14     V     0.0202   0.6082   0.7188
V15     V     0.9798   0.3918   0.2812
V16     V     0.9798   0.6082   0.2188
V17     V     0.5202   0.1082   0.2188
V18     V     0.5202   0.8918   0.2812
V19     V     0.4798   0.1082   0.7188
V20     V     0.4798   0.8918   0.7812
V21     V     0.8582   0.7702   0.0312
V22     V     0.6418   0.7702   0.9688
V23     V     0.8582   0.7298   0.5312
V24     V     0.6418   0.7298   0.4688
V25     V     0.3582   0.2702   0.5312
V26     V     0.1418   0.2702   0.4688
V27     V     0.3582   0.2298   0.0312
V28     V     0.1418   0.2298   0.9688
V29     V     0.9798   0.1082   0.7812
V30     V     0.9798   0.8918   0.7188
V31     V     0.0202   0.1082   0.2812
V32     V     0.0202   0.8918   0.2188
loop_
_geom_bond_atom_site_label_1
_geom_bond_atom_site_label_2
_geom_bond_distance
_geom_bond_site_symmetry_2
_ccdc_geom_bond_type
V1     V15    10.0   .     S
V1     V31    10.0   1_655     S
V1     V29    10.0   .     S
V1     V2    9.999   .     S
V1     V3    10.0   .     S
V1     V3    10.0   1_554     S
V2     V5    10.0   .     S
V2     V19    10.0   .     S
V2     V17    10.0   .     S
V2     V4    10.0   1_556     S
V2     V4    10.0   .     S
V3     V13    10.0   1_655     S
V3     V15    10.0   1_556     S
V3     V29    10.0   .     S
V3     V4    9.999   1_556     S
V3     V1    10.0   1_556     S
V4     V7    10.0   .     S
V4     V5    10.0   1_554     S
V4     V17    10.0   .     S
V4     V2    10.0   1_554     S
V4     V3    9.999   1_554     S
V5     V4    10.0   1_556     S
V5     V6    9.999   .     S
V5     V7    10.0   1_556     S
V5     V7    10.0   .     S
V5     V25    10.0   .     S
V6     V8    10.0   .     S
V6     V8    10.0   1_556     S
V6     V9    10.0   .     S
V6     V24    10.0   .     S
V6     V22    10.0   .     S
V7     V8    9.999   .     S
V7     V5    10.0   1_554     S
V7     V25    10.0   .     S
V7     V27    10.0   .     S
V8     V6    10.0   1_554     S
V8     V9    10.0   1_554     S
V8     V11    10.0   .     S
V8     V24    10.0   .     S
V9     V8    10.0   1_556     S
V9     V10    9.999   1_556     S
V9     V11    10.0   1_556     S
V9     V11    10.0   .     S
V9     V20    10.0   .     S
V10     V9    9.999   1_554     S
V10     V12    10.0   .     S
V10     V12    10.0   1_554     S
V10     V16    10.0   1_455     S
V10     V14    10.0   1_554     S
V10     V32    10.0   .     S
V11     V12    9.999   .     S
V11     V9    10.0   1_554     S
V11     V18    10.0   .     S
V11     V20    10.0   .     S
V12     V10    10.0   1_556     S
V12     V14    10.0   .     S
V12     V30    10.0   1_455     S
V12     V32    10.0   .     S
V13     V3    10.0   1_455     S
V13     V26    10.0   .     S
V13     V28    10.0   .     S
V13     V14    9.999   .     S
V13     V15    10.0   1_455     S
V13     V15    10.0   1_456     S
V14     V16    10.0   1_456     S
V14     V16    10.0   1_455     S
V14     V10    10.0   1_556     S
V14     V23    10.0   1_455     S
V15     V3    10.0   1_554     S
V15     V26    10.0   1_655     S
V15     V16    9.999   .     S
V15     V13    10.0   1_655     S
V15     V13    10.0   1_654     S
V16     V14    10.0   1_654     S
V16     V14    10.0   1_655     S
V16     V10    10.0   1_655     S
V16     V23    10.0   .     S
V16     V21    10.0   .     S
V17     V18    9.999   1_545     S
V17     V19    10.0   .     S
V17     V19    10.0   1_554     S
V17     V27    10.0   .     S
V18     V17    9.999   1_565     S
V18     V20    10.0   .     S
V18     V20    10.0   1_554     S
V18     V22    10.0   1_554     S
V18     V24    10.0   .     S
V19     V20    9.999   1_545     S
V19     V17    10.0   1_556     S
V19     V27    10.0   1_556     S
V19     V25    10.0   .     S
V20     V19    9.999   1_565     S
V20     V18    10.0   1_556     S
V20     V22    10.0   .     S
V21     V32    10.0   1_655     S
V21     V30    10.0   1_554     S
V21     V22    9.999   1_554     S
V21     V23    10.0   1_554     S
V21     V23    10.0   .     S
V22     V18    10.0   1_556     S
V22     V21    9.999   1_556     S
V22     V24    10.0   .     S
V22     V24    10.0   1_556     S
V23     V30    10.0   .     S
V23     V14    10.0   1_655     S
V23     V24    9.999   .     S
V23     V21    10.0   1_556     S
V24     V22    10.0   1_554     S
V25     V26    9.999   .     S
V25     V27    10.0   .     S
V25     V27    10.0   1_556     S
V26     V15    10.0   1_455     S
V26     V28    10.0   1_554     S
V26     V28    10.0   .     S
V26     V31    10.0   .     S
V27     V19    10.0   1_554     S
V27     V28    9.999   1_554     S
V27     V25    10.0   1_554     S
V28     V27    9.999   1_556     S
V28     V26    10.0   1_556     S
V28     V29    10.0   1_455     S
V28     V31    10.0   1_556     S
V29     V28    10.0   1_655     S
V29     V30    9.999   1_545     S
V29     V31    10.0   1_655     S
V29     V31    10.0   1_656     S
V30     V21    10.0   1_556     S
V30     V29    9.999   1_565     S
V30     V32    10.0   1_655     S
V30     V32    10.0   1_656     S
V30     V12    10.0   1_655     S
V31     V1    10.0   1_455     S
V31     V28    10.0   1_554     S
V31     V29    10.0   1_455     S
V31     V32    9.999   1_545     S
V31     V29    10.0   1_454     S
V32     V21    10.0   1_455     S
V32     V30    10.0   1_455     S
V32     V31    9.999   1_565     S
V32     V30    10.0   1_454     S
