data_wir
_audit_creation_date              2020-02-04
_audit_creation_method            'Pymatgen'
_symmetry_space_group_name_H-M    'P1'
_symmetry_Int_Tables_number       1
loop_
_symmetry_equiv_pos_as_xyz
  x,y,z
_cell_length_a                    23.8298
_cell_length_b                    23.8298
_cell_length_c                    58.7567
_cell_angle_alpha                 90.0
_cell_angle_beta                 90.0
_cell_angle_gamma                 90.0
loop_
_atom_site_label
_atom_site_type_symbol
_atom_site_fract_x
_atom_site_fract_y
_atom_site_fract_z
V1     V     0.1141   0.9261   0.5648
V2     V     0.3239   0.1359   0.6852
V3     V     0.3859   0.4261   0.5648
V4     V     0.1761   0.6359   0.6852
V5     V     0.6141   0.0739   0.5648
V6     V     0.8239   0.8641   0.6852
V7     V     0.8859   0.5739   0.5648
V8     V     0.6761   0.3641   0.6852
V9     V     0.8239   0.6359   0.1852
V10     V     0.6141   0.4261   0.0648
V11     V     0.8859   0.9261   0.0648
V12     V     0.6761   0.1359   0.1852
V13     V     0.1761   0.8641   0.1852
V14     V     0.3859   0.0739   0.0648
V15     V     0.3239   0.3641   0.1852
V16     V     0.1141   0.5739   0.0648
V17     V     0.3239   0.8641   0.8148
V18     V     0.1141   0.0739   0.9352
V19     V     0.6761   0.6359   0.8148
V20     V     0.8859   0.4261   0.9352
V21     V     0.8239   0.1359   0.8148
V22     V     0.6141   0.9261   0.9352
V23     V     0.1761   0.3641   0.8148
V24     V     0.3859   0.5739   0.9352
V25     V     0.1141   0.4261   0.4352
V26     V     0.3239   0.6359   0.3148
V27     V     0.8859   0.0739   0.4352
V28     V     0.6761   0.8641   0.3148
V29     V     0.3859   0.9261   0.4352
V30     V     0.1761   0.1359   0.3148
V31     V     0.6141   0.5739   0.4352
V32     V     0.8239   0.3641   0.3148
loop_
_geom_bond_atom_site_label_1
_geom_bond_atom_site_label_2
_geom_bond_distance
_geom_bond_site_symmetry_2
_ccdc_geom_bond_type
V1     V2    10.0   1_565     S
V1     V6    10.0   1_455     S
V1     V7    10.0   1_455     S
V1     V4    10.0   .     S
V1     V29    10.0   .     S
V1     V27    10.0   1_465     S
V2     V1    10.0   1_545     S
V2     V5    10.0   .     S
V2     V3    10.0   .     S
V2     V8    10.0   .     S
V2     V17    10.0   1_545     S
V2     V23    10.0   .     S
V3     V4    10.0   .     S
V3     V8    10.0   .     S
V3     V5    10.0   .     S
V3     V25    10.0   .     S
V3     V31    10.0   .     S
V4     V7    10.0   1_455     S
V4     V6    10.0   1_455     S
V4     V23    10.0   .     S
V4     V17    10.0   .     S
V5     V6    10.0   1_545     S
V5     V8    10.0   .     S
V5     V27    10.0   .     S
V5     V29    10.0   1_545     S
V6     V1    10.0   1_655     S
V6     V5    10.0   1_565     S
V6     V7    10.0   .     S
V6     V4    10.0   1_655     S
V6     V21    10.0   1_565     S
V6     V19    10.0   .     S
V7     V8    10.0   .     S
V7     V1    10.0   1_655     S
V7     V4    10.0   1_655     S
V7     V31    10.0   .     S
V7     V25    10.0   1_655     S
V8     V19    10.0   .     S
V8     V21    10.0   .     S
V9     V10    10.0   .     S
V9     V11    10.0   .     S
V9     V16    10.0   1_655     S
V9     V13    10.0   1_655     S
V9     V32    10.0   .     S
V9     V28    10.0   .     S
V10     V12    10.0   .     S
V10     V15    10.0   .     S
V10     V14    10.0   .     S
V10     V20    10.0   1_554     S
V10     V24    10.0   1_554     S
V11     V16    10.0   1_655     S
V11     V12    10.0   1_565     S
V11     V13    10.0   1_655     S
V11     V22    10.0   1_554     S
V11     V18    10.0   1_664     S
V12     V11    10.0   1_545     S
V12     V14    10.0   .     S
V12     V15    10.0   .     S
V12     V28    10.0   1_545     S
V12     V32    10.0   .     S
V13     V9    10.0   1_455     S
V13     V14    10.0   1_565     S
V13     V16    10.0   .     S
V13     V11    10.0   1_455     S
V13     V30    10.0   1_565     S
V13     V26    10.0   .     S
V14     V15    10.0   .     S
V14     V13    10.0   1_545     S
V14     V18    10.0   1_554     S
V14     V22    10.0   1_544     S
V15     V16    10.0   .     S
V15     V26    10.0   .     S
V15     V30    10.0   .     S
V16     V9    10.0   1_455     S
V16     V11    10.0   1_455     S
V16     V24    10.0   1_554     S
V16     V20    10.0   1_454     S
V17     V2    10.0   1_565     S
V17     V18    10.0   1_565     S
V17     V24    10.0   .     S
V17     V19    10.0   .     S
V17     V22    10.0   .     S
V18     V14    10.0   1_556     S
V18     V17    10.0   1_545     S
V18     V23    10.0   .     S
V18     V21    10.0   1_455     S
V18     V20    10.0   1_455     S
V18     V11    10.0   1_446     S
V19     V20    10.0   .     S
V19     V22    10.0   .     S
V19     V24    10.0   .     S
V20     V10    10.0   1_556     S
V20     V23    10.0   1_655     S
V20     V21    10.0   .     S
V20     V18    10.0   1_655     S
V20     V16    10.0   1_656     S
V21     V22    10.0   1_545     S
V21     V23    10.0   1_655     S
V21     V18    10.0   1_655     S
V21     V6    10.0   1_545     S
V22     V21    10.0   1_565     S
V22     V24    10.0   .     S
V22     V11    10.0   1_556     S
V22     V14    10.0   1_566     S
V23     V24    10.0   .     S
V23     V20    10.0   1_455     S
V23     V21    10.0   1_455     S
V24     V16    10.0   1_556     S
V24     V10    10.0   1_556     S
V25     V26    10.0   .     S
V25     V32    10.0   1_455     S
V25     V30    10.0   .     S
V25     V27    10.0   1_455     S
V25     V7    10.0   1_455     S
V26     V31    10.0   .     S
V26     V29    10.0   .     S
V26     V28    10.0   .     S
V27     V25    10.0   1_655     S
V27     V28    10.0   1_545     S
V27     V30    10.0   1_655     S
V27     V32    10.0   .     S
V27     V1    10.0   1_645     S
V28     V27    10.0   1_565     S
V28     V29    10.0   .     S
V28     V31    10.0   .     S
V28     V12    10.0   1_565     S
V29     V30    10.0   1_565     S
V29     V31    10.0   .     S
V29     V5    10.0   1_565     S
V30     V27    10.0   1_455     S
V30     V29    10.0   1_545     S
V30     V32    10.0   1_455     S
V30     V13    10.0   1_545     S
V31     V32    10.0   .     S
V32     V25    10.0   1_655     S
V32     V30    10.0   1_655     S
