data_wis
_audit_creation_date              2020-02-04
_audit_creation_method            'Pymatgen'
_symmetry_space_group_name_H-M    'P1'
_symmetry_Int_Tables_number       1
loop_
_symmetry_equiv_pos_as_xyz
  x,y,z
_cell_length_a                    19.8544
_cell_length_b                    19.8544
_cell_length_c                    70.4498
_cell_angle_alpha                 90.0
_cell_angle_beta                 90.0
_cell_angle_gamma                 90.0
loop_
_atom_site_label
_atom_site_type_symbol
_atom_site_fract_x
_atom_site_fract_y
_atom_site_fract_z
V1     V     0.7197   0.1268   0.1887
V2     V     0.7197   0.8732   0.3113
V3     V     0.7803   0.3732   0.3113
V4     V     0.7803   0.6268   0.1887
V5     V     0.2197   0.1268   0.3113
V6     V     0.2197   0.8732   0.1887
V7     V     0.2803   0.6268   0.3113
V8     V     0.2803   0.3732   0.1887
V9     V     0.1232   0.4697   0.4387
V10     V     0.3768   0.4697   0.5613
V11     V     0.8768   0.5303   0.5613
V12     V     0.6232   0.5303   0.4387
V13     V     0.1232   0.9697   0.5613
V14     V     0.3768   0.9697   0.4387
V15     V     0.8768   0.0303   0.4387
V16     V     0.6232   0.0303   0.5613
V17     V     0.2197   0.3732   0.8113
V18     V     0.2197   0.6268   0.6887
V19     V     0.2803   0.8732   0.8113
V20     V     0.2803   0.1268   0.6887
V21     V     0.7197   0.6268   0.8113
V22     V     0.7197   0.3732   0.6887
V23     V     0.7803   0.1268   0.8113
V24     V     0.7803   0.8732   0.6887
V25     V     0.8768   0.4697   0.9387
V26     V     0.6232   0.4697   0.0613
V27     V     0.3768   0.5303   0.9387
V28     V     0.1232   0.5303   0.0613
V29     V     0.1232   0.0303   0.9387
V30     V     0.3768   0.0303   0.0613
V31     V     0.6232   0.9697   0.9387
V32     V     0.8768   0.9697   0.0613
loop_
_geom_bond_atom_site_label_1
_geom_bond_atom_site_label_2
_geom_bond_distance
_geom_bond_site_symmetry_2
_ccdc_geom_bond_type
V1     V2    10.0   1_545     S
V1     V4    10.0   1_545     S
V1     V4    10.0   .     S
V1     V3    10.0   .     S
V1     V8    10.0   .     S
V1     V32    10.0   1_545     S
V2     V1    10.0   1_565     S
V2     V4    10.0   .     S
V2     V3    10.0   .     S
V2     V3    10.0   1_565     S
V2     V7    10.0   .     S
V2     V15    10.0   1_565     S
V3     V2    10.0   1_545     S
V3     V4    10.0   .     S
V3     V5    10.0   1_655     S
V3     V12    10.0   .     S
V4     V1    10.0   1_565     S
V4     V6    10.0   1_655     S
V4     V26    10.0   .     S
V5     V7    10.0   1_545     S
V5     V6    10.0   1_545     S
V5     V7    10.0   .     S
V5     V8    10.0   .     S
V5     V3    10.0   1_455     S
V5     V14    10.0   1_545     S
V6     V7    10.0   .     S
V6     V8    10.0   .     S
V6     V5    10.0   1_565     S
V6     V8    10.0   1_565     S
V6     V4    10.0   1_455     S
V6     V30    10.0   1_565     S
V7     V5    10.0   1_565     S
V7     V8    10.0   .     S
V7     V9    10.0   .     S
V8     V6    10.0   1_545     S
V8     V28    10.0   .     S
V9     V12    10.0   .     S
V9     V10    10.0   .     S
V9     V12    10.0   1_455     S
V9     V11    10.0   1_455     S
V9     V15    10.0   1_455     S
V10     V12    10.0   .     S
V10     V11    10.0   .     S
V10     V11    10.0   1_455     S
V10     V16    10.0   .     S
V10     V18    10.0   .     S
V11     V12    10.0   .     S
V11     V9    10.0   1_655     S
V11     V10    10.0   1_655     S
V11     V13    10.0   1_655     S
V11     V22    10.0   .     S
V12     V9    10.0   1_655     S
V12     V14    10.0   .     S
V13     V16    10.0   1_565     S
V13     V14    10.0   .     S
V13     V15    10.0   1_465     S
V13     V16    10.0   1_465     S
V13     V11    10.0   1_455     S
V13     V20    10.0   1_565     S
V14     V15    10.0   1_565     S
V14     V16    10.0   1_565     S
V14     V15    10.0   1_465     S
V14     V5    10.0   1_565     S
V15     V14    10.0   1_545     S
V15     V14    10.0   1_645     S
V15     V13    10.0   1_645     S
V15     V16    10.0   .     S
V15     V9    10.0   1_655     S
V15     V2    10.0   1_545     S
V16     V14    10.0   1_545     S
V16     V13    10.0   1_545     S
V16     V13    10.0   1_645     S
V16     V24    10.0   1_545     S
V17     V19    10.0   1_545     S
V17     V20    10.0   .     S
V17     V18    10.0   .     S
V17     V19    10.0   .     S
V17     V23    10.0   1_455     S
V17     V27    10.0   .     S
V18     V20    10.0   .     S
V18     V19    10.0   .     S
V18     V20    10.0   1_565     S
V18     V24    10.0   1_455     S
V19     V17    10.0   1_565     S
V19     V20    10.0   1_565     S
V19     V21    10.0   .     S
V19     V29    10.0   1_565     S
V20     V18    10.0   1_545     S
V20     V19    10.0   1_545     S
V20     V22    10.0   .     S
V20     V13    10.0   1_545     S
V21     V23    10.0   .     S
V21     V22    10.0   .     S
V21     V23    10.0   1_565     S
V21     V24    10.0   .     S
V21     V25    10.0   .     S
V22     V23    10.0   .     S
V22     V24    10.0   1_545     S
V22     V24    10.0   .     S
V23     V21    10.0   1_545     S
V23     V24    10.0   1_545     S
V23     V17    10.0   1_655     S
V23     V31    10.0   1_545     S
V24     V22    10.0   1_565     S
V24     V23    10.0   1_565     S
V24     V18    10.0   1_655     S
V24     V16    10.0   1_565     S
V25     V26    10.0   1_556     S
V25     V27    10.0   1_655     S
V25     V28    10.0   1_656     S
V25     V27    10.0   .     S
V25     V29    10.0   1_655     S
V26     V25    10.0   1_554     S
V26     V28    10.0   1_655     S
V26     V28    10.0   .     S
V26     V27    10.0   1_554     S
V26     V30    10.0   .     S
V27     V25    10.0   1_455     S
V27     V26    10.0   1_556     S
V27     V28    10.0   1_556     S
V27     V31    10.0   .     S
V28     V25    10.0   1_454     S
V28     V26    10.0   1_455     S
V28     V27    10.0   1_554     S
V28     V32    10.0   1_455     S
V29     V31    10.0   1_545     S
V29     V30    10.0   1_556     S
V29     V31    10.0   1_445     S
V29     V32    10.0   1_446     S
V29     V25    10.0   1_455     S
V29     V19    10.0   1_545     S
V30     V31    10.0   1_544     S
V30     V32    10.0   1_545     S
V30     V29    10.0   1_554     S
V30     V32    10.0   1_445     S
V30     V6    10.0   1_545     S
V31     V29    10.0   1_565     S
V31     V30    10.0   1_566     S
V31     V32    10.0   1_556     S
V31     V29    10.0   1_665     S
V31     V23    10.0   1_565     S
V32     V30    10.0   1_565     S
V32     V31    10.0   1_554     S
V32     V29    10.0   1_664     S
V32     V30    10.0   1_665     S
V32     V28    10.0   1_655     S
V32     V1    10.0   1_565     S
