data_wit
_audit_creation_date              2020-02-04
_audit_creation_method            'Pymatgen'
_symmetry_space_group_name_H-M    'P1'
_symmetry_Int_Tables_number       1
loop_
_symmetry_equiv_pos_as_xyz
  x,y,z
_cell_length_a                    19.8543
_cell_length_b                    19.8543
_cell_length_c                    73.0599
_cell_angle_alpha                 90.0
_cell_angle_beta                 90.0
_cell_angle_gamma                 90.0
loop_
_atom_site_label
_atom_site_type_symbol
_atom_site_fract_x
_atom_site_fract_y
_atom_site_fract_z
V1     V     0.6232   0.4697   0.4409
V2     V     0.8768   0.4697   0.5591
V3     V     0.3768   0.5303   0.5591
V4     V     0.1232   0.5303   0.4409
V5     V     0.3768   0.0303   0.4409
V6     V     0.1232   0.0303   0.5591
V7     V     0.8768   0.9697   0.4409
V8     V     0.6232   0.9697   0.5591
V9     V     0.2803   0.3732   0.8091
V10     V     0.2803   0.6268   0.6909
V11     V     0.2197   0.8732   0.8091
V12     V     0.2197   0.1268   0.6909
V13     V     0.7197   0.1268   0.8091
V14     V     0.7197   0.8732   0.6909
V15     V     0.7803   0.6268   0.8091
V16     V     0.7803   0.3732   0.6909
V17     V     0.8768   0.5303   0.9409
V18     V     0.6232   0.5303   0.0591
V19     V     0.3768   0.4697   0.9409
V20     V     0.1232   0.4697   0.0591
V21     V     0.8768   0.0303   0.0591
V22     V     0.6232   0.0303   0.9409
V23     V     0.1232   0.9697   0.9409
V24     V     0.3768   0.9697   0.0591
V25     V     0.7197   0.6268   0.1909
V26     V     0.7197   0.3732   0.3091
V27     V     0.7803   0.1268   0.1909
V28     V     0.7803   0.8732   0.3091
V29     V     0.2197   0.3732   0.1909
V30     V     0.2197   0.6268   0.3091
V31     V     0.2803   0.8732   0.1909
V32     V     0.2803   0.1268   0.3091
loop_
_geom_bond_atom_site_label_1
_geom_bond_atom_site_label_2
_geom_bond_distance
_geom_bond_site_symmetry_2
_ccdc_geom_bond_type
V1     V2    10.0   .     S
V1     V3    10.0   .     S
V1     V4    10.0   .     S
V1     V4    10.0   1_655     S
V1     V5    10.0   .     S
V1     V26    10.0   .     S
V2     V3    10.0   .     S
V2     V4    10.0   1_655     S
V2     V3    10.0   1_655     S
V2     V6    10.0   1_655     S
V2     V16    10.0   .     S
V3     V4    10.0   .     S
V3     V2    10.0   1_455     S
V3     V8    10.0   .     S
V3     V10    10.0   .     S
V4     V2    10.0   1_455     S
V4     V1    10.0   1_455     S
V4     V7    10.0   1_455     S
V4     V30    10.0   .     S
V5     V7    10.0   1_445     S
V5     V6    10.0   .     S
V5     V8    10.0   1_545     S
V5     V7    10.0   1_545     S
V5     V32    10.0   .     S
V6     V7    10.0   1_445     S
V6     V8    10.0   1_445     S
V6     V8    10.0   1_545     S
V6     V2    10.0   1_455     S
V6     V12    10.0   .     S
V7     V6    10.0   1_665     S
V7     V5    10.0   1_665     S
V7     V5    10.0   1_565     S
V7     V8    10.0   .     S
V7     V4    10.0   1_655     S
V7     V28    10.0   .     S
V8     V6    10.0   1_665     S
V8     V5    10.0   1_565     S
V8     V6    10.0   1_565     S
V8     V14    10.0   .     S
V9     V10    10.0   .     S
V9     V12    10.0   .     S
V9     V11    10.0   1_545     S
V9     V11    10.0   .     S
V9     V13    10.0   .     S
V9     V19    10.0   .     S
V10     V12    10.0   .     S
V10     V11    10.0   .     S
V10     V12    10.0   1_565     S
V10     V14    10.0   .     S
V11     V9    10.0   1_565     S
V11     V12    10.0   1_565     S
V11     V15    10.0   1_455     S
V11     V23    10.0   .     S
V12     V10    10.0   1_545     S
V12     V11    10.0   1_545     S
V12     V16    10.0   1_455     S
V13     V14    10.0   1_545     S
V13     V15    10.0   1_545     S
V13     V16    10.0   .     S
V13     V15    10.0   .     S
V13     V22    10.0   .     S
V14     V13    10.0   1_565     S
V14     V15    10.0   .     S
V14     V16    10.0   .     S
V14     V16    10.0   1_565     S
V15     V13    10.0   1_565     S
V15     V16    10.0   .     S
V15     V11    10.0   1_655     S
V15     V17    10.0   .     S
V16     V14    10.0   1_545     S
V16     V12    10.0   1_655     S
V17     V18    10.0   1_556     S
V17     V19    10.0   .     S
V17     V20    10.0   1_656     S
V17     V19    10.0   1_655     S
V17     V23    10.0   1_655     S
V18     V17    10.0   1_554     S
V18     V19    10.0   1_554     S
V18     V20    10.0   .     S
V18     V20    10.0   1_655     S
V18     V24    10.0   .     S
V18     V25    10.0   .     S
V19     V18    10.0   1_556     S
V19     V20    10.0   1_556     S
V19     V17    10.0   1_455     S
V19     V22    10.0   .     S
V20     V19    10.0   1_554     S
V20     V17    10.0   1_454     S
V20     V18    10.0   1_455     S
V20     V21    10.0   1_455     S
V20     V29    10.0   .     S
V21     V22    10.0   1_554     S
V21     V23    10.0   1_644     S
V21     V24    10.0   1_645     S
V21     V24    10.0   1_545     S
V21     V20    10.0   1_655     S
V21     V27    10.0   .     S
V22     V21    10.0   1_556     S
V22     V23    10.0   1_645     S
V22     V24    10.0   1_546     S
V22     V23    10.0   1_545     S
V23     V21    10.0   1_466     S
V23     V22    10.0   1_465     S
V23     V22    10.0   1_565     S
V23     V24    10.0   1_556     S
V23     V17    10.0   1_455     S
V24     V21    10.0   1_465     S
V24     V22    10.0   1_564     S
V24     V21    10.0   1_565     S
V24     V23    10.0   1_554     S
V24     V31    10.0   .     S
V25     V26    10.0   .     S
V25     V28    10.0   .     S
V25     V27    10.0   1_565     S
V25     V27    10.0   .     S
V25     V31    10.0   .     S
V26     V28    10.0   .     S
V26     V27    10.0   .     S
V26     V28    10.0   1_545     S
V26     V32    10.0   .     S
V27     V25    10.0   1_545     S
V27     V28    10.0   1_545     S
V27     V29    10.0   1_655     S
V28     V26    10.0   1_565     S
V28     V27    10.0   1_565     S
V28     V30    10.0   1_655     S
V29     V30    10.0   .     S
V29     V32    10.0   .     S
V29     V31    10.0   1_545     S
V29     V31    10.0   .     S
V29     V27    10.0   1_455     S
V30     V32    10.0   .     S
V30     V31    10.0   .     S
V30     V32    10.0   1_565     S
V30     V28    10.0   1_455     S
V31     V29    10.0   1_565     S
V31     V32    10.0   1_565     S
V32     V30    10.0   1_545     S
V32     V31    10.0   1_545     S
