data_wiv
_audit_creation_date              2020-02-04
_audit_creation_method            'Pymatgen'
_symmetry_space_group_name_H-M    'P1'
_symmetry_Int_Tables_number       1
loop_
_symmetry_equiv_pos_as_xyz
  x,y,z
_cell_length_a                    37.9889
_cell_length_b                    37.9889
_cell_length_c                    20.0
_cell_angle_alpha                 90.0
_cell_angle_beta                 90.0
_cell_angle_gamma                 90.0
loop_
_atom_site_label
_atom_site_type_symbol
_atom_site_fract_x
_atom_site_fract_y
_atom_site_fract_z
V1     V     0.8816   0.3653   0.4421
V2     V     0.8816   0.3653   0.9421
V3     V     0.8816   0.1347   0.1829
V4     V     0.8816   0.1347   0.6829
V5     V     0.3653   0.3816   0.0671
V6     V     0.3653   0.3816   0.5671
V7     V     0.1347   0.3816   0.3079
V8     V     0.1347   0.3816   0.8079
V9     V     0.1184   0.6347   0.4421
V10     V     0.1184   0.6347   0.9421
V11     V     0.1184   0.8653   0.1829
V12     V     0.1184   0.8653   0.6829
V13     V     0.6347   0.6184   0.0671
V14     V     0.6347   0.6184   0.5671
V15     V     0.8653   0.6184   0.3079
V16     V     0.8653   0.6184   0.8079
V17     V     0.6347   0.8816   0.0579
V18     V     0.6347   0.8816   0.5579
V19     V     0.8653   0.8816   0.3171
V20     V     0.8653   0.8816   0.8171
V21     V     0.6184   0.1347   0.1921
V22     V     0.6184   0.1347   0.6921
V23     V     0.6184   0.3653   0.4329
V24     V     0.6184   0.3653   0.9329
V25     V     0.3816   0.6347   0.4329
V26     V     0.3816   0.6347   0.9329
V27     V     0.3816   0.8653   0.1921
V28     V     0.3816   0.8653   0.6921
V29     V     0.3653   0.1184   0.0579
V30     V     0.3653   0.1184   0.5579
V31     V     0.1347   0.1184   0.3171
V32     V     0.1347   0.1184   0.8171
loop_
_geom_bond_atom_site_label_1
_geom_bond_atom_site_label_2
_geom_bond_distance
_geom_bond_site_symmetry_2
_ccdc_geom_bond_type
V1     V4    10.0   .     S
V1     V2    10.0   1_554     S
V1     V2    10.0   .     S
V1     V7    10.0   1_655     S
V1     V15    10.0   .     S
V1     V23    10.0   .     S
V2     V3    10.0   1_556     S
V2     V1    10.0   1_556     S
V2     V8    10.0   1_655     S
V2     V16    10.0   .     S
V2     V24    10.0   .     S
V3     V2    10.0   1_554     S
V3     V4    10.0   .     S
V3     V4    10.0   1_554     S
V3     V31    10.0   1_655     S
V3     V19    10.0   1_545     S
V3     V21    10.0   .     S
V4     V3    10.0   1_556     S
V4     V32    10.0   1_655     S
V4     V20    10.0   1_545     S
V4     V22    10.0   .     S
V5     V7    10.0   .     S
V5     V6    10.0   .     S
V5     V6    10.0   1_554     S
V5     V26    10.0   1_554     S
V5     V24    10.0   1_554     S
V5     V29    10.0   .     S
V6     V8    10.0   .     S
V6     V5    10.0   1_556     S
V6     V25    10.0   .     S
V6     V23    10.0   .     S
V6     V30    10.0   .     S
V7     V8    10.0   1_554     S
V7     V8    10.0   .     S
V7     V9    10.0   .     S
V7     V1    10.0   1_455     S
V7     V31    10.0   .     S
V8     V7    10.0   1_556     S
V8     V10    10.0   .     S
V8     V2    10.0   1_455     S
V8     V32    10.0   .     S
V9     V12    10.0   .     S
V9     V10    10.0   1_554     S
V9     V10    10.0   .     S
V9     V15    10.0   1_455     S
V9     V25    10.0   .     S
V10     V11    10.0   1_556     S
V10     V9    10.0   1_556     S
V10     V16    10.0   1_455     S
V10     V26    10.0   .     S
V11     V10    10.0   1_554     S
V11     V12    10.0   .     S
V11     V12    10.0   1_554     S
V11     V31    10.0   1_565     S
V11     V19    10.0   1_455     S
V11     V27    10.0   .     S
V12     V11    10.0   1_556     S
V12     V32    10.0   1_565     S
V12     V20    10.0   1_455     S
V12     V28    10.0   .     S
V13     V15    10.0   .     S
V13     V14    10.0   .     S
V13     V14    10.0   1_554     S
V13     V26    10.0   1_554     S
V13     V24    10.0   1_554     S
V13     V17    10.0   .     S
V14     V16    10.0   .     S
V14     V13    10.0   1_556     S
V14     V25    10.0   .     S
V14     V23    10.0   .     S
V14     V18    10.0   .     S
V15     V16    10.0   1_554     S
V15     V16    10.0   .     S
V15     V9    10.0   1_655     S
V15     V19    10.0   .     S
V16     V15    10.0   1_556     S
V16     V10    10.0   1_655     S
V16     V20    10.0   .     S
V17     V20    10.0   1_554     S
V17     V18    10.0   .     S
V17     V18    10.0   1_554     S
V17     V27    10.0   .     S
V17     V21    10.0   1_565     S
V18     V19    10.0   .     S
V18     V17    10.0   1_556     S
V18     V28    10.0   .     S
V18     V22    10.0   1_565     S
V19     V20    10.0   1_554     S
V19     V20    10.0   .     S
V19     V3    10.0   1_565     S
V19     V11    10.0   1_655     S
V20     V17    10.0   1_556     S
V20     V19    10.0   1_556     S
V20     V4    10.0   1_565     S
V20     V12    10.0   1_655     S
V21     V23    10.0   .     S
V21     V22    10.0   .     S
V21     V22    10.0   1_554     S
V21     V29    10.0   .     S
V21     V17    10.0   1_545     S
V22     V24    10.0   .     S
V22     V21    10.0   1_556     S
V22     V30    10.0   .     S
V22     V18    10.0   1_545     S
V23     V24    10.0   1_554     S
V23     V24    10.0   .     S
V24     V23    10.0   1_556     S
V24     V13    10.0   1_556     S
V24     V5    10.0   1_556     S
V25     V27    10.0   .     S
V25     V26    10.0   1_554     S
V25     V26    10.0   .     S
V26     V5    10.0   1_556     S
V26     V28    10.0   .     S
V26     V25    10.0   1_556     S
V26     V13    10.0   1_556     S
V27     V28    10.0   .     S
V27     V28    10.0   1_554     S
V27     V29    10.0   1_565     S
V28     V27    10.0   1_556     S
V28     V30    10.0   1_565     S
V29     V32    10.0   1_554     S
V29     V30    10.0   .     S
V29     V30    10.0   1_554     S
V29     V27    10.0   1_545     S
V30     V31    10.0   .     S
V30     V29    10.0   1_556     S
V30     V28    10.0   1_545     S
V31     V3    10.0   1_455     S
V31     V32    10.0   1_554     S
V31     V32    10.0   .     S
V31     V11    10.0   1_545     S
V32     V4    10.0   1_455     S
V32     V29    10.0   1_556     S
V32     V31    10.0   1_556     S
V32     V12    10.0   1_545     S
