data_wjl
_audit_creation_date              2020-02-04
_audit_creation_method            'Pymatgen'
_symmetry_space_group_name_H-M    'P1'
_symmetry_Int_Tables_number       1
loop_
_symmetry_equiv_pos_as_xyz
  x,y,z
_cell_length_a                    18.7762
_cell_length_b                    18.7762
_cell_length_c                    45.8206
_cell_angle_alpha                 90.0
_cell_angle_beta                 90.0
_cell_angle_gamma                 120.0
loop_
_atom_site_label
_atom_site_type_symbol
_atom_site_fract_x
_atom_site_fract_y
_atom_site_fract_z
V1     V     0.7739   0.1696   0.6732
V2     V     0.7739   0.6043   0.4935
V3     V     0.6043   0.7739   0.8398
V4     V     0.1696   0.7739   0.6602
V5     V     0.3957   0.1696   0.8268
V6     V     0.8304   0.6043   0.0065
V7     V     0.2261   0.3957   0.9935
V8     V     0.2261   0.8304   0.1732
V9     V     0.6043   0.8304   0.3268
V10     V     0.1696   0.3957   0.5065
V11     V     0.3957   0.2261   0.3398
V12     V     0.8304   0.2261   0.1602
loop_
_geom_bond_atom_site_label_1
_geom_bond_atom_site_label_2
_geom_bond_distance
_geom_bond_site_symmetry_2
_ccdc_geom_bond_type
V1     V10    10.0   1_655     S
V1     V4    10.0   1_655     S
V1     V3    10.0   1_545     S
V1     V5    10.0   .     S
V1     V4    10.0   1_545     S
V2     V4    10.0   1_655     S
V2     V10    10.0   1_655     S
V2     V9    10.0   .     S
V2     V10    10.0   .     S
V2     V11    10.0   .     S
V3     V1    10.0   1_565     S
V3     V5    10.0   1_565     S
V3     V6    10.0   1_556     S
V3     V7    10.0   .     S
V3     V5    10.0   .     S
V4     V2    10.0   1_455     S
V4     V1    10.0   1_455     S
V4     V10    10.0   .     S
V4     V5    10.0   1_565     S
V4     V1    10.0   1_565     S
V5     V4    10.0   1_545     S
V5     V3    10.0   1_545     S
V5     V7    10.0   .     S
V6     V3    10.0   1_554     S
V6     V7    10.0   1_554     S
V6     V8    10.0   1_655     S
V6     V12    10.0   .     S
V6     V7    10.0   1_654     S
V7     V6    10.0   1_556     S
V7     V12    10.0   1_456     S
V7     V6    10.0   1_456     S
V8     V6    10.0   1_455     S
V8     V12    10.0   1_455     S
V8     V11    10.0   1_565     S
V8     V9    10.0   .     S
V8     V12    10.0   1_565     S
V9     V11    10.0   .     S
V9     V12    10.0   1_565     S
V9     V11    10.0   1_565     S
V10     V1    10.0   1_455     S
V10     V2    10.0   1_455     S
V10     V11    10.0   .     S
V11     V8    10.0   1_545     S
V11     V9    10.0   1_545     S
V12     V7    10.0   1_654     S
V12     V8    10.0   1_655     S
V12     V9    10.0   1_545     S
V12     V8    10.0   1_545     S
