data_wjr
_audit_creation_date              2020-02-04
_audit_creation_method            'Pymatgen'
_symmetry_space_group_name_H-M    'P1'
_symmetry_Int_Tables_number       1
loop_
_symmetry_equiv_pos_as_xyz
  x,y,z
_cell_length_a                    33.4606
_cell_length_b                    33.4606
_cell_length_c                    34.1422
_cell_angle_alpha                 90.0
_cell_angle_beta                 90.0
_cell_angle_gamma                 120.0
loop_
_atom_site_label
_atom_site_type_symbol
_atom_site_fract_x
_atom_site_fract_y
_atom_site_fract_z
V1     V     0.5447   0.878   0.1464
V2     V     0.122   0.4553   0.3535
V3     V     0.6667   0.5447   0.1464
V4     V     0.4553   0.3333   0.3535
V5     V     0.5447   0.6667   0.3535
V6     V     0.4553   0.122   0.1464
V7     V     0.3333   0.4553   0.1464
V8     V     0.878   0.5447   0.3535
V9     V     0.6667   0.122   0.3535
V10     V     0.122   0.6667   0.1464
V11     V     0.878   0.3333   0.1464
V12     V     0.3333   0.878   0.3535
V13     V     0.5447   0.878   0.8536
V14     V     0.122   0.4553   0.6464
V15     V     0.6667   0.5447   0.8536
V16     V     0.4553   0.3333   0.6464
V17     V     0.5447   0.6667   0.6464
V18     V     0.4553   0.122   0.8536
V19     V     0.3333   0.4553   0.8536
V20     V     0.878   0.5447   0.6464
V21     V     0.6667   0.122   0.6464
V22     V     0.3333   0.878   0.6464
V23     V     0.122   0.6667   0.8536
V24     V     0.878   0.3333   0.8536
loop_
_geom_bond_atom_site_label_1
_geom_bond_atom_site_label_2
_geom_bond_distance
_geom_bond_site_symmetry_2
_ccdc_geom_bond_type
V1     V9    10.0   1_565     S
V1     V12    10.0   .     S
V1     V6    10.0   1_565     S
V1     V5    10.0   .     S
V1     V13    10.0   1_554     S
V2     V7    10.0   .     S
V2     V10    10.0   .     S
V2     V11    10.0   1_455     S
V2     V8    10.0   1_455     S
V2     V14    10.0   .     S
V3     V8    10.0   .     S
V3     V4    10.0   .     S
V3     V5    10.0   .     S
V3     V7    10.0   .     S
V3     V15    10.0   1_554     S
V4     V6    10.0   .     S
V4     V7    10.0   .     S
V4     V5    10.0   .     S
V4     V16    10.0   .     S
V5     V7    10.0   .     S
V5     V17    10.0   .     S
V6     V12    10.0   1_545     S
V6     V9    10.0   .     S
V6     V1    10.0   1_545     S
V6     V18    10.0   1_554     S
V7     V19    10.0   1_554     S
V8     V10    10.0   1_655     S
V8     V11    10.0   .     S
V8     V2    10.0   1_655     S
V8     V20    10.0   .     S
V9     V1    10.0   1_545     S
V9     V12    10.0   1_545     S
V9     V11    10.0   .     S
V9     V21    10.0   .     S
V10     V8    10.0   1_455     S
V10     V11    10.0   1_455     S
V10     V12    10.0   .     S
V10     V23    10.0   1_554     S
V11     V2    10.0   1_655     S
V11     V10    10.0   1_655     S
V11     V24    10.0   1_554     S
V12     V6    10.0   1_565     S
V12     V9    10.0   1_565     S
V12     V22    10.0   .     S
V13     V21    10.0   1_565     S
V13     V22    10.0   .     S
V13     V18    10.0   1_565     S
V13     V17    10.0   .     S
V13     V1    10.0   1_556     S
V14     V19    10.0   .     S
V14     V23    10.0   .     S
V14     V24    10.0   1_455     S
V14     V20    10.0   1_455     S
V15     V20    10.0   .     S
V15     V16    10.0   .     S
V15     V17    10.0   .     S
V15     V19    10.0   .     S
V15     V3    10.0   1_556     S
V16     V18    10.0   .     S
V16     V19    10.0   .     S
V16     V17    10.0   .     S
V17     V19    10.0   .     S
V18     V22    10.0   1_545     S
V18     V21    10.0   .     S
V18     V13    10.0   1_545     S
V18     V6    10.0   1_556     S
V19     V7    10.0   1_556     S
V20     V23    10.0   1_655     S
V20     V24    10.0   .     S
V20     V14    10.0   1_655     S
V21     V13    10.0   1_545     S
V21     V22    10.0   1_545     S
V21     V24    10.0   .     S
V22     V18    10.0   1_565     S
V22     V21    10.0   1_565     S
V22     V23    10.0   .     S
V23     V20    10.0   1_455     S
V23     V24    10.0   1_455     S
V23     V10    10.0   1_556     S
V24     V14    10.0   1_655     S
V24     V23    10.0   1_655     S
V24     V11    10.0   1_556     S
