data_wkd
_audit_creation_date              2020-02-04
_audit_creation_method            'Pymatgen'
_symmetry_space_group_name_H-M    'P1'
_symmetry_Int_Tables_number       1
loop_
_symmetry_equiv_pos_as_xyz
  x,y,z
_cell_length_a                    14.9665
_cell_length_b                    14.9665
_cell_length_c                    70.0
_cell_angle_alpha                 90.0
_cell_angle_beta                 90.0
_cell_angle_gamma                 120.0
loop_
_atom_site_label
_atom_site_type_symbol
_atom_site_fract_x
_atom_site_fract_y
_atom_site_fract_z
V1     V     0.8333   0.1667   0.6307
V2     V     0.1667   0.8333   0.7026
V3     V     0.3333   0.1667   0.8693
V4     V     0.6667   0.8333   0.7974
V5     V     0.1667   0.3333   0.464
V6     V     0.8333   0.6667   0.536
V7     V     0.6667   0.8333   0.3693
V8     V     0.3333   0.1667   0.2974
V9     V     0.1667   0.3333   0.036
V10     V     0.8333   0.6667   0.964
V11     V     0.1667   0.8333   0.1307
V12     V     0.8333   0.1667   0.2026
loop_
_geom_bond_atom_site_label_1
_geom_bond_atom_site_label_2
_geom_bond_distance
_geom_bond_site_symmetry_2
_ccdc_geom_bond_type
V1     V6    10.0   .     S
V1     V2    10.0   1_645     S
V1     V2    10.0   1_545     S
V1     V2    10.0   1_655     S
V1     V6    10.0   1_545     S
V2     V4    10.0   1_455     S
V2     V1    10.0   1_465     S
V2     V1    10.0   1_565     S
V2     V1    10.0   1_455     S
V2     V4    10.0   .     S
V3     V4    10.0   1_545     S
V3     V4    10.0   1_445     S
V3     V4    10.0   .     S
V3     V10    10.0   .     S
V3     V10    10.0   1_445     S
V4     V2    10.0   1_655     S
V4     V3    10.0   1_565     S
V4     V3    10.0   1_665     S
V5     V6    10.0   1_455     S
V5     V6    10.0   1_445     S
V5     V6    10.0   .     S
V5     V7    10.0   .     S
V5     V7    10.0   1_445     S
V6     V1    10.0   1_565     S
V6     V5    10.0   1_655     S
V6     V5    10.0   1_665     S
V7     V5    10.0   1_665     S
V7     V8    10.0   1_565     S
V7     V8    10.0   1_665     S
V7     V8    10.0   .     S
V8     V12    10.0   .     S
V8     V12    10.0   1_455     S
V8     V7    10.0   1_545     S
V8     V7    10.0   1_445     S
V9     V11    10.0   .     S
V9     V10    10.0   1_444     S
V9     V10    10.0   1_554     S
V9     V10    10.0   1_454     S
V9     V11    10.0   1_545     S
V10     V3    10.0   1_665     S
V10     V9    10.0   1_666     S
V10     V9    10.0   1_556     S
V10     V9    10.0   1_656     S
V11     V9    10.0   1_565     S
V11     V12    10.0   1_465     S
V11     V12    10.0   1_565     S
V11     V12    10.0   1_455     S
V12     V8    10.0   1_655     S
V12     V11    10.0   1_645     S
V12     V11    10.0   1_545     S
V12     V11    10.0   1_655     S
