data_wkf
_audit_creation_date              2020-02-04
_audit_creation_method            'Pymatgen'
_symmetry_space_group_name_H-M    'P1'
_symmetry_Int_Tables_number       1
loop_
_symmetry_equiv_pos_as_xyz
  x,y,z
_cell_length_a                    17.4986
_cell_length_b                    17.4986
_cell_length_c                    48.4204
_cell_angle_alpha                 90.0
_cell_angle_beta                 90.0
_cell_angle_gamma                 120.0
loop_
_atom_site_label
_atom_site_type_symbol
_atom_site_fract_x
_atom_site_fract_y
_atom_site_fract_z
V1     V     0.1191   0.3809   0.9667
V2     V     0.6191   0.8809   0.8667
V3     V     0.6191   0.7382   0.3
V4     V     0.1191   0.7382   0.2
V5     V     0.7382   0.1191   0.1333
V6     V     0.7382   0.6191   0.0333
V7     V     0.3809   0.2618   0.8
V8     V     0.8809   0.2618   0.7
V9     V     0.8809   0.6191   0.4667
V10     V     0.3809   0.1191   0.3667
V11     V     0.2618   0.8809   0.6333
V12     V     0.2618   0.3809   0.5333
loop_
_geom_bond_atom_site_label_1
_geom_bond_atom_site_label_2
_geom_bond_distance
_geom_bond_site_symmetry_2
_ccdc_geom_bond_type
V1     V6    10.0   1_556     S
V1     V2    10.0   .     S
V1     V7    10.0   .     S
V1     V6    10.0   1_456     S
V1     V5    10.0   1_456     S
V1     V2    10.0   1_445     S
V2     V6    10.0   1_556     S
V2     V7    10.0   .     S
V2     V7    10.0   1_565     S
V2     V8    10.0   1_565     S
V2     V1    10.0   1_665     S
V3     V10    10.0   1_565     S
V3     V4    10.0   .     S
V3     V5    10.0   1_565     S
V3     V10    10.0   .     S
V3     V9    10.0   .     S
V3     V4    10.0   1_655     S
V4     V10    10.0   1_565     S
V4     V5    10.0   1_565     S
V4     V5    10.0   1_455     S
V4     V6    10.0   1_455     S
V4     V3    10.0   1_455     S
V5     V4    10.0   1_545     S
V5     V3    10.0   1_545     S
V5     V4    10.0   1_655     S
V5     V6    10.0   .     S
V5     V1    10.0   1_654     S
V5     V6    10.0   1_545     S
V6     V1    10.0   1_554     S
V6     V2    10.0   1_554     S
V6     V4    10.0   1_655     S
V6     V1    10.0   1_654     S
V6     V5    10.0   1_565     S
V7     V2    10.0   1_545     S
V7     V8    10.0   .     S
V7     V11    10.0   1_545     S
V7     V8    10.0   1_455     S
V8     V2    10.0   1_545     S
V8     V11    10.0   1_545     S
V8     V11    10.0   1_655     S
V8     V12    10.0   1_655     S
V8     V7    10.0   1_655     S
V9     V12    10.0   .     S
V9     V10    10.0   .     S
V9     V12    10.0   1_655     S
V9     V11    10.0   1_655     S
V9     V10    10.0   1_665     S
V10     V3    10.0   1_545     S
V10     V4    10.0   1_545     S
V10     V12    10.0   .     S
V10     V9    10.0   1_445     S
V11     V8    10.0   1_565     S
V11     V7    10.0   1_565     S
V11     V8    10.0   1_455     S
V11     V12    10.0   .     S
V11     V9    10.0   1_455     S
V11     V12    10.0   1_565     S
V12     V8    10.0   1_455     S
V12     V9    10.0   1_455     S
V12     V11    10.0   1_545     S
