data_wkl
_audit_creation_date              2020-02-04
_audit_creation_method            'Pymatgen'
_symmetry_space_group_name_H-M    'P1'
_symmetry_Int_Tables_number       1
loop_
_symmetry_equiv_pos_as_xyz
  x,y,z
_cell_length_a                    45.7013
_cell_length_b                    45.7013
_cell_length_c                    20.0
_cell_angle_alpha                 90.0
_cell_angle_beta                 90.0
_cell_angle_gamma                 120.0
loop_
_atom_site_label
_atom_site_type_symbol
_atom_site_fract_x
_atom_site_fract_y
_atom_site_fract_z
V1     V     0.3421   0.8737   0.5
V2     V     0.3421   0.8737   1.0
V3     V     0.4684   0.1263   0.0
V4     V     0.4684   0.1263   0.5
V5     V     0.6579   0.1263   0.25
V6     V     0.6579   0.1263   0.75
V7     V     0.5316   0.8737   0.25
V8     V     0.5316   0.8737   0.75
V9     V     0.6579   0.5316   0.3333
V10     V     0.6579   0.5316   0.8333
V11     V     0.4684   0.3421   0.0833
V12     V     0.4684   0.3421   0.5833
V13     V     0.5316   0.6579   0.3333
V14     V     0.5316   0.6579   0.8333
V15     V     0.3421   0.4684   0.0833
V16     V     0.3421   0.4684   0.5833
V17     V     0.1263   0.4684   0.1667
V18     V     0.1263   0.4684   0.6667
V19     V     0.1263   0.6579   0.4167
V20     V     0.1263   0.6579   0.9167
V21     V     0.8737   0.5316   0.4167
V22     V     0.8737   0.5316   0.9167
V23     V     0.8737   0.3421   0.1667
V24     V     0.8737   0.3421   0.6667
loop_
_geom_bond_atom_site_label_1
_geom_bond_atom_site_label_2
_geom_bond_distance
_geom_bond_site_symmetry_2
_ccdc_geom_bond_type
V1     V7    10.0   .     S
V1     V2    10.0   1_554     S
V1     V2    10.0   .     S
V1     V8    10.0   .     S
V1     V4    10.0   1_565     S
V1     V19    10.0   .     S
V2     V8    10.0   .     S
V2     V1    10.0   1_556     S
V2     V7    10.0   1_556     S
V2     V3    10.0   1_566     S
V2     V20    10.0   .     S
V3     V2    10.0   1_544     S
V3     V4    10.0   .     S
V3     V4    10.0   1_554     S
V3     V5    10.0   .     S
V3     V6    10.0   1_554     S
V3     V11    10.0   .     S
V4     V1    10.0   1_545     S
V4     V3    10.0   1_556     S
V4     V6    10.0   .     S
V4     V5    10.0   .     S
V4     V12    10.0   .     S
V5     V6    10.0   .     S
V5     V6    10.0   1_554     S
V5     V7    10.0   1_545     S
V5     V23    10.0   .     S
V6     V5    10.0   1_556     S
V6     V3    10.0   1_556     S
V6     V8    10.0   1_545     S
V6     V24    10.0   .     S
V7     V2    10.0   1_554     S
V7     V5    10.0   1_565     S
V7     V8    10.0   1_554     S
V7     V8    10.0   .     S
V7     V13    10.0   .     S
V8     V6    10.0   1_565     S
V8     V7    10.0   1_556     S
V8     V14    10.0   .     S
V9     V11    10.0   .     S
V9     V10    10.0   1_554     S
V9     V10    10.0   .     S
V9     V12    10.0   .     S
V9     V13    10.0   .     S
V9     V21    10.0   .     S
V10     V12    10.0   .     S
V10     V9    10.0   1_556     S
V10     V11    10.0   1_556     S
V10     V14    10.0   .     S
V10     V22    10.0   .     S
V11     V12    10.0   .     S
V11     V12    10.0   1_554     S
V11     V10    10.0   1_554     S
V11     V15    10.0   .     S
V12     V11    10.0   1_556     S
V12     V16    10.0   .     S
V13     V15    10.0   .     S
V13     V16    10.0   .     S
V13     V14    10.0   1_554     S
V13     V14    10.0   .     S
V14     V16    10.0   .     S
V14     V15    10.0   1_556     S
V14     V13    10.0   1_556     S
V15     V14    10.0   1_554     S
V15     V16    10.0   .     S
V15     V16    10.0   1_554     S
V15     V17    10.0   .     S
V16     V15    10.0   1_556     S
V16     V18    10.0   .     S
V17     V18    10.0   .     S
V17     V18    10.0   1_554     S
V17     V19    10.0   .     S
V17     V20    10.0   1_554     S
V17     V23    10.0   1_455     S
V18     V17    10.0   1_556     S
V18     V20    10.0   .     S
V18     V19    10.0   .     S
V18     V24    10.0   1_455     S
V19     V20    10.0   1_554     S
V19     V20    10.0   .     S
V19     V21    10.0   1_455     S
V20     V17    10.0   1_556     S
V20     V19    10.0   1_556     S
V20     V22    10.0   1_455     S
V21     V19    10.0   1_655     S
V21     V23    10.0   .     S
V21     V24    10.0   .     S
V21     V22    10.0   1_554     S
V21     V22    10.0   .     S
V22     V20    10.0   1_655     S
V22     V24    10.0   .     S
V22     V23    10.0   1_556     S
V22     V21    10.0   1_556     S
V23     V22    10.0   1_554     S
V23     V24    10.0   .     S
V23     V24    10.0   1_554     S
V23     V17    10.0   1_655     S
V24     V23    10.0   1_556     S
V24     V18    10.0   1_655     S
