data_wku
_audit_creation_date              2020-02-04
_audit_creation_method            'Pymatgen'
_symmetry_space_group_name_H-M    'P1'
_symmetry_Int_Tables_number       1
loop_
_symmetry_equiv_pos_as_xyz
  x,y,z
_cell_length_a                    16.4575
_cell_length_b                    16.4575
_cell_length_c                    52.7966
_cell_angle_alpha                 90.0
_cell_angle_beta                 90.0
_cell_angle_gamma                 120.0
loop_
_atom_site_label
_atom_site_type_symbol
_atom_site_fract_x
_atom_site_fract_y
_atom_site_fract_z
V1     V     0.3333   0.1667   0.3038
V2     V     0.8333   0.1667   0.1962
V3     V     0.1667   0.3333   0.0295
V4     V     0.1667   0.8333   0.1371
V5     V     0.8333   0.6667   0.9705
V6     V     0.3333   0.1667   0.8629
V7     V     0.8333   0.1667   0.6371
V8     V     0.8333   0.6667   0.5295
V9     V     0.1667   0.8333   0.6962
V10     V     0.6667   0.8333   0.8038
V11     V     0.1667   0.3333   0.4705
V12     V     0.6667   0.8333   0.3629
loop_
_geom_bond_atom_site_label_1
_geom_bond_atom_site_label_2
_geom_bond_distance
_geom_bond_site_symmetry_2
_ccdc_geom_bond_type
V1     V2    10.0   .     S
V1     V12    10.0   1_545     S
V1     V11    10.0   .     S
V1     V4    10.0   1_545     S
V1     V2    10.0   1_455     S
V1     V12    10.0   1_445     S
V1     V12    10.0   .     S
V2     V3    10.0   1_655     S
V2     V4    10.0   1_545     S
V2     V4    10.0   1_655     S
V2     V1    10.0   1_655     S
V2     V4    10.0   1_645     S
V2     V12    10.0   1_545     S
V3     V2    10.0   1_455     S
V3     V4    10.0   .     S
V3     V6    10.0   1_554     S
V3     V5    10.0   1_454     S
V3     V5    10.0   1_554     S
V3     V4    10.0   1_545     S
V3     V5    10.0   1_444     S
V4     V2    10.0   1_565     S
V4     V2    10.0   1_455     S
V4     V1    10.0   1_565     S
V4     V5    10.0   1_454     S
V4     V3    10.0   1_565     S
V4     V2    10.0   1_465     S
V5     V3    10.0   1_656     S
V5     V6    10.0   .     S
V5     V3    10.0   1_556     S
V5     V4    10.0   1_656     S
V5     V10    10.0   .     S
V5     V6    10.0   1_665     S
V5     V3    10.0   1_666     S
V6     V3    10.0   1_556     S
V6     V9    10.0   1_545     S
V6     V10    10.0   .     S
V6     V10    10.0   1_545     S
V6     V5    10.0   1_445     S
V6     V10    10.0   1_445     S
V7     V8    10.0   .     S
V7     V10    10.0   1_545     S
V7     V9    10.0   1_655     S
V7     V9    10.0   1_545     S
V7     V8    10.0   1_545     S
V7     V9    10.0   1_645     S
V7     V11    10.0   1_655     S
V8     V12    10.0   .     S
V8     V11    10.0   1_655     S
V8     V9    10.0   1_655     S
V8     V7    10.0   1_565     S
V8     V11    10.0   1_665     S
V8     V11    10.0   .     S
V9     V6    10.0   1_565     S
V9     V7    10.0   1_455     S
V9     V10    10.0   .     S
V9     V8    10.0   1_455     S
V9     V7    10.0   1_565     S
V9     V10    10.0   1_455     S
V9     V7    10.0   1_465     S
V10     V7    10.0   1_565     S
V10     V6    10.0   1_565     S
V10     V9    10.0   1_655     S
V10     V6    10.0   1_665     S
V11     V8    10.0   1_455     S
V11     V12    10.0   1_445     S
V11     V8    10.0   1_445     S
V11     V12    10.0   .     S
V11     V7    10.0   1_455     S
V12     V1    10.0   1_565     S
V12     V1    10.0   1_665     S
V12     V11    10.0   1_665     S
V12     V2    10.0   1_565     S
