data_wlh
_audit_creation_date              2020-02-04
_audit_creation_method            'Pymatgen'
_symmetry_space_group_name_H-M    'P1'
_symmetry_Int_Tables_number       1
loop_
_symmetry_equiv_pos_as_xyz
  x,y,z
_cell_length_a                    25.0685
_cell_length_b                    25.0685
_cell_length_c                    83.3356
_cell_angle_alpha                 90.0
_cell_angle_beta                 90.0
_cell_angle_gamma                 120.0
loop_
_atom_site_label
_atom_site_type_symbol
_atom_site_fract_x
_atom_site_fract_y
_atom_site_fract_z
V1     V     0.2539   0.4072   0.473
V2     V     0.1532   0.7461   0.473
V3     V     0.5928   0.8468   0.473
V4     V     0.7461   0.5928   0.527
V5     V     0.4072   0.1532   0.527
V6     V     0.8468   0.2539   0.527
V7     V     0.9206   0.1801   0.3063
V8     V     0.8199   0.7405   0.3063
V9     V     0.2595   0.0794   0.3063
V10     V     0.4128   0.4866   0.3603
V11     V     0.5134   0.9262   0.3603
V12     V     0.0738   0.5872   0.3603
V13     V     0.1801   0.9206   0.1937
V14     V     0.0794   0.2595   0.1937
V15     V     0.7405   0.8199   0.1937
V16     V     0.4866   0.4128   0.1397
V17     V     0.9262   0.5134   0.1397
V18     V     0.5872   0.0738   0.1397
V19     V     0.4866   0.0738   0.6397
V20     V     0.9262   0.4128   0.6397
V21     V     0.5872   0.5134   0.6397
V22     V     0.1801   0.2595   0.6937
V23     V     0.7405   0.9206   0.6937
V24     V     0.0794   0.8199   0.6937
V25     V     0.4128   0.9262   0.8603
V26     V     0.0738   0.4866   0.8603
V27     V     0.5134   0.5872   0.8603
V28     V     0.9206   0.7405   0.8063
V29     V     0.2595   0.1801   0.8063
V30     V     0.8199   0.0794   0.8063
V31     V     0.2539   0.8468   0.973
V32     V     0.5928   0.7461   0.973
V33     V     0.1532   0.4072   0.973
V34     V     0.8468   0.5928   0.027
V35     V     0.4072   0.2539   0.027
V36     V     0.7461   0.1532   0.027
loop_
_geom_bond_atom_site_label_1
_geom_bond_atom_site_label_2
_geom_bond_distance
_geom_bond_site_symmetry_2
_ccdc_geom_bond_type
V1     V2    10.0   .     S
V1     V6    10.0   1_455     S
V1     V3    10.0   .     S
V1     V5    10.0   .     S
V1     V10    10.0   .     S
V2     V3    10.0   .     S
V2     V5    10.0   1_565     S
V2     V4    10.0   1_455     S
V2     V12    10.0   .     S
V3     V4    10.0   .     S
V3     V6    10.0   1_565     S
V3     V11    10.0   .     S
V4     V6    10.0   .     S
V4     V2    10.0   1_655     S
V4     V5    10.0   .     S
V4     V21    10.0   .     S
V5     V2    10.0   1_545     S
V5     V6    10.0   .     S
V5     V19    10.0   .     S
V6     V1    10.0   1_655     S
V6     V3    10.0   1_545     S
V6     V20    10.0   .     S
V7     V8    10.0   1_545     S
V7     V11    10.0   1_545     S
V7     V9    10.0   1_655     S
V7     V12    10.0   1_655     S
V7     V14    10.0   1_655     S
V8     V7    10.0   1_565     S
V8     V9    10.0   1_665     S
V8     V12    10.0   1_655     S
V8     V10    10.0   .     S
V8     V15    10.0   .     S
V9     V8    10.0   1_445     S
V9     V7    10.0   1_455     S
V9     V10    10.0   .     S
V9     V11    10.0   1_545     S
V9     V13    10.0   1_545     S
V10     V11    10.0   .     S
V10     V12    10.0   .     S
V11     V7    10.0   1_565     S
V11     V12    10.0   .     S
V11     V9    10.0   1_565     S
V12     V8    10.0   1_455     S
V12     V7    10.0   1_455     S
V13     V9    10.0   1_565     S
V13     V15    10.0   1_455     S
V13     V17    10.0   1_455     S
V13     V14    10.0   1_565     S
V13     V18    10.0   1_565     S
V14     V7    10.0   1_455     S
V14     V13    10.0   1_545     S
V14     V16    10.0   .     S
V14     V15    10.0   1_445     S
V14     V17    10.0   1_455     S
V15     V13    10.0   1_655     S
V15     V14    10.0   1_665     S
V15     V18    10.0   1_565     S
V15     V16    10.0   .     S
V16     V17    10.0   .     S
V16     V18    10.0   .     S
V16     V35    10.0   .     S
V17     V13    10.0   1_655     S
V17     V18    10.0   .     S
V17     V14    10.0   1_655     S
V17     V34    10.0   .     S
V18     V15    10.0   1_545     S
V18     V13    10.0   1_545     S
V18     V36    10.0   .     S
V19     V20    10.0   .     S
V19     V23    10.0   1_545     S
V19     V21    10.0   .     S
V19     V24    10.0   1_545     S
V20     V21    10.0   .     S
V20     V24    10.0   1_655     S
V20     V22    10.0   1_655     S
V21     V22    10.0   .     S
V21     V23    10.0   .     S
V22     V23    10.0   1_445     S
V22     V20    10.0   1_455     S
V22     V24    10.0   1_545     S
V22     V29    10.0   .     S
V23     V19    10.0   1_565     S
V23     V22    10.0   1_665     S
V23     V24    10.0   1_655     S
V23     V30    10.0   1_565     S
V24     V20    10.0   1_455     S
V24     V23    10.0   1_455     S
V24     V22    10.0   1_565     S
V24     V19    10.0   1_565     S
V24     V28    10.0   1_455     S
V25     V27    10.0   .     S
V25     V30    10.0   1_565     S
V25     V26    10.0   .     S
V25     V29    10.0   1_565     S
V25     V31    10.0   .     S
V26     V28    10.0   1_455     S
V26     V27    10.0   .     S
V26     V30    10.0   1_455     S
V26     V33    10.0   .     S
V27     V29    10.0   .     S
V27     V28    10.0   .     S
V27     V32    10.0   .     S
V28     V24    10.0   1_655     S
V28     V26    10.0   1_655     S
V28     V30    10.0   1_565     S
V28     V29    10.0   1_665     S
V29     V28    10.0   1_445     S
V29     V25    10.0   1_545     S
V29     V30    10.0   1_455     S
V30     V23    10.0   1_545     S
V30     V25    10.0   1_545     S
V30     V28    10.0   1_545     S
V30     V29    10.0   1_655     S
V30     V26    10.0   1_655     S
V31     V33    10.0   .     S
V31     V34    10.0   1_456     S
V31     V32    10.0   .     S
V31     V35    10.0   1_566     S
V32     V36    10.0   1_566     S
V32     V33    10.0   .     S
V32     V34    10.0   1_556     S
V33     V35    10.0   1_556     S
V33     V36    10.0   1_456     S
V34     V31    10.0   1_654     S
V34     V35    10.0   .     S
V34     V32    10.0   1_554     S
V34     V36    10.0   .     S
V35     V33    10.0   1_554     S
V35     V36    10.0   .     S
V35     V31    10.0   1_544     S
V36     V32    10.0   1_544     S
V36     V33    10.0   1_654     S
