data_wlm
_audit_creation_date              2020-02-04
_audit_creation_method            'Pymatgen'
_symmetry_space_group_name_H-M    'P1'
_symmetry_Int_Tables_number       1
loop_
_symmetry_equiv_pos_as_xyz
  x,y,z
_cell_length_a                    81.3141
_cell_length_b                    81.3141
_cell_length_c                    20.0
_cell_angle_alpha                 90.0
_cell_angle_beta                 90.0
_cell_angle_gamma                 120.0
loop_
_atom_site_label
_atom_site_type_symbol
_atom_site_fract_x
_atom_site_fract_y
_atom_site_fract_z
V1     V     0.0692   0.5961   0.0553
V2     V     0.0692   0.5961   0.5553
V3     V     0.1398   0.7372   0.1113
V4     V     0.1398   0.7372   0.6113
V5     V     0.2628   0.8602   0.1113
V6     V     0.2628   0.8602   0.6113
V7     V     0.4039   0.9308   0.0553
V8     V     0.4039   0.9308   0.5553
V9     V     0.2628   0.4026   0.1113
V10     V     0.2628   0.4026   0.6113
V11     V     0.4039   0.4731   0.0553
V12     V     0.4039   0.4731   0.5553
V13     V     0.0692   0.4731   0.0553
V14     V     0.0692   0.4731   0.5553
V15     V     0.1398   0.4026   0.1113
V16     V     0.1398   0.4026   0.6113
V17     V     0.5269   0.5961   0.0553
V18     V     0.5269   0.5961   0.5553
V19     V     0.5974   0.7372   0.1113
V20     V     0.5974   0.7372   0.6113
V21     V     0.5269   0.9308   0.0553
V22     V     0.5269   0.9308   0.5553
V23     V     0.5974   0.8602   0.1113
V24     V     0.5974   0.8602   0.6113
V25     V     0.9308   0.5269   0.4447
V26     V     0.9308   0.5269   0.9447
V27     V     0.8602   0.5974   0.3887
V28     V     0.8602   0.5974   0.8887
V29     V     0.8602   0.2628   0.3887
V30     V     0.8602   0.2628   0.8887
V31     V     0.9308   0.4039   0.4447
V32     V     0.9308   0.4039   0.9447
V33     V     0.5961   0.5269   0.4447
V34     V     0.5961   0.5269   0.9447
V35     V     0.7372   0.5974   0.3887
V36     V     0.7372   0.5974   0.8887
V37     V     0.5961   0.0692   0.4447
V38     V     0.5961   0.0692   0.9447
V39     V     0.7372   0.1398   0.3887
V40     V     0.7372   0.1398   0.8887
V41     V     0.4731   0.0692   0.4447
V42     V     0.4731   0.0692   0.9447
V43     V     0.4026   0.1398   0.3887
V44     V     0.4026   0.1398   0.8887
V45     V     0.4731   0.4039   0.4447
V46     V     0.4731   0.4039   0.9447
V47     V     0.4026   0.2628   0.3887
V48     V     0.4026   0.2628   0.8887
V49     V     0.8065   0.7359   0.278
V50     V     0.8065   0.7359   0.778
V51     V     0.7359   0.8065   0.222
V52     V     0.7359   0.8065   0.722
V53     V     0.9294   0.7359   0.278
V54     V     0.9294   0.7359   0.778
V55     V     0.0706   0.8065   0.222
V56     V     0.0706   0.8065   0.722
V57     V     0.8065   0.0706   0.278
V58     V     0.8065   0.0706   0.778
V59     V     0.7359   0.9294   0.222
V60     V     0.7359   0.9294   0.722
V61     V     0.9294   0.1935   0.278
V62     V     0.9294   0.1935   0.778
V63     V     0.0706   0.2641   0.222
V64     V     0.0706   0.2641   0.722
V65     V     0.2641   0.0706   0.278
V66     V     0.2641   0.0706   0.778
V67     V     0.1935   0.9294   0.222
V68     V     0.1935   0.9294   0.722
V69     V     0.1935   0.2641   0.222
V70     V     0.1935   0.2641   0.722
V71     V     0.2641   0.1935   0.278
V72     V     0.2641   0.1935   0.778
loop_
_geom_bond_atom_site_label_1
_geom_bond_atom_site_label_2
_geom_bond_distance
_geom_bond_site_symmetry_2
_ccdc_geom_bond_type
V1     V26    10.001   1_454     S
V1     V3    10.0   .     S
V1     V2    10.0   .     S
V1     V2    10.0   1_554     S
V1     V13    10.0   .     S
V2     V25    10.001   1_455     S
V2     V4    10.0   .     S
V2     V1    10.0   1_556     S
V2     V14    10.0   .     S
V3     V55    10.001   .     S
V3     V4    10.0   .     S
V3     V4    10.0   1_554     S
V3     V5    10.0   .     S
V4     V56    10.001   .     S
V4     V3    10.0   1_556     S
V4     V6    10.0   .     S
V5     V67    10.001   .     S
V5     V7    10.0   .     S
V5     V6    10.0   .     S
V5     V6    10.0   1_554     S
V6     V68    10.001   .     S
V6     V8    10.0   .     S
V6     V5    10.0   1_556     S
V7     V42    10.001   1_564     S
V7     V8    10.0   .     S
V7     V8    10.0   1_554     S
V7     V21    10.0   .     S
V8     V41    10.001   1_565     S
V8     V7    10.0   1_556     S
V8     V22    10.0   .     S
V9     V11    10.0   .     S
V9     V10    10.0   .     S
V9     V10    10.0   1_554     S
V9     V15    10.0   .     S
V9     V69    10.001   .     S
V10     V12    10.0   .     S
V10     V9    10.0   1_556     S
V10     V16    10.0   .     S
V10     V70    10.001   .     S
V11     V46    10.001   1_554     S
V11     V12    10.0   .     S
V11     V12    10.0   1_554     S
V11     V17    10.0   .     S
V12     V45    10.001   .     S
V12     V11    10.0   1_556     S
V12     V18    10.0   .     S
V13     V32    10.001   1_454     S
V13     V15    10.0   .     S
V13     V14    10.0   .     S
V13     V14    10.0   1_554     S
V14     V31    10.001   1_455     S
V14     V16    10.0   .     S
V14     V13    10.0   1_556     S
V15     V63    10.001   .     S
V15     V16    10.0   .     S
V15     V16    10.0   1_554     S
V16     V64    10.001   .     S
V16     V15    10.0   1_556     S
V17     V19    10.0   .     S
V17     V18    10.0   .     S
V17     V18    10.0   1_554     S
V17     V34    10.001   1_554     S
V18     V20    10.0   .     S
V18     V17    10.0   1_556     S
V18     V33    10.001   .     S
V19     V20    10.0   .     S
V19     V20    10.0   1_554     S
V19     V23    10.0   .     S
V19     V51    10.001   .     S
V20     V19    10.0   1_556     S
V20     V24    10.0   .     S
V20     V52    10.001   .     S
V21     V38    10.001   1_564     S
V21     V23    10.0   .     S
V21     V22    10.0   .     S
V21     V22    10.0   1_554     S
V22     V37    10.001   1_565     S
V22     V24    10.0   .     S
V22     V21    10.0   1_556     S
V23     V59    10.001   .     S
V23     V24    10.0   .     S
V23     V24    10.0   1_554     S
V24     V60    10.001   .     S
V24     V23    10.0   1_556     S
V25     V2    10.001   1_655     S
V25     V27    10.0   .     S
V25     V26    10.0   1_554     S
V25     V26    10.0   .     S
V25     V31    10.0   .     S
V26     V1    10.001   1_656     S
V26     V28    10.0   .     S
V26     V25    10.0   1_556     S
V26     V32    10.0   .     S
V27     V53    10.001   .     S
V27     V28    10.0   1_554     S
V27     V28    10.0   .     S
V27     V35    10.0   .     S
V28     V54    10.001   .     S
V28     V27    10.0   1_556     S
V28     V36    10.0   .     S
V29     V61    10.001   .     S
V29     V31    10.0   .     S
V29     V30    10.0   1_554     S
V29     V30    10.0   .     S
V29     V39    10.0   .     S
V30     V62    10.001   .     S
V30     V32    10.0   .     S
V30     V29    10.0   1_556     S
V30     V40    10.0   .     S
V31     V14    10.001   1_655     S
V31     V32    10.0   1_554     S
V31     V32    10.0   .     S
V32     V13    10.001   1_656     S
V32     V31    10.0   1_556     S
V33     V35    10.0   .     S
V33     V34    10.0   1_554     S
V33     V34    10.0   .     S
V33     V45    10.0   .     S
V34     V17    10.001   1_556     S
V34     V36    10.0   .     S
V34     V33    10.0   1_556     S
V34     V46    10.0   .     S
V35     V36    10.0   1_554     S
V35     V36    10.0   .     S
V35     V49    10.001   .     S
V36     V35    10.0   1_556     S
V36     V50    10.001   .     S
V37     V22    10.001   1_545     S
V37     V39    10.0   .     S
V37     V38    10.0   1_554     S
V37     V38    10.0   .     S
V37     V41    10.0   .     S
V38     V21    10.001   1_546     S
V38     V40    10.0   .     S
V38     V37    10.0   1_556     S
V38     V42    10.0   .     S
V39     V57    10.001   .     S
V39     V40    10.0   1_554     S
V39     V40    10.0   .     S
V40     V58    10.001   .     S
V40     V39    10.0   1_556     S
V41     V8    10.001   1_545     S
V41     V43    10.0   .     S
V41     V42    10.0   1_554     S
V41     V42    10.0   .     S
V42     V7    10.001   1_546     S
V42     V44    10.0   .     S
V42     V41    10.0   1_556     S
V43     V65    10.001   .     S
V43     V44    10.0   1_554     S
V43     V44    10.0   .     S
V43     V47    10.0   .     S
V44     V66    10.001   .     S
V44     V43    10.0   1_556     S
V44     V48    10.0   .     S
V45     V47    10.0   .     S
V45     V46    10.0   1_554     S
V45     V46    10.0   .     S
V46     V11    10.001   1_556     S
V46     V48    10.0   .     S
V46     V45    10.0   1_556     S
V47     V48    10.0   1_554     S
V47     V48    10.0   .     S
V47     V71    10.001   .     S
V48     V47    10.0   1_556     S
V48     V72    10.001   .     S
V49     V51    10.0   .     S
V49     V50    10.0   1_554     S
V49     V50    10.0   .     S
V49     V53    10.0   .     S
V50     V52    10.0   .     S
V50     V49    10.0   1_556     S
V50     V54    10.0   .     S
V51     V52    10.0   .     S
V51     V52    10.0   1_554     S
V51     V59    10.0   .     S
V52     V51    10.0   1_556     S
V52     V60    10.0   .     S
V53     V55    10.0   1_655     S
V53     V54    10.0   1_554     S
V53     V54    10.0   .     S
V54     V56    10.0   1_655     S
V54     V53    10.0   1_556     S
V55     V53    10.0   1_455     S
V55     V56    10.0   .     S
V55     V56    10.0   1_554     S
V55     V67    10.0   .     S
V56     V54    10.0   1_455     S
V56     V55    10.0   1_556     S
V56     V68    10.0   .     S
V57     V59    10.0   1_545     S
V57     V58    10.0   1_554     S
V57     V58    10.0   .     S
V57     V61    10.0   .     S
V58     V60    10.0   1_545     S
V58     V57    10.0   1_556     S
V58     V62    10.0   .     S
V59     V57    10.0   1_565     S
V59     V60    10.0   .     S
V59     V60    10.0   1_554     S
V60     V58    10.0   1_565     S
V60     V59    10.0   1_556     S
V61     V63    10.0   1_655     S
V61     V62    10.0   1_554     S
V61     V62    10.0   .     S
V62     V64    10.0   1_655     S
V62     V61    10.0   1_556     S
V63     V61    10.0   1_455     S
V63     V64    10.0   .     S
V63     V64    10.0   1_554     S
V63     V69    10.0   .     S
V64     V62    10.0   1_455     S
V64     V63    10.0   1_556     S
V64     V70    10.0   .     S
V65     V67    10.0   1_545     S
V65     V66    10.0   1_554     S
V65     V66    10.0   .     S
V65     V71    10.0   .     S
V66     V68    10.0   1_545     S
V66     V65    10.0   1_556     S
V66     V72    10.0   .     S
V67     V65    10.0   1_565     S
V67     V68    10.0   .     S
V67     V68    10.0   1_554     S
V68     V66    10.0   1_565     S
V68     V67    10.0   1_556     S
V69     V71    10.0   .     S
V69     V70    10.0   .     S
V69     V70    10.0   1_554     S
V70     V72    10.0   .     S
V70     V69    10.0   1_556     S
V71     V72    10.0   1_554     S
V71     V72    10.0   .     S
V72     V71    10.0   1_556     S
