data_wln
_audit_creation_date              2020-02-04
_audit_creation_method            'Pymatgen'
_symmetry_space_group_name_H-M    'P1'
_symmetry_Int_Tables_number       1
loop_
_symmetry_equiv_pos_as_xyz
  x,y,z
_cell_length_a                    79.2939
_cell_length_b                    79.2939
_cell_length_c                    20.0
_cell_angle_alpha                 90.0
_cell_angle_beta                 90.0
_cell_angle_gamma                 120.0
loop_
_atom_site_label
_atom_site_type_symbol
_atom_site_fract_x
_atom_site_fract_y
_atom_site_fract_z
V1     V     0.2679   0.197   0.1928
V2     V     0.2679   0.197   0.6928
V3     V     0.197   0.2679   0.3072
V4     V     0.197   0.2679   0.8072
V5     V     0.3988   0.1363   0.4738
V6     V     0.3988   0.1363   0.9738
V7     V     0.4697   0.0655   0.3595
V8     V     0.4697   0.0655   0.8595
V9     V     0.7321   0.803   0.3072
V10     V     0.7321   0.803   0.8072
V11     V     0.803   0.7321   0.1928
V12     V     0.803   0.7321   0.6928
V13     V     0.8637   0.2624   0.4738
V14     V     0.8637   0.2624   0.9738
V15     V     0.7375   0.1363   0.4738
V16     V     0.7375   0.1363   0.9738
V17     V     0.9345   0.5303   0.3595
V18     V     0.9345   0.5303   0.8595
V19     V     0.9345   0.4042   0.3595
V20     V     0.9345   0.4042   0.8595
V21     V     0.5958   0.0655   0.3595
V22     V     0.5958   0.0655   0.8595
V23     V     0.8637   0.6012   0.4738
V24     V     0.8637   0.6012   0.9738
V25     V     0.7376   0.6012   0.4738
V26     V     0.7376   0.6012   0.9738
V27     V     0.5958   0.5303   0.3595
V28     V     0.5958   0.5303   0.8595
V29     V     0.4697   0.4042   0.3595
V30     V     0.4697   0.4042   0.8595
V31     V     0.3988   0.2624   0.4738
V32     V     0.3988   0.2624   0.9738
V33     V     0.2624   0.3988   0.0262
V34     V     0.2624   0.3988   0.5262
V35     V     0.5303   0.9345   0.1405
V36     V     0.5303   0.9345   0.6405
V37     V     0.4042   0.9345   0.1405
V38     V     0.4042   0.9345   0.6405
V39     V     0.2624   0.8637   0.0262
V40     V     0.2624   0.8637   0.5262
V41     V     0.1363   0.7375   0.0262
V42     V     0.1363   0.7375   0.5262
V43     V     0.4042   0.4697   0.1405
V44     V     0.4042   0.4697   0.6405
V45     V     0.5303   0.5958   0.1405
V46     V     0.5303   0.5958   0.6405
V47     V     0.6012   0.8637   0.0262
V48     V     0.6012   0.8637   0.5262
V49     V     0.6012   0.7375   0.0262
V50     V     0.6012   0.7375   0.5262
V51     V     0.0655   0.5958   0.1405
V52     V     0.0655   0.5958   0.6405
V53     V     0.2679   0.0709   0.1928
V54     V     0.2679   0.0709   0.6928
V55     V     0.197   0.9291   0.3072
V56     V     0.197   0.9291   0.8072
V57     V     0.0709   0.803   0.3072
V58     V     0.0709   0.803   0.8072
V59     V     0.9291   0.7321   0.1928
V60     V     0.9291   0.7321   0.6928
V61     V     0.1363   0.3988   0.0262
V62     V     0.1363   0.3988   0.5262
V63     V     0.0655   0.4697   0.1405
V64     V     0.0655   0.4697   0.6405
V65     V     0.7321   0.9291   0.3072
V66     V     0.7321   0.9291   0.8072
V67     V     0.0709   0.2679   0.3072
V68     V     0.0709   0.2679   0.8072
V69     V     0.803   0.0709   0.1928
V70     V     0.803   0.0709   0.6928
V71     V     0.9291   0.197   0.1928
V72     V     0.9291   0.197   0.6928
loop_
_geom_bond_atom_site_label_1
_geom_bond_atom_site_label_2
_geom_bond_distance
_geom_bond_site_symmetry_2
_ccdc_geom_bond_type
V1     V3    10.0   .     S
V1     V32    10.0   1_554     S
V1     V53    10.0   .     S
V1     V2    10.0   .     S
V1     V2    10.0   1_554     S
V2     V4    10.0   .     S
V2     V31    10.0   .     S
V2     V54    10.0   .     S
V2     V1    10.0   1_556     S
V3     V34    10.0   .     S
V3     V67    10.0   .     S
V3     V4    10.0   1_554     S
V3     V4    10.0   .     S
V4     V33    10.0   1_556     S
V4     V68    10.0   .     S
V4     V3    10.0   1_556     S
V5     V54    10.0   .     S
V5     V31    10.0   .     S
V5     V7    10.0   .     S
V5     V6    10.0   1_554     S
V5     V6    10.0   .     S
V6     V53    10.0   1_556     S
V6     V32    10.0   .     S
V6     V8    10.0   .     S
V6     V5    10.0   1_556     S
V7     V37    10.0   1_545     S
V7     V21    10.0   .     S
V7     V8    10.0   1_554     S
V7     V8    10.0   .     S
V8     V38    10.0   1_545     S
V8     V22    10.0   .     S
V8     V7    10.0   1_556     S
V9     V50    10.0   .     S
V9     V65    10.0   .     S
V9     V11    10.0   .     S
V9     V10    10.0   1_554     S
V9     V10    10.0   .     S
V10     V49    10.0   1_556     S
V10     V66    10.0   .     S
V10     V12    10.0   .     S
V10     V9    10.0   1_556     S
V11     V26    10.0   1_554     S
V11     V59    10.0   .     S
V11     V12    10.0   .     S
V11     V12    10.0   1_554     S
V12     V25    10.0   .     S
V12     V60    10.0   .     S
V12     V11    10.0   1_556     S
V13     V72    10.0   .     S
V13     V15    10.0   .     S
V13     V19    10.0   .     S
V13     V14    10.0   1_554     S
V13     V14    10.0   .     S
V14     V71    10.0   1_556     S
V14     V16    10.0   .     S
V14     V20    10.0   .     S
V14     V13    10.0   1_556     S
V15     V70    10.0   .     S
V15     V21    10.0   .     S
V15     V16    10.0   1_554     S
V15     V16    10.0   .     S
V16     V69    10.0   1_556     S
V16     V22    10.0   .     S
V16     V15    10.0   1_556     S
V17     V51    10.0   1_655     S
V17     V23    10.0   .     S
V17     V19    10.0   .     S
V17     V18    10.0   1_554     S
V17     V18    10.0   .     S
V18     V52    10.0   1_655     S
V18     V24    10.0   .     S
V18     V20    10.0   .     S
V18     V17    10.0   1_556     S
V19     V63    10.0   1_655     S
V19     V20    10.0   1_554     S
V19     V20    10.0   .     S
V20     V64    10.0   1_655     S
V20     V19    10.0   1_556     S
V21     V35    10.0   1_545     S
V21     V22    10.0   1_554     S
V21     V22    10.0   .     S
V22     V36    10.0   1_545     S
V22     V21    10.0   1_556     S
V23     V25    10.0   .     S
V23     V60    10.0   .     S
V23     V24    10.0   1_554     S
V23     V24    10.0   .     S
V24     V26    10.0   .     S
V24     V59    10.0   1_556     S
V24     V23    10.0   1_556     S
V25     V27    10.0   .     S
V25     V26    10.0   1_554     S
V25     V26    10.0   .     S
V26     V11    10.0   1_556     S
V26     V28    10.0   .     S
V26     V25    10.0   1_556     S
V27     V45    10.0   .     S
V27     V29    10.0   .     S
V27     V28    10.0   1_554     S
V27     V28    10.0   .     S
V28     V46    10.0   .     S
V28     V30    10.0   .     S
V28     V27    10.0   1_556     S
V29     V31    10.0   .     S
V29     V43    10.0   .     S
V29     V30    10.0   1_554     S
V29     V30    10.0   .     S
V30     V32    10.0   .     S
V30     V44    10.0   .     S
V30     V29    10.0   1_556     S
V31     V32    10.0   1_554     S
V31     V32    10.0   .     S
V32     V1    10.0   1_556     S
V32     V31    10.0   1_556     S
V33     V4    10.0   1_554     S
V33     V43    10.0   .     S
V33     V61    10.0   .     S
V33     V34    10.0   .     S
V33     V34    10.0   1_554     S
V34     V44    10.0   .     S
V34     V62    10.0   .     S
V34     V33    10.0   1_556     S
V35     V21    10.0   1_565     S
V35     V47    10.0   .     S
V35     V37    10.0   .     S
V35     V36    10.0   .     S
V35     V36    10.0   1_554     S
V36     V22    10.0   1_565     S
V36     V48    10.0   .     S
V36     V38    10.0   .     S
V36     V35    10.0   1_556     S
V37     V7    10.0   1_565     S
V37     V39    10.0   .     S
V37     V38    10.0   .     S
V37     V38    10.0   1_554     S
V38     V8    10.0   1_565     S
V38     V40    10.0   .     S
V38     V37    10.0   1_556     S
V39     V56    10.0   1_554     S
V39     V41    10.0   .     S
V39     V40    10.0   .     S
V39     V40    10.0   1_554     S
V40     V55    10.0   .     S
V40     V42    10.0   .     S
V40     V39    10.0   1_556     S
V41     V58    10.0   1_554     S
V41     V51    10.0   .     S
V41     V42    10.0   .     S
V41     V42    10.0   1_554     S
V42     V57    10.0   .     S
V42     V52    10.0   .     S
V42     V41    10.0   1_556     S
V43     V45    10.0   .     S
V43     V44    10.0   .     S
V43     V44    10.0   1_554     S
V44     V46    10.0   .     S
V44     V43    10.0   1_556     S
V45     V49    10.0   .     S
V45     V46    10.0   .     S
V45     V46    10.0   1_554     S
V46     V50    10.0   .     S
V46     V45    10.0   1_556     S
V47     V49    10.0   .     S
V47     V66    10.0   1_554     S
V47     V48    10.0   .     S
V47     V48    10.0   1_554     S
V48     V50    10.0   .     S
V48     V65    10.0   .     S
V48     V47    10.0   1_556     S
V49     V10    10.0   1_554     S
V49     V50    10.0   .     S
V49     V50    10.0   1_554     S
V50     V49    10.0   1_556     S
V51     V17    10.0   1_455     S
V51     V63    10.0   .     S
V51     V52    10.0   .     S
V51     V52    10.0   1_554     S
V52     V18    10.0   1_455     S
V52     V64    10.0   .     S
V52     V51    10.0   1_556     S
V53     V6    10.0   1_554     S
V53     V55    10.0   1_545     S
V53     V54    10.0   .     S
V53     V54    10.0   1_554     S
V54     V56    10.0   1_545     S
V54     V53    10.0   1_556     S
V55     V53    10.0   1_565     S
V55     V57    10.0   .     S
V55     V56    10.0   1_554     S
V55     V56    10.0   .     S
V56     V39    10.0   1_556     S
V56     V54    10.0   1_565     S
V56     V58    10.0   .     S
V56     V55    10.0   1_556     S
V57     V59    10.0   1_455     S
V57     V58    10.0   1_554     S
V57     V58    10.0   .     S
V58     V41    10.0   1_556     S
V58     V60    10.0   1_455     S
V58     V57    10.0   1_556     S
V59     V24    10.0   1_554     S
V59     V57    10.0   1_655     S
V59     V60    10.0   .     S
V59     V60    10.0   1_554     S
V60     V58    10.0   1_655     S
V60     V59    10.0   1_556     S
V61     V68    10.0   1_554     S
V61     V63    10.0   .     S
V61     V62    10.0   .     S
V61     V62    10.0   1_554     S
V62     V67    10.0   .     S
V62     V64    10.0   .     S
V62     V61    10.0   1_556     S
V63     V19    10.0   1_455     S
V63     V64    10.0   .     S
V63     V64    10.0   1_554     S
V64     V20    10.0   1_455     S
V64     V63    10.0   1_556     S
V65     V69    10.0   1_565     S
V65     V66    10.0   1_554     S
V65     V66    10.0   .     S
V66     V47    10.0   1_556     S
V66     V70    10.0   1_565     S
V66     V65    10.0   1_556     S
V67     V71    10.0   1_455     S
V67     V68    10.0   1_554     S
V67     V68    10.0   .     S
V68     V61    10.0   1_556     S
V68     V72    10.0   1_455     S
V68     V67    10.0   1_556     S
V69     V16    10.0   1_554     S
V69     V65    10.0   1_545     S
V69     V71    10.0   .     S
V69     V70    10.0   .     S
V69     V70    10.0   1_554     S
V70     V66    10.0   1_545     S
V70     V72    10.0   .     S
V70     V69    10.0   1_556     S
V71     V14    10.0   1_554     S
V71     V67    10.0   1_655     S
V71     V72    10.0   .     S
V71     V72    10.0   1_554     S
V72     V68    10.0   1_655     S
V72     V71    10.0   1_556     S
