data_wmc
_audit_creation_date              2020-02-04
_audit_creation_method            'Pymatgen'
_symmetry_space_group_name_H-M    'P1'
_symmetry_Int_Tables_number       1
loop_
_symmetry_equiv_pos_as_xyz
  x,y,z
_cell_length_a                    29.7635
_cell_length_b                    29.7635
_cell_length_c                    19.493
_cell_angle_alpha                 90.0
_cell_angle_beta                 90.0
_cell_angle_gamma                 120.0
loop_
_atom_site_label
_atom_site_type_symbol
_atom_site_fract_x
_atom_site_fract_y
_atom_site_fract_z
V1     V     0.5944   0.1136   0.0
V2     V     0.5192   0.1136   0.5
V3     V     0.5192   0.4056   0.0
V4     V     0.5944   0.4808   0.5
V5     V     0.8864   0.4056   0.5
V6     V     0.8864   0.4808   0.0
V7     V     0.5531   0.8141   0.3333
V8     V     0.5531   0.739   0.8333
V9     V     0.1859   0.4469   0.8333
V10     V     0.261   0.4469   0.3333
V11     V     0.1859   0.739   0.3333
V12     V     0.261   0.8141   0.8333
V13     V     0.2197   0.1474   0.6667
V14     V     0.2197   0.0723   0.1667
V15     V     0.9277   0.7803   0.6667
V16     V     0.8526   0.7803   0.1667
V17     V     0.8526   0.0723   0.6667
V18     V     0.9277   0.1474   0.1667
loop_
_geom_bond_atom_site_label_1
_geom_bond_atom_site_label_2
_geom_bond_distance
_geom_bond_site_symmetry_2
_ccdc_geom_bond_type
V1     V6    10.0   .     S
V1     V2    10.0   1_554     S
V1     V12    10.0   1_544     S
V1     V2    10.0   .     S
V1     V3    10.0   .     S
V1     V18    10.0   .     S
V2     V1    10.0   1_556     S
V2     V4    10.0   .     S
V2     V7    10.0   1_545     S
V2     V5    10.0   .     S
V2     V13    10.0   .     S
V3     V4    10.0   1_554     S
V3     V8    10.0   1_554     S
V3     V4    10.0   .     S
V3     V6    10.0   .     S
V3     V14    10.0   .     S
V4     V3    10.0   1_556     S
V4     V5    10.0   .     S
V4     V10    10.0   .     S
V4     V15    10.0   .     S
V5     V6    10.0   .     S
V5     V11    10.0   1_655     S
V5     V6    10.0   1_556     S
V5     V17    10.0   .     S
V6     V5    10.0   1_554     S
V6     V9    10.0   1_654     S
V6     V16    10.0   .     S
V7     V2    10.0   1_565     S
V7     V11    10.0   .     S
V7     V8    10.0   1_554     S
V7     V16    10.0   .     S
V7     V8    10.0   .     S
V7     V10    10.0   .     S
V8     V3    10.0   1_556     S
V8     V7    10.0   1_556     S
V8     V9    10.0   .     S
V8     V17    10.0   1_565     S
V8     V12    10.0   .     S
V9     V6    10.0   1_456     S
V9     V12    10.0   .     S
V9     V10    10.0   .     S
V9     V13    10.0   .     S
V9     V10    10.0   1_556     S
V10     V9    10.0   1_554     S
V10     V18    10.0   1_455     S
V10     V11    10.0   .     S
V11     V5    10.0   1_455     S
V11     V12    10.0   1_554     S
V11     V14    10.0   1_565     S
V11     V12    10.0   .     S
V12     V1    10.0   1_566     S
V12     V11    10.0   1_556     S
V12     V15    10.0   1_455     S
V13     V17    10.0   1_455     S
V13     V14    10.0   .     S
V13     V14    10.0   1_556     S
V13     V15    10.0   1_445     S
V14     V11    10.0   1_545     S
V14     V16    10.0   1_445     S
V14     V13    10.0   1_554     S
V14     V18    10.0   1_455     S
V15     V12    10.0   1_655     S
V15     V13    10.0   1_665     S
V15     V16    10.0   .     S
V15     V16    10.0   1_556     S
V15     V17    10.0   1_565     S
V16     V14    10.0   1_665     S
V16     V18    10.0   1_565     S
V16     V15    10.0   1_554     S
V17     V8    10.0   1_545     S
V17     V13    10.0   1_655     S
V17     V15    10.0   1_545     S
V17     V18    10.0   .     S
V17     V18    10.0   1_556     S
V18     V10    10.0   1_655     S
V18     V16    10.0   1_545     S
V18     V14    10.0   1_655     S
V18     V17    10.0   1_554     S
