data_wmq
_audit_creation_date              2020-02-04
_audit_creation_method            'Pymatgen'
_symmetry_space_group_name_H-M    'P1'
_symmetry_Int_Tables_number       1
loop_
_symmetry_equiv_pos_as_xyz
  x,y,z
_cell_length_a                    77.0781
_cell_length_b                    77.0781
_cell_length_c                    20.0
_cell_angle_alpha                 90.0
_cell_angle_beta                 90.0
_cell_angle_gamma                 120.0
loop_
_atom_site_label
_atom_site_type_symbol
_atom_site_fract_x
_atom_site_fract_y
_atom_site_fract_z
V1     V     0.9351   0.7405   0.125
V2     V     0.9351   0.7405   0.625
V3     V     0.8613   0.5928   0.0417
V4     V     0.8613   0.5928   0.5417
V5     V     0.1387   0.7315   0.4583
V6     V     0.1387   0.7315   0.9583
V7     V     0.0649   0.8054   0.375
V8     V     0.0649   0.8054   0.875
V9     V     0.9261   0.5279   0.2917
V10     V     0.9261   0.5279   0.7917
V11     V     0.0739   0.6018   0.2083
V12     V     0.0739   0.6018   0.7083
V13     V     0.9261   0.3982   0.2917
V14     V     0.9261   0.3982   0.7917
V15     V     0.0739   0.4721   0.2083
V16     V     0.0739   0.4721   0.7083
V17     V     0.1387   0.4072   0.4583
V18     V     0.1387   0.4072   0.9583
V19     V     0.0649   0.2595   0.375
V20     V     0.0649   0.2595   0.875
V21     V     0.9351   0.1946   0.125
V22     V     0.9351   0.1946   0.625
V23     V     0.8613   0.2685   0.0417
V24     V     0.8613   0.2685   0.5417
V25     V     0.3982   0.4721   0.2083
V26     V     0.3982   0.4721   0.7083
V27     V     0.4721   0.3982   0.2917
V28     V     0.4721   0.3982   0.7917
V29     V     0.4072   0.2685   0.0417
V30     V     0.4072   0.2685   0.5417
V31     V     0.2595   0.1946   0.125
V32     V     0.2595   0.1946   0.625
V33     V     0.2685   0.4072   0.4583
V34     V     0.2685   0.4072   0.9583
V35     V     0.1946   0.2595   0.375
V36     V     0.1946   0.2595   0.875
V37     V     0.7405   0.8054   0.375
V38     V     0.7405   0.8054   0.875
V39     V     0.5928   0.7315   0.4583
V40     V     0.5928   0.7315   0.9583
V41     V     0.6018   0.5279   0.2917
V42     V     0.6018   0.5279   0.7917
V43     V     0.5279   0.6018   0.2083
V44     V     0.5279   0.6018   0.7083
V45     V     0.8054   0.7405   0.125
V46     V     0.8054   0.7405   0.625
V47     V     0.7315   0.5928   0.0417
V48     V     0.7315   0.5928   0.5417
V49     V     0.5928   0.8613   0.4583
V50     V     0.5928   0.8613   0.9583
V51     V     0.7405   0.9351   0.375
V52     V     0.7405   0.9351   0.875
V53     V     0.8054   0.0649   0.125
V54     V     0.8054   0.0649   0.625
V55     V     0.7315   0.1387   0.0417
V56     V     0.7315   0.1387   0.5417
V57     V     0.6018   0.0739   0.2917
V58     V     0.6018   0.0739   0.7917
V59     V     0.5279   0.9261   0.2083
V60     V     0.5279   0.9261   0.7083
V61     V     0.4721   0.0739   0.2917
V62     V     0.4721   0.0739   0.7917
V63     V     0.3982   0.9261   0.2083
V64     V     0.3982   0.9261   0.7083
V65     V     0.2685   0.8613   0.4583
V66     V     0.2685   0.8613   0.9583
V67     V     0.1946   0.9351   0.375
V68     V     0.1946   0.9351   0.875
V69     V     0.4072   0.1387   0.0417
V70     V     0.4072   0.1387   0.5417
V71     V     0.2595   0.0649   0.125
V72     V     0.2595   0.0649   0.625
loop_
_geom_bond_atom_site_label_1
_geom_bond_atom_site_label_2
_geom_bond_distance
_geom_bond_site_symmetry_2
_ccdc_geom_bond_type
V1     V3    10.0   .     S
V1     V2    10.0   .     S
V1     V2    10.0   1_554     S
V1     V7    10.0   1_655     S
V1     V8    10.0   1_654     S
V1     V45    10.0   .     S
V2     V4    10.0   .     S
V2     V1    10.0   1_556     S
V2     V8    10.0   1_655     S
V2     V7    10.0   1_655     S
V2     V46    10.0   .     S
V3     V10    10.0   1_554     S
V3     V9    10.0   .     S
V3     V4    10.0   .     S
V3     V4    10.0   1_554     S
V3     V47    10.0   .     S
V4     V9    10.0   .     S
V4     V10    10.0   .     S
V4     V3    10.0   1_556     S
V4     V48    10.0   .     S
V5     V7    10.0   .     S
V5     V6    10.0   1_554     S
V5     V6    10.0   .     S
V5     V12    10.0   .     S
V5     V11    10.0   .     S
V5     V65    10.0   .     S
V6     V8    10.0   .     S
V6     V5    10.0   1_556     S
V6     V11    10.0   1_556     S
V6     V12    10.0   .     S
V6     V66    10.0   .     S
V7     V1    10.0   1_455     S
V7     V2    10.0   1_455     S
V7     V8    10.0   1_554     S
V7     V8    10.0   .     S
V7     V67    10.0   .     S
V8     V2    10.0   1_455     S
V8     V1    10.0   1_456     S
V8     V7    10.0   1_556     S
V8     V68    10.0   .     S
V9     V11    10.0   1_655     S
V9     V10    10.0   1_554     S
V9     V10    10.0   .     S
V9     V13    10.0   .     S
V10     V3    10.0   1_556     S
V10     V12    10.0   1_655     S
V10     V9    10.0   1_556     S
V10     V14    10.0   .     S
V11     V9    10.0   1_455     S
V11     V12    10.0   .     S
V11     V12    10.0   1_554     S
V11     V6    10.0   1_554     S
V11     V15    10.0   .     S
V12     V10    10.0   1_455     S
V12     V11    10.0   1_556     S
V12     V16    10.0   .     S
V13     V15    10.0   1_655     S
V13     V14    10.0   1_554     S
V13     V14    10.0   .     S
V13     V24    10.0   .     S
V13     V23    10.0   .     S
V14     V16    10.0   1_655     S
V14     V13    10.0   1_556     S
V14     V23    10.0   1_556     S
V14     V24    10.0   .     S
V15     V13    10.0   1_455     S
V15     V16    10.0   .     S
V15     V16    10.0   1_554     S
V15     V18    10.0   1_554     S
V15     V17    10.0   .     S
V16     V14    10.0   1_455     S
V16     V15    10.0   1_556     S
V16     V17    10.0   .     S
V16     V18    10.0   .     S
V17     V19    10.0   .     S
V17     V18    10.0   1_554     S
V17     V18    10.0   .     S
V17     V33    10.0   .     S
V18     V15    10.0   1_556     S
V18     V20    10.0   .     S
V18     V17    10.0   1_556     S
V18     V34    10.0   .     S
V19     V20    10.0   1_554     S
V19     V20    10.0   .     S
V19     V21    10.0   1_455     S
V19     V22    10.0   1_455     S
V19     V35    10.0   .     S
V20     V19    10.0   1_556     S
V20     V22    10.0   1_455     S
V20     V21    10.0   1_456     S
V20     V36    10.0   .     S
V21     V19    10.0   1_655     S
V21     V20    10.0   1_654     S
V21     V23    10.0   .     S
V21     V22    10.0   .     S
V21     V22    10.0   1_554     S
V21     V53    10.0   .     S
V22     V20    10.0   1_655     S
V22     V19    10.0   1_655     S
V22     V24    10.0   .     S
V22     V21    10.0   1_556     S
V22     V54    10.0   .     S
V23     V14    10.0   1_554     S
V23     V24    10.0   .     S
V23     V24    10.0   1_554     S
V23     V55    10.0   .     S
V24     V23    10.0   1_556     S
V24     V56    10.0   .     S
V25     V27    10.0   .     S
V25     V26    10.0   .     S
V25     V26    10.0   1_554     S
V25     V34    10.0   1_554     S
V25     V33    10.0   .     S
V25     V43    10.0   .     S
V26     V28    10.0   .     S
V26     V25    10.0   1_556     S
V26     V33    10.0   .     S
V26     V34    10.0   .     S
V26     V44    10.0   .     S
V27     V28    10.0   1_554     S
V27     V28    10.0   .     S
V27     V30    10.0   .     S
V27     V29    10.0   .     S
V27     V41    10.0   .     S
V28     V27    10.0   1_556     S
V28     V29    10.0   1_556     S
V28     V30    10.0   .     S
V28     V42    10.0   .     S
V29     V28    10.0   1_554     S
V29     V31    10.0   .     S
V29     V30    10.0   .     S
V29     V30    10.0   1_554     S
V29     V69    10.0   .     S
V30     V32    10.0   .     S
V30     V29    10.0   1_556     S
V30     V70    10.0   .     S
V31     V35    10.0   .     S
V31     V36    10.0   1_554     S
V31     V32    10.0   .     S
V31     V32    10.0   1_554     S
V31     V71    10.0   .     S
V32     V36    10.0   .     S
V32     V35    10.0   .     S
V32     V31    10.0   1_556     S
V32     V72    10.0   .     S
V33     V35    10.0   .     S
V33     V34    10.0   1_554     S
V33     V34    10.0   .     S
V34     V25    10.0   1_556     S
V34     V36    10.0   .     S
V34     V33    10.0   1_556     S
V35     V36    10.0   1_554     S
V35     V36    10.0   .     S
V36     V31    10.0   1_556     S
V36     V35    10.0   1_556     S
V37     V39    10.0   .     S
V37     V38    10.0   1_554     S
V37     V38    10.0   .     S
V37     V45    10.0   .     S
V37     V46    10.0   .     S
V37     V51    10.0   .     S
V38     V40    10.0   .     S
V38     V37    10.0   1_556     S
V38     V46    10.0   .     S
V38     V45    10.0   1_556     S
V38     V52    10.0   .     S
V39     V40    10.0   1_554     S
V39     V40    10.0   .     S
V39     V44    10.0   .     S
V39     V43    10.0   .     S
V39     V49    10.0   .     S
V40     V39    10.0   1_556     S
V40     V43    10.0   1_556     S
V40     V44    10.0   .     S
V40     V50    10.0   .     S
V41     V43    10.0   .     S
V41     V42    10.0   1_554     S
V41     V42    10.0   .     S
V41     V48    10.0   .     S
V41     V47    10.0   .     S
V42     V44    10.0   .     S
V42     V41    10.0   1_556     S
V42     V47    10.0   1_556     S
V42     V48    10.0   .     S
V43     V40    10.0   1_554     S
V43     V44    10.0   .     S
V43     V44    10.0   1_554     S
V44     V43    10.0   1_556     S
V45     V38    10.0   1_554     S
V45     V47    10.0   .     S
V45     V46    10.0   .     S
V45     V46    10.0   1_554     S
V46     V48    10.0   .     S
V46     V45    10.0   1_556     S
V47     V42    10.0   1_554     S
V47     V48    10.0   .     S
V47     V48    10.0   1_554     S
V48     V47    10.0   1_556     S
V49     V51    10.0   .     S
V49     V50    10.0   1_554     S
V49     V50    10.0   .     S
V49     V60    10.0   .     S
V49     V59    10.0   .     S
V50     V52    10.0   .     S
V50     V49    10.0   1_556     S
V50     V59    10.0   1_556     S
V50     V60    10.0   .     S
V51     V52    10.0   1_554     S
V51     V52    10.0   .     S
V51     V53    10.0   1_565     S
V51     V54    10.0   1_565     S
V52     V51    10.0   1_556     S
V52     V54    10.0   1_565     S
V52     V53    10.0   1_566     S
V53     V51    10.0   1_545     S
V53     V52    10.0   1_544     S
V53     V55    10.0   .     S
V53     V54    10.0   .     S
V53     V54    10.0   1_554     S
V54     V52    10.0   1_545     S
V54     V51    10.0   1_545     S
V54     V56    10.0   .     S
V54     V53    10.0   1_556     S
V55     V56    10.0   .     S
V55     V56    10.0   1_554     S
V55     V58    10.0   1_554     S
V55     V57    10.0   .     S
V56     V55    10.0   1_556     S
V56     V57    10.0   .     S
V56     V58    10.0   .     S
V57     V59    10.0   1_545     S
V57     V58    10.0   1_554     S
V57     V58    10.0   .     S
V57     V61    10.0   .     S
V58     V55    10.0   1_556     S
V58     V60    10.0   1_545     S
V58     V57    10.0   1_556     S
V58     V62    10.0   .     S
V59     V50    10.0   1_554     S
V59     V57    10.0   1_565     S
V59     V60    10.0   .     S
V59     V60    10.0   1_554     S
V59     V63    10.0   .     S
V60     V58    10.0   1_565     S
V60     V59    10.0   1_556     S
V60     V64    10.0   .     S
V61     V63    10.0   1_545     S
V61     V62    10.0   1_554     S
V61     V62    10.0   .     S
V61     V70    10.0   .     S
V61     V69    10.0   .     S
V62     V64    10.0   1_545     S
V62     V61    10.0   1_556     S
V62     V69    10.0   1_556     S
V62     V70    10.0   .     S
V63     V61    10.0   1_565     S
V63     V64    10.0   .     S
V63     V64    10.0   1_554     S
V63     V66    10.0   1_554     S
V63     V65    10.0   .     S
V64     V62    10.0   1_565     S
V64     V63    10.0   1_556     S
V64     V65    10.0   .     S
V64     V66    10.0   .     S
V65     V67    10.0   .     S
V65     V66    10.0   1_554     S
V65     V66    10.0   .     S
V66     V63    10.0   1_556     S
V66     V68    10.0   .     S
V66     V65    10.0   1_556     S
V67     V68    10.0   1_554     S
V67     V68    10.0   .     S
V67     V71    10.0   1_565     S
V67     V72    10.0   1_565     S
V68     V67    10.0   1_556     S
V68     V72    10.0   1_565     S
V68     V71    10.0   1_566     S
V69     V62    10.0   1_554     S
V69     V71    10.0   .     S
V69     V70    10.0   .     S
V69     V70    10.0   1_554     S
V70     V72    10.0   .     S
V70     V69    10.0   1_556     S
V71     V67    10.0   1_545     S
V71     V68    10.0   1_544     S
V71     V72    10.0   .     S
V71     V72    10.0   1_554     S
V72     V68    10.0   1_545     S
V72     V67    10.0   1_545     S
V72     V71    10.0   1_556     S
