data_wmr
_audit_creation_date              2020-02-04
_audit_creation_method            'Pymatgen'
_symmetry_space_group_name_H-M    'P1'
_symmetry_Int_Tables_number       1
loop_
_symmetry_equiv_pos_as_xyz
  x,y,z
_cell_length_a                    77.2948
_cell_length_b                    77.2948
_cell_length_c                    20.0
_cell_angle_alpha                 90.0
_cell_angle_beta                 90.0
_cell_angle_gamma                 120.0
loop_
_atom_site_label
_atom_site_type_symbol
_atom_site_fract_x
_atom_site_fract_y
_atom_site_fract_z
V1     V     0.9258   0.1863   0.4024
V2     V     0.9258   0.1863   0.9024
V3     V     0.0742   0.2605   0.3476
V4     V     0.0742   0.2605   0.8476
V5     V     0.7395   0.9258   0.0976
V6     V     0.7395   0.9258   0.5976
V7     V     0.8137   0.0742   0.1524
V8     V     0.8137   0.0742   0.6524
V9     V     0.7395   0.8137   0.3476
V10     V     0.7395   0.8137   0.8476
V11     V     0.8137   0.7395   0.4024
V12     V     0.8137   0.7395   0.9024
V13     V     0.0742   0.8137   0.0976
V14     V     0.0742   0.8137   0.5976
V15     V     0.9258   0.7395   0.1524
V16     V     0.9258   0.7395   0.6524
V17     V     0.1863   0.2605   0.0976
V18     V     0.1863   0.2605   0.5976
V19     V     0.2605   0.1863   0.1524
V20     V     0.2605   0.1863   0.6524
V21     V     0.1863   0.9258   0.3476
V22     V     0.1863   0.9258   0.8476
V23     V     0.2605   0.0742   0.4024
V24     V     0.2605   0.0742   0.9024
V25     V     0.853   0.2591   0.0143
V26     V     0.853   0.2591   0.5143
V27     V     0.9272   0.4076   0.069
V28     V     0.9272   0.4076   0.569
V29     V     0.853   0.5939   0.2643
V30     V     0.853   0.5939   0.7643
V31     V     0.9272   0.5196   0.319
V32     V     0.9272   0.5196   0.819
V33     V     0.5924   0.5196   0.069
V34     V     0.5924   0.5196   0.569
V35     V     0.7409   0.5939   0.0143
V36     V     0.7409   0.5939   0.5143
V37     V     0.5924   0.0728   0.319
V38     V     0.5924   0.0728   0.819
V39     V     0.7409   0.147   0.2643
V40     V     0.7409   0.147   0.7643
V41     V     0.4804   0.0728   0.069
V42     V     0.4804   0.0728   0.569
V43     V     0.4061   0.147   0.0143
V44     V     0.4061   0.147   0.5143
V45     V     0.4061   0.2591   0.2643
V46     V     0.4061   0.2591   0.7643
V47     V     0.4804   0.4076   0.319
V48     V     0.4804   0.4076   0.819
V49     V     0.0728   0.5924   0.431
V50     V     0.0728   0.5924   0.931
V51     V     0.147   0.7409   0.4857
V52     V     0.147   0.7409   0.9857
V53     V     0.0728   0.4804   0.181
V54     V     0.0728   0.4804   0.681
V55     V     0.147   0.4061   0.2357
V56     V     0.147   0.4061   0.7357
V57     V     0.5196   0.5924   0.181
V58     V     0.5196   0.5924   0.681
V59     V     0.5939   0.7409   0.2357
V60     V     0.5939   0.7409   0.7357
V61     V     0.2591   0.4061   0.4857
V62     V     0.2591   0.4061   0.9857
V63     V     0.4076   0.4804   0.431
V64     V     0.4076   0.4804   0.931
V65     V     0.5939   0.853   0.4857
V66     V     0.5939   0.853   0.9857
V67     V     0.5196   0.9272   0.431
V68     V     0.5196   0.9272   0.931
V69     V     0.2591   0.853   0.2357
V70     V     0.2591   0.853   0.7357
V71     V     0.4076   0.9272   0.181
V72     V     0.4076   0.9272   0.681
loop_
_geom_bond_atom_site_label_1
_geom_bond_atom_site_label_2
_geom_bond_distance
_geom_bond_site_symmetry_2
_ccdc_geom_bond_type
V1     V3    9.999   1_655     S
V1     V8    10.001   .     S
V1     V2    10.0   1_554     S
V1     V2    10.0   .     S
V1     V7    10.001   .     S
V1     V26    10.001   .     S
V2     V4    9.999   1_655     S
V2     V7    10.001   1_556     S
V2     V1    10.0   1_556     S
V2     V8    10.001   .     S
V2     V25    10.001   1_556     S
V3     V1    9.999   1_455     S
V3     V17    10.001   .     S
V3     V4    10.0   1_554     S
V3     V4    10.0   .     S
V3     V18    10.001   .     S
V3     V55    10.001   .     S
V4     V2    9.999   1_455     S
V4     V18    10.001   .     S
V4     V3    10.0   1_556     S
V4     V17    10.001   1_556     S
V4     V56    10.001   .     S
V5     V66    10.001   1_554     S
V5     V7    9.999   1_565     S
V5     V10    10.001   1_554     S
V5     V6    10.0   .     S
V5     V6    10.0   1_554     S
V5     V9    10.001   .     S
V6     V65    10.001   .     S
V6     V8    9.999   1_565     S
V6     V9    10.001   .     S
V6     V5    10.0   1_556     S
V6     V10    10.001   .     S
V7     V39    10.001   .     S
V7     V2    10.001   1_554     S
V7     V5    9.999   1_545     S
V7     V8    10.0   .     S
V7     V8    10.0   1_554     S
V8     V40    10.001   .     S
V8     V6    9.999   1_545     S
V8     V7    10.0   1_556     S
V9     V59    10.001   .     S
V9     V11    9.999   .     S
V9     V10    10.0   1_554     S
V9     V10    10.0   .     S
V10     V60    10.001   .     S
V10     V5    10.001   1_556     S
V10     V12    9.999   .     S
V10     V9    10.0   1_556     S
V11     V36    10.001   .     S
V11     V16    10.001   .     S
V11     V12    10.0   1_554     S
V11     V12    10.0   .     S
V11     V15    10.001   .     S
V12     V35    10.001   1_556     S
V12     V15    10.001   1_556     S
V12     V11    10.0   1_556     S
V12     V16    10.001   .     S
V13     V52    10.001   1_554     S
V13     V15    9.999   1_455     S
V13     V22    10.001   1_554     S
V13     V14    10.0   .     S
V13     V14    10.0   1_554     S
V13     V21    10.001   .     S
V14     V51    10.001   .     S
V14     V16    9.999   1_455     S
V14     V21    10.001   .     S
V14     V13    10.0   1_556     S
V14     V22    10.001   .     S
V15     V29    10.001   .     S
V15     V12    10.001   1_554     S
V15     V13    9.999   1_655     S
V15     V16    10.0   .     S
V15     V16    10.0   1_554     S
V16     V30    10.001   .     S
V16     V14    9.999   1_655     S
V16     V15    10.0   1_556     S
V17     V19    9.999   .     S
V17     V4    10.001   1_554     S
V17     V18    10.0   .     S
V17     V18    10.0   1_554     S
V17     V62    10.001   1_554     S
V18     V20    9.999   .     S
V18     V17    10.0   1_556     S
V18     V61    10.001   .     S
V19     V45    10.001   .     S
V19     V23    10.001   .     S
V19     V20    10.0   .     S
V19     V20    10.0   1_554     S
V19     V24    10.001   1_554     S
V20     V46    10.001   .     S
V20     V24    10.001   .     S
V20     V19    10.0   1_556     S
V20     V23    10.001   .     S
V21     V23    9.999   1_565     S
V21     V22    10.0   1_554     S
V21     V22    10.0   .     S
V21     V69    10.001   .     S
V22     V13    10.001   1_556     S
V22     V24    9.999   1_565     S
V22     V21    10.0   1_556     S
V22     V70    10.001   .     S
V23     V21    9.999   1_545     S
V23     V24    10.0   1_554     S
V23     V24    10.0   .     S
V23     V44    10.001   .     S
V24     V22    9.999   1_545     S
V24     V19    10.001   1_556     S
V24     V23    10.0   1_556     S
V24     V43    10.001   1_556     S
V25     V2    10.001   1_554     S
V25     V27    9.999   .     S
V25     V40    10.001   1_554     S
V25     V26    10.0   .     S
V25     V26    10.0   1_554     S
V25     V39    10.001   .     S
V26     V28    9.999   .     S
V26     V39    10.001   .     S
V26     V25    10.0   1_556     S
V26     V40    10.001   .     S
V27     V53    10.001   1_655     S
V27     V31    10.001   .     S
V27     V28    10.0   .     S
V27     V28    10.0   1_554     S
V27     V32    10.001   1_554     S
V28     V54    10.001   1_655     S
V28     V32    10.001   .     S
V28     V27    10.0   1_556     S
V28     V31    10.001   .     S
V29     V31    9.999   .     S
V29     V35    10.001   .     S
V29     V30    10.0   1_554     S
V29     V30    10.0   .     S
V29     V36    10.001   .     S
V30     V32    9.999   .     S
V30     V36    10.001   .     S
V30     V29    10.0   1_556     S
V30     V35    10.001   1_556     S
V31     V49    10.001   1_655     S
V31     V32    10.0   1_554     S
V31     V32    10.0   .     S
V32     V50    10.001   1_655     S
V32     V27    10.001   1_556     S
V32     V31    10.0   1_556     S
V33     V57    10.001   .     S
V33     V35    9.999   .     S
V33     V47    10.001   .     S
V33     V34    10.0   .     S
V33     V34    10.0   1_554     S
V33     V48    10.001   1_554     S
V34     V58    10.001   .     S
V34     V36    9.999   .     S
V34     V48    10.001   .     S
V34     V33    10.0   1_556     S
V34     V47    10.001   .     S
V35     V12    10.001   1_554     S
V35     V30    10.001   1_554     S
V35     V36    10.0   .     S
V35     V36    10.0   1_554     S
V36     V35    10.0   1_556     S
V37     V39    9.999   .     S
V37     V42    10.001   .     S
V37     V38    10.0   1_554     S
V37     V38    10.0   .     S
V37     V41    10.001   .     S
V37     V67    10.001   1_545     S
V38     V40    9.999   .     S
V38     V41    10.001   1_556     S
V38     V37    10.0   1_556     S
V38     V42    10.001   .     S
V38     V68    10.001   1_545     S
V39     V40    10.0   1_554     S
V39     V40    10.0   .     S
V40     V25    10.001   1_556     S
V40     V39    10.0   1_556     S
V41     V38    10.001   1_554     S
V41     V43    9.999   .     S
V41     V42    10.0   .     S
V41     V42    10.0   1_554     S
V41     V71    10.001   1_545     S
V42     V44    9.999   .     S
V42     V41    10.0   1_556     S
V42     V72    10.001   1_545     S
V43     V24    10.001   1_554     S
V43     V46    10.001   1_554     S
V43     V44    10.0   .     S
V43     V44    10.0   1_554     S
V43     V45    10.001   .     S
V44     V45    10.001   .     S
V44     V43    10.0   1_556     S
V44     V46    10.001   .     S
V45     V47    9.999   .     S
V45     V46    10.0   1_554     S
V45     V46    10.0   .     S
V46     V43    10.001   1_556     S
V46     V48    9.999   .     S
V46     V45    10.0   1_556     S
V47     V48    10.0   1_554     S
V47     V48    10.0   .     S
V47     V63    10.001   .     S
V48     V33    10.001   1_556     S
V48     V47    10.0   1_556     S
V48     V64    10.001   .     S
V49     V31    10.001   1_455     S
V49     V51    9.999   .     S
V49     V53    10.001   .     S
V49     V50    10.0   1_554     S
V49     V50    10.0   .     S
V49     V54    10.001   .     S
V50     V32    10.001   1_455     S
V50     V52    9.999   .     S
V50     V54    10.001   .     S
V50     V49    10.0   1_556     S
V50     V53    10.001   1_556     S
V51     V70    10.001   .     S
V51     V52    10.0   1_554     S
V51     V52    10.0   .     S
V51     V69    10.001   .     S
V52     V13    10.001   1_556     S
V52     V69    10.001   1_556     S
V52     V51    10.0   1_556     S
V52     V70    10.001   .     S
V53     V27    10.001   1_455     S
V53     V55    9.999   .     S
V53     V50    10.001   1_554     S
V53     V54    10.0   .     S
V53     V54    10.0   1_554     S
V54     V28    10.001   1_455     S
V54     V56    9.999   .     S
V54     V53    10.0   1_556     S
V55     V61    10.001   .     S
V55     V56    10.0   .     S
V55     V56    10.0   1_554     S
V55     V62    10.001   1_554     S
V56     V62    10.001   .     S
V56     V55    10.0   1_556     S
V56     V61    10.001   .     S
V57     V59    9.999   .     S
V57     V64    10.001   1_554     S
V57     V58    10.0   .     S
V57     V58    10.0   1_554     S
V57     V63    10.001   .     S
V58     V60    9.999   .     S
V58     V63    10.001   .     S
V58     V57    10.0   1_556     S
V58     V64    10.001   .     S
V59     V65    10.001   .     S
V59     V60    10.0   .     S
V59     V60    10.0   1_554     S
V59     V66    10.001   1_554     S
V60     V66    10.001   .     S
V60     V59    10.0   1_556     S
V60     V65    10.001   .     S
V61     V63    9.999   .     S
V61     V62    10.0   1_554     S
V61     V62    10.0   .     S
V62     V17    10.001   1_556     S
V62     V64    9.999   .     S
V62     V55    10.001   1_556     S
V62     V61    10.0   1_556     S
V63     V64    10.0   1_554     S
V63     V64    10.0   .     S
V64     V57    10.001   1_556     S
V64     V63    10.0   1_556     S
V65     V67    9.999   .     S
V65     V66    10.0   1_554     S
V65     V66    10.0   .     S
V66     V5    10.001   1_556     S
V66     V68    9.999   .     S
V66     V59    10.001   1_556     S
V66     V65    10.0   1_556     S
V67     V37    10.001   1_565     S
V67     V68    10.0   1_554     S
V67     V68    10.0   .     S
V67     V71    10.001   .     S
V67     V72    10.001   .     S
V68     V38    10.001   1_565     S
V68     V67    10.0   1_556     S
V68     V72    10.001   .     S
V68     V71    10.001   1_556     S
V69     V52    10.001   1_554     S
V69     V71    9.999   .     S
V69     V70    10.0   .     S
V69     V70    10.0   1_554     S
V70     V72    9.999   .     S
V70     V69    10.0   1_556     S
V71     V41    10.001   1_565     S
V71     V68    10.001   1_554     S
V71     V72    10.0   .     S
V71     V72    10.0   1_554     S
V72     V42    10.001   1_565     S
V72     V71    10.0   1_556     S
