data_wmv
_audit_creation_date              2020-02-04
_audit_creation_method            'Pymatgen'
_symmetry_space_group_name_H-M    'P1'
_symmetry_Int_Tables_number       1
loop_
_symmetry_equiv_pos_as_xyz
  x,y,z
_cell_length_a                    50.2418
_cell_length_b                    50.2418
_cell_length_c                    19.3339
_cell_angle_alpha                 90.0
_cell_angle_beta                 90.0
_cell_angle_gamma                 120.0
loop_
_atom_site_label
_atom_site_type_symbol
_atom_site_fract_x
_atom_site_fract_y
_atom_site_fract_z
V1     V     0.1347   0.2185   0.573
V2     V     0.2496   0.4482   0.5937
V3     V     0.5319   0.4171   0.2603
V4     V     0.4171   0.5319   0.2397
V5     V     0.2185   0.1347   0.927
V6     V     0.4482   0.2496   0.9063
V7     V     0.5319   0.1148   0.7603
V8     V     0.4171   0.8852   0.7397
V9     V     0.2185   0.0838   0.427
V10     V     0.4482   0.1986   0.4063
V11     V     0.1347   0.9162   0.073
V12     V     0.2496   0.8014   0.0937
V13     V     0.1986   0.7504   0.5937
V14     V     0.0838   0.8653   0.573
V15     V     0.8852   0.4681   0.2603
V16     V     0.1148   0.5829   0.2397
V17     V     0.8014   0.5518   0.9063
V18     V     0.9162   0.7815   0.927
V19     V     0.8653   0.7815   0.427
V20     V     0.7504   0.5518   0.4063
V21     V     0.5829   0.4681   0.7603
V22     V     0.4681   0.5829   0.7397
V23     V     0.5518   0.7504   0.0937
V24     V     0.7815   0.8653   0.073
V25     V     0.9162   0.1347   0.427
V26     V     0.8014   0.2496   0.4063
V27     V     0.0838   0.2185   0.073
V28     V     0.1986   0.4482   0.0937
V29     V     0.8852   0.4171   0.7603
V30     V     0.1148   0.5319   0.7397
V31     V     0.7815   0.9162   0.573
V32     V     0.5518   0.8014   0.5937
V33     V     0.5829   0.1148   0.2603
V34     V     0.4681   0.8852   0.2397
V35     V     0.8653   0.0838   0.927
V36     V     0.7504   0.1986   0.9063
loop_
_geom_bond_atom_site_label_1
_geom_bond_atom_site_label_2
_geom_bond_distance
_geom_bond_site_symmetry_2
_ccdc_geom_bond_type
V1     V27    10.0   1_556     S
V1     V5    10.0   .     S
V1     V9    10.0   .     S
V1     V2    10.0   .     S
V1     V27    10.0   .     S
V1     V25    10.0   1_455     S
V2     V22    10.0   .     S
V2     V4    10.0   .     S
V2     V28    10.0   .     S
V2     V28    10.0   1_556     S
V2     V30    10.0   .     S
V3     V10    10.0   .     S
V3     V4    10.0   .     S
V3     V6    10.0   1_554     S
V3     V21    10.0   1_554     S
V3     V21    10.0   .     S
V3     V20    10.0   .     S
V4     V22    10.0   .     S
V4     V28    10.0   .     S
V4     V22    10.0   1_554     S
V4     V23    10.0   .     S
V5     V9    10.0   .     S
V5     V27    10.0   1_556     S
V5     V6    10.0   .     S
V5     V9    10.0   1_556     S
V5     V11    10.0   1_546     S
V6     V10    10.0   1_556     S
V6     V3    10.0   1_556     S
V6     V21    10.0   .     S
V6     V10    10.0   .     S
V6     V7    10.0   .     S
V7     V10    10.0   .     S
V7     V33    10.0   .     S
V7     V8    10.0   1_545     S
V7     V33    10.0   1_556     S
V7     V36    10.0   .     S
V8     V7    10.0   1_565     S
V8     V13    10.0   .     S
V8     V12    10.0   1_556     S
V8     V34    10.0   1_556     S
V8     V32    10.0   .     S
V8     V34    10.0   .     S
V9     V14    10.0   1_545     S
V9     V10    10.0   .     S
V9     V5    10.0   1_554     S
V9     V11    10.0   1_545     S
V10     V6    10.0   1_554     S
V10     V33    10.0   .     S
V11     V9    10.0   1_565     S
V11     V14    10.0   .     S
V11     V5    10.0   1_564     S
V11     V12    10.0   .     S
V11     V14    10.0   1_554     S
V11     V18    10.0   1_454     S
V12     V13    10.0   1_554     S
V12     V8    10.0   1_554     S
V12     V34    10.0   .     S
V12     V13    10.0   .     S
V12     V16    10.0   .     S
V13     V12    10.0   1_556     S
V13     V16    10.0   .     S
V13     V30    10.0   .     S
V13     V14    10.0   .     S
V14     V9    10.0   1_565     S
V14     V19    10.0   1_455     S
V14     V11    10.0   1_556     S
V14     V18    10.0   1_455     S
V15     V20    10.0   .     S
V15     V16    10.0   1_655     S
V15     V29    10.0   1_554     S
V15     V17    10.0   1_554     S
V15     V26    10.0   .     S
V15     V29    10.0   .     S
V16     V30    10.0   .     S
V16     V15    10.0   1_455     S
V16     V28    10.0   .     S
V16     V30    10.0   1_554     S
V17     V15    10.0   1_556     S
V17     V20    10.0   1_556     S
V17     V29    10.0   .     S
V17     V18    10.0   .     S
V17     V20    10.0   .     S
V17     V21    10.0   .     S
V18     V14    10.0   1_655     S
V18     V19    10.0   .     S
V18     V11    10.0   1_656     S
V18     V19    10.0   1_556     S
V18     V24    10.0   1_556     S
V19     V14    10.0   1_655     S
V19     V31    10.0   .     S
V19     V20    10.0   .     S
V19     V24    10.0   .     S
V19     V18    10.0   1_554     S
V20     V17    10.0   1_554     S
V20     V21    10.0   .     S
V21     V3    10.0   1_556     S
V21     V22    10.0   .     S
V22     V32    10.0   .     S
V22     V4    10.0   1_556     S
V22     V23    10.0   1_556     S
V23     V22    10.0   1_554     S
V23     V32    10.0   1_554     S
V23     V24    10.0   .     S
V23     V32    10.0   .     S
V23     V34    10.0   .     S
V24     V31    10.0   .     S
V24     V18    10.0   1_554     S
V24     V31    10.0   1_554     S
V24     V35    10.0   1_564     S
V25     V27    10.0   1_655     S
V25     V35    10.0   1_554     S
V25     V1    10.0   1_655     S
V25     V26    10.0   .     S
V25     V31    10.0   1_545     S
V25     V35    10.0   .     S
V26     V36    10.0   .     S
V26     V29    10.0   .     S
V26     V33    10.0   .     S
V26     V36    10.0   1_554     S
V27     V1    10.0   1_554     S
V27     V5    10.0   1_554     S
V27     V25    10.0   1_455     S
V27     V35    10.0   1_454     S
V27     V28    10.0   .     S
V28     V2    10.0   1_554     S
V28     V30    10.0   1_554     S
V29     V15    10.0   1_556     S
V29     V36    10.0   .     S
V29     V30    10.0   1_655     S
V30     V28    10.0   1_556     S
V30     V16    10.0   1_556     S
V30     V29    10.0   1_455     S
V31     V25    10.0   1_565     S
V31     V32    10.0   .     S
V31     V35    10.0   1_565     S
V31     V24    10.0   1_556     S
V32     V23    10.0   1_556     S
V32     V34    10.0   .     S
V33     V34    10.0   1_545     S
V33     V7    10.0   1_554     S
V33     V36    10.0   1_554     S
V34     V8    10.0   1_554     S
V34     V33    10.0   1_565     S
V35     V25    10.0   1_556     S
V35     V27    10.0   1_656     S
V35     V31    10.0   1_545     S
V35     V24    10.0   1_546     S
V35     V36    10.0   .     S
V36     V33    10.0   1_556     S
V36     V26    10.0   1_556     S
