data_wmx
_audit_creation_date              2020-02-04
_audit_creation_method            'Pymatgen'
_symmetry_space_group_name_H-M    'P1'
_symmetry_Int_Tables_number       1
loop_
_symmetry_equiv_pos_as_xyz
  x,y,z
_cell_length_a                    36.2653
_cell_length_b                    36.2653
_cell_length_c                    33.8522
_cell_angle_alpha                 90.0
_cell_angle_beta                 90.0
_cell_angle_gamma                 120.0
loop_
_atom_site_label
_atom_site_type_symbol
_atom_site_fract_x
_atom_site_fract_y
_atom_site_fract_z
V1     V     0.5164   0.7434   0.2873
V2     V     0.817   0.9232   0.3794
V3     V     0.2566   0.7729   0.2873
V4     V     0.0768   0.8937   0.3794
V5     V     0.2271   0.4836   0.2873
V6     V     0.1063   0.183   0.3794
V7     V     0.5899   0.1503   0.4539
V8     V     0.4101   0.8497   0.5461
V9     V     0.4396   0.5899   0.5461
V10     V     0.5604   0.4101   0.4539
V11     V     0.1503   0.5604   0.5461
V12     V     0.8497   0.4396   0.4539
V13     V     0.4836   0.2566   0.7127
V14     V     0.183   0.0768   0.6206
V15     V     0.7434   0.2271   0.7127
V16     V     0.9232   0.1063   0.6206
V17     V     0.7729   0.5164   0.7127
V18     V     0.8937   0.817   0.6206
V19     V     0.5164   0.7729   0.7873
V20     V     0.817   0.8937   0.8794
V21     V     0.2566   0.4836   0.7873
V22     V     0.0768   0.183   0.8794
V23     V     0.2271   0.7434   0.7873
V24     V     0.1063   0.9232   0.8794
V25     V     0.5899   0.4396   0.9539
V26     V     0.4101   0.5604   0.0461
V27     V     0.5604   0.1503   0.9539
V28     V     0.4396   0.8497   0.0461
V29     V     0.1503   0.5899   0.0461
V30     V     0.8497   0.4101   0.9539
V31     V     0.9232   0.817   0.1206
V32     V     0.7434   0.5164   0.2127
V33     V     0.8937   0.0768   0.1206
V34     V     0.7729   0.2566   0.2127
V35     V     0.4836   0.2271   0.2127
V36     V     0.183   0.1063   0.1206
loop_
_geom_bond_atom_site_label_1
_geom_bond_atom_site_label_2
_geom_bond_distance
_geom_bond_site_symmetry_2
_ccdc_geom_bond_type
V1     V26    10.0   .     S
V1     V28    10.0   .     S
V1     V5    10.0   .     S
V1     V3    10.0   .     S
V1     V2    10.0   .     S
V1     V9    10.0   .     S
V2     V18    10.0   .     S
V2     V16    10.0   1_565     S
V2     V4    10.0   1_655     S
V2     V6    10.0   1_665     S
V2     V33    10.0   1_565     S
V3     V28    10.0   .     S
V3     V29    10.0   .     S
V3     V4    10.0   .     S
V3     V5    10.0   .     S
V3     V8    10.0   .     S
V4     V18    10.0   1_455     S
V4     V14    10.0   1_565     S
V4     V2    10.0   1_455     S
V4     V6    10.0   1_565     S
V4     V31    10.0   1_455     S
V5     V29    10.0   .     S
V5     V26    10.0   .     S
V5     V6    10.0   .     S
V5     V11    10.0   .     S
V6     V14    10.0   .     S
V6     V16    10.0   1_455     S
V6     V4    10.0   1_545     S
V6     V2    10.0   1_445     S
V6     V36    10.0   .     S
V7     V35    10.0   .     S
V7     V34    10.0   .     S
V7     V8    10.0   1_545     S
V7     V10    10.0   .     S
V7     V12    10.0   .     S
V7     V15    10.0   .     S
V8     V23    10.0   .     S
V8     V19    10.0   .     S
V8     V11    10.0   .     S
V8     V7    10.0   1_565     S
V8     V9    10.0   .     S
V9     V21    10.0   .     S
V9     V19    10.0   .     S
V9     V11    10.0   .     S
V9     V10    10.0   .     S
V10     V35    10.0   .     S
V10     V32    10.0   .     S
V10     V12    10.0   .     S
V10     V13    10.0   .     S
V11     V23    10.0   .     S
V11     V21    10.0   .     S
V11     V12    10.0   1_455     S
V12     V34    10.0   .     S
V12     V32    10.0   .     S
V12     V11    10.0   1_655     S
V12     V17    10.0   .     S
V13     V27    10.0   .     S
V13     V25    10.0   .     S
V13     V14    10.0   .     S
V13     V15    10.0   .     S
V13     V17    10.0   .     S
V14     V4    10.0   1_545     S
V14     V16    10.0   1_455     S
V14     V18    10.0   1_445     S
V14     V24    10.0   1_545     S
V15     V30    10.0   .     S
V15     V27    10.0   .     S
V15     V16    10.0   .     S
V15     V17    10.0   .     S
V16     V6    10.0   1_655     S
V16     V2    10.0   1_545     S
V16     V18    10.0   1_545     S
V16     V14    10.0   1_655     S
V16     V22    10.0   1_655     S
V17     V25    10.0   .     S
V17     V30    10.0   .     S
V17     V18    10.0   .     S
V18     V4    10.0   1_655     S
V18     V16    10.0   1_565     S
V18     V14    10.0   1_665     S
V18     V20    10.0   .     S
V19     V23    10.0   .     S
V19     V20    10.0   .     S
V19     V21    10.0   .     S
V19     V28    10.0   1_556     S
V20     V31    10.0   1_556     S
V20     V33    10.0   1_566     S
V20     V24    10.0   1_655     S
V20     V22    10.0   1_665     S
V21     V23    10.0   .     S
V21     V22    10.0   .     S
V21     V26    10.0   1_556     S
V22     V33    10.0   1_456     S
V22     V36    10.0   1_556     S
V22     V24    10.0   1_545     S
V22     V20    10.0   1_445     S
V22     V16    10.0   1_455     S
V23     V24    10.0   .     S
V23     V29    10.0   1_556     S
V24     V31    10.0   1_456     S
V24     V36    10.0   1_566     S
V24     V22    10.0   1_565     S
V24     V20    10.0   1_455     S
V24     V14    10.0   1_565     S
V25     V26    10.0   1_556     S
V25     V30    10.0   .     S
V25     V27    10.0   .     S
V25     V32    10.0   1_556     S
V26     V25    10.0   1_554     S
V26     V28    10.0   .     S
V26     V29    10.0   .     S
V26     V21    10.0   1_554     S
V27     V28    10.0   1_546     S
V27     V30    10.0   .     S
V27     V35    10.0   1_556     S
V28     V27    10.0   1_564     S
V28     V29    10.0   .     S
V28     V19    10.0   1_554     S
V29     V30    10.0   1_454     S
V29     V23    10.0   1_554     S
V30     V29    10.0   1_656     S
V30     V34    10.0   1_556     S
V31     V20    10.0   1_554     S
V31     V24    10.0   1_654     S
V31     V32    10.0   .     S
V31     V33    10.0   1_565     S
V31     V36    10.0   1_665     S
V31     V4    10.0   1_655     S
V32     V25    10.0   1_554     S
V32     V35    10.0   .     S
V32     V34    10.0   .     S
V33     V20    10.0   1_544     S
V33     V22    10.0   1_654     S
V33     V34    10.0   .     S
V33     V31    10.0   1_545     S
V33     V36    10.0   1_655     S
V33     V2    10.0   1_545     S
V34     V35    10.0   .     S
V34     V30    10.0   1_554     S
V35     V36    10.0   .     S
V35     V27    10.0   1_554     S
V36     V24    10.0   1_544     S
V36     V22    10.0   1_554     S
V36     V33    10.0   1_455     S
V36     V31    10.0   1_445     S
