data_wna
_audit_creation_date              2020-02-04
_audit_creation_method            'Pymatgen'
_symmetry_space_group_name_H-M    'P1'
_symmetry_Int_Tables_number       1
loop_
_symmetry_equiv_pos_as_xyz
  x,y,z
_cell_length_a                    27.0459
_cell_length_b                    27.0459
_cell_length_c                    54.8591
_cell_angle_alpha                 90.0
_cell_angle_beta                 90.0
_cell_angle_gamma                 120.0
loop_
_atom_site_label
_atom_site_type_symbol
_atom_site_fract_x
_atom_site_fract_y
_atom_site_fract_z
V1     V     0.8274   0.2519   0.4991
V2     V     0.9185   0.1608   0.3342
V3     V     0.8392   0.7578   0.3342
V4     V     0.7481   0.5755   0.4991
V5     V     0.2422   0.0815   0.3342
V6     V     0.4245   0.1726   0.4991
V7     V     0.1726   0.4245   0.0009
V8     V     0.0815   0.2422   0.1658
V9     V     0.5755   0.7481   0.0009
V10     V     0.7578   0.8392   0.1658
V11     V     0.2519   0.8274   0.0009
V12     V     0.1608   0.9185   0.1658
V13     V     0.4941   0.9089   0.3324
V14     V     0.5852   0.0911   0.1676
V15     V     0.0911   0.5852   0.3324
V16     V     0.9089   0.4941   0.1676
V17     V     0.4148   0.5059   0.3324
V18     V     0.5059   0.4148   0.1676
V19     V     0.2519   0.4245   0.5009
V20     V     0.1608   0.2422   0.6658
V21     V     0.1726   0.7481   0.5009
V22     V     0.0815   0.8392   0.6658
V23     V     0.5755   0.8274   0.5009
V24     V     0.7578   0.9185   0.6658
V25     V     0.8274   0.5755   0.9991
V26     V     0.9185   0.7578   0.8342
V27     V     0.7481   0.1726   0.9991
V28     V     0.8392   0.0815   0.8342
V29     V     0.4245   0.2519   0.9991
V30     V     0.2422   0.1608   0.8342
V31     V     0.5852   0.4941   0.6676
V32     V     0.4941   0.5852   0.8324
V33     V     0.4148   0.9089   0.8324
V34     V     0.5059   0.0911   0.6676
V35     V     0.0911   0.5059   0.8324
V36     V     0.9089   0.4148   0.6676
loop_
_geom_bond_atom_site_label_1
_geom_bond_atom_site_label_2
_geom_bond_distance
_geom_bond_site_symmetry_2
_ccdc_geom_bond_type
V1     V2    10.0   .     S
V1     V19    10.0   1_655     S
V1     V4    10.0   .     S
V1     V6    10.0   .     S
V1     V23    10.0   1_545     S
V1     V36    10.0   .     S
V2     V5    10.0   1_655     S
V2     V3    10.0   1_545     S
V2     V15    10.0   1_655     S
V2     V13    10.0   1_545     S
V2     V8    10.0   1_655     S
V3     V2    10.0   1_565     S
V3     V5    10.0   1_665     S
V3     V4    10.0   .     S
V3     V17    10.0   .     S
V3     V15    10.0   1_655     S
V3     V10    10.0   .     S
V4     V23    10.0   .     S
V4     V6    10.0   .     S
V4     V21    10.0   1_655     S
V4     V31    10.0   .     S
V5     V2    10.0   1_455     S
V5     V3    10.0   1_445     S
V5     V6    10.0   .     S
V5     V13    10.0   1_545     S
V5     V17    10.0   .     S
V5     V12    10.0   1_545     S
V6     V21    10.0   1_545     S
V6     V19    10.0   .     S
V6     V34    10.0   .     S
V7     V8    10.0   .     S
V7     V27    10.0   1_454     S
V7     V9    10.0   .     S
V7     V11    10.0   .     S
V7     V29    10.0   1_554     S
V7     V35    10.0   1_554     S
V8     V16    10.0   1_455     S
V8     V10    10.0   1_445     S
V8     V12    10.0   1_545     S
V8     V18    10.0   .     S
V8     V2    10.0   1_455     S
V9     V10    10.0   .     S
V9     V25    10.0   1_554     S
V9     V11    10.0   .     S
V9     V27    10.0   1_564     S
V9     V32    10.0   1_554     S
V10     V18    10.0   .     S
V10     V8    10.0   1_665     S
V10     V12    10.0   1_655     S
V10     V14    10.0   1_565     S
V11     V12    10.0   .     S
V11     V29    10.0   1_564     S
V11     V25    10.0   1_454     S
V11     V33    10.0   1_554     S
V12     V10    10.0   1_455     S
V12     V8    10.0   1_565     S
V12     V14    10.0   1_565     S
V12     V16    10.0   1_455     S
V12     V5    10.0   1_565     S
V13     V5    10.0   1_565     S
V13     V14    10.0   1_565     S
V13     V2    10.0   1_565     S
V13     V17    10.0   .     S
V13     V15    10.0   .     S
V13     V23    10.0   .     S
V14     V12    10.0   1_545     S
V14     V13    10.0   1_545     S
V14     V10    10.0   1_545     S
V14     V18    10.0   .     S
V14     V16    10.0   .     S
V14     V27    10.0   1_554     S
V15     V2    10.0   1_455     S
V15     V17    10.0   .     S
V15     V16    10.0   1_455     S
V15     V3    10.0   1_455     S
V15     V21    10.0   .     S
V16     V8    10.0   1_655     S
V16     V15    10.0   1_655     S
V16     V12    10.0   1_655     S
V16     V18    10.0   .     S
V16     V25    10.0   1_554     S
V17     V18    10.0   .     S
V17     V19    10.0   .     S
V18     V29    10.0   1_554     S
V19     V1    10.0   1_455     S
V19     V20    10.0   .     S
V19     V23    10.0   .     S
V19     V21    10.0   .     S
V20     V31    10.0   .     S
V20     V24    10.0   1_445     S
V20     V22    10.0   1_545     S
V20     V36    10.0   1_455     S
V20     V30    10.0   .     S
V21     V6    10.0   1_565     S
V21     V22    10.0   .     S
V21     V4    10.0   1_455     S
V21     V23    10.0   .     S
V22     V24    10.0   1_455     S
V22     V20    10.0   1_565     S
V22     V36    10.0   1_455     S
V22     V34    10.0   1_565     S
V22     V26    10.0   1_455     S
V23     V24    10.0   .     S
V23     V1    10.0   1_565     S
V24     V22    10.0   1_655     S
V24     V20    10.0   1_665     S
V24     V34    10.0   1_565     S
V24     V31    10.0   .     S
V24     V28    10.0   1_565     S
V25     V9    10.0   1_556     S
V25     V26    10.0   .     S
V25     V11    10.0   1_656     S
V25     V27    10.0   .     S
V25     V29    10.0   .     S
V25     V16    10.0   1_556     S
V26     V35    10.0   1_655     S
V26     V30    10.0   1_665     S
V26     V28    10.0   1_565     S
V26     V32    10.0   .     S
V26     V22    10.0   1_655     S
V27     V7    10.0   1_656     S
V27     V29    10.0   .     S
V27     V28    10.0   .     S
V27     V9    10.0   1_546     S
V27     V14    10.0   1_556     S
V28     V33    10.0   1_545     S
V28     V30    10.0   1_655     S
V28     V26    10.0   1_545     S
V28     V35    10.0   1_655     S
V28     V24    10.0   1_545     S
V29     V11    10.0   1_546     S
V29     V30    10.0   .     S
V29     V7    10.0   1_556     S
V29     V18    10.0   1_556     S
V30     V26    10.0   1_445     S
V30     V28    10.0   1_455     S
V30     V32    10.0   .     S
V30     V33    10.0   1_545     S
V31     V32    10.0   .     S
V31     V36    10.0   .     S
V31     V34    10.0   .     S
V32     V33    10.0   .     S
V32     V35    10.0   .     S
V32     V9    10.0   1_556     S
V33     V28    10.0   1_565     S
V33     V35    10.0   .     S
V33     V34    10.0   1_565     S
V33     V30    10.0   1_565     S
V33     V11    10.0   1_556     S
V34     V24    10.0   1_545     S
V34     V33    10.0   1_545     S
V34     V22    10.0   1_545     S
V34     V36    10.0   .     S
V35     V26    10.0   1_455     S
V35     V36    10.0   1_455     S
V35     V28    10.0   1_455     S
V35     V7    10.0   1_556     S
V36     V22    10.0   1_655     S
V36     V35    10.0   1_655     S
V36     V20    10.0   1_655     S
