data_wnh
_audit_creation_date              2020-02-04
_audit_creation_method            'Pymatgen'
_symmetry_space_group_name_H-M    'P1'
_symmetry_Int_Tables_number       1
loop_
_symmetry_equiv_pos_as_xyz
  x,y,z
_cell_length_a                    48.0694
_cell_length_b                    48.0694
_cell_length_c                    18.9108
_cell_angle_alpha                 90.0
_cell_angle_beta                 90.0
_cell_angle_gamma                 120.0
loop_
_atom_site_label
_atom_site_type_symbol
_atom_site_fract_x
_atom_site_fract_y
_atom_site_fract_z
V1     V     0.2515   0.4353   0.2231
V2     V     0.1019   0.5848   0.6102
V3     V     0.1838   0.4353   0.7231
V4     V     0.4829   0.5848   0.1102
V5     V     0.1019   0.5171   0.1102
V6     V     0.2515   0.8162   0.7231
V7     V     0.4829   0.8981   0.6102
V8     V     0.1838   0.7485   0.2231
V9     V     0.4152   0.5171   0.6102
V10     V     0.5647   0.8162   0.2231
V11     V     0.5647   0.7485   0.7231
V12     V     0.4152   0.8981   0.1102
V13     V     0.8504   0.0818   0.5565
V14     V     0.1495   0.2314   0.9435
V15     V     0.7686   0.9182   0.9435
V16     V     0.9182   0.7686   0.5565
V17     V     0.9182   0.1495   0.0565
V18     V     0.7686   0.8504   0.4435
V19     V     0.1495   0.9182   0.4435
V20     V     0.8504   0.7686   0.0565
V21     V     0.0818   0.2314   0.4435
V22     V     0.2314   0.0818   0.0565
V23     V     0.2314   0.1495   0.5565
V24     V     0.0818   0.8504   0.9435
V25     V     0.5171   0.1019   0.3898
V26     V     0.8162   0.2515   0.7769
V27     V     0.5171   0.4152   0.8898
V28     V     0.8162   0.5647   0.2769
V29     V     0.5848   0.4829   0.3898
V30     V     0.4353   0.1838   0.7769
V31     V     0.4353   0.2515   0.2769
V32     V     0.5848   0.1019   0.8898
V33     V     0.8981   0.4829   0.8898
V34     V     0.7485   0.1838   0.2769
V35     V     0.8981   0.4152   0.3898
V36     V     0.7485   0.5647   0.7769
loop_
_geom_bond_atom_site_label_1
_geom_bond_atom_site_label_2
_geom_bond_distance
_geom_bond_site_symmetry_2
_ccdc_geom_bond_type
V1     V14    10.0   1_554     S
V1     V21    10.0   .     S
V1     V5    10.0   .     S
V1     V3    10.0   1_554     S
V1     V3    10.0   .     S
V1     V4    10.0   .     S
V1     V9    10.0   .     S
V2     V35    10.0   1_455     S
V2     V33    10.0   1_455     S
V2     V3    10.0   .     S
V2     V5    10.0   1_556     S
V2     V6    10.0   .     S
V2     V5    10.0   .     S
V2     V8    10.0   .     S
V3     V14    10.0   .     S
V3     V21    10.0   .     S
V3     V1    10.0   1_556     S
V3     V5    10.0   1_556     S
V3     V9    10.0   .     S
V4     V27    10.0   1_554     S
V4     V29    10.0   .     S
V4     V9    10.0   .     S
V4     V10    10.0   .     S
V4     V9    10.0   1_554     S
V4     V11    10.0   1_554     S
V5     V35    10.0   1_455     S
V5     V33    10.0   1_454     S
V5     V2    10.0   1_554     S
V5     V3    10.0   1_554     S
V5     V8    10.0   .     S
V6     V24    10.0   .     S
V6     V19    10.0   .     S
V6     V8    10.0   .     S
V6     V8    10.0   1_556     S
V6     V7    10.0   .     S
V6     V12    10.0   1_556     S
V7     V12    10.0   1_556     S
V7     V11    10.0   .     S
V7     V12    10.0   .     S
V7     V10    10.0   .     S
V7     V32    10.0   1_565     S
V7     V25    10.0   1_565     S
V8     V24    10.0   1_554     S
V8     V19    10.0   .     S
V8     V12    10.0   .     S
V8     V6    10.0   1_554     S
V9     V27    10.0   .     S
V9     V29    10.0   .     S
V9     V11    10.0   .     S
V9     V4    10.0   1_556     S
V10     V11    10.0   1_554     S
V10     V11    10.0   .     S
V10     V12    10.0   .     S
V10     V18    10.0   .     S
V10     V15    10.0   1_554     S
V11     V10    10.0   1_556     S
V11     V4    10.0   1_556     S
V11     V18    10.0   .     S
V11     V15    10.0   .     S
V12     V7    10.0   1_554     S
V12     V6    10.0   1_554     S
V12     V32    10.0   1_564     S
V12     V25    10.0   1_565     S
V13     V26    10.0   .     S
V13     V34    10.0   .     S
V13     V21    10.0   1_655     S
V13     V17    10.0   .     S
V13     V17    10.0   1_556     S
V13     V18    10.0   1_545     S
V13     V15    10.0   1_545     S
V14     V1    10.0   1_556     S
V14     V17    10.0   1_456     S
V14     V21    10.0   1_556     S
V14     V21    10.0   .     S
V14     V22    10.0   1_556     S
V14     V23    10.0   .     S
V15     V10    10.0   1_556     S
V15     V20    10.0   1_556     S
V15     V18    10.0   1_556     S
V15     V17    10.0   1_566     S
V15     V18    10.0   .     S
V15     V13    10.0   1_565     S
V16     V28    10.0   .     S
V16     V36    10.0   .     S
V16     V18    10.0   .     S
V16     V20    10.0   .     S
V16     V19    10.0   1_655     S
V16     V20    10.0   1_556     S
V16     V24    10.0   1_655     S
V17     V26    10.0   1_554     S
V17     V34    10.0   .     S
V17     V14    10.0   1_654     S
V17     V21    10.0   1_655     S
V17     V15    10.0   1_544     S
V17     V13    10.0   1_554     S
V18     V15    10.0   1_554     S
V18     V20    10.0   .     S
V18     V13    10.0   1_565     S
V19     V16    10.0   1_455     S
V19     V24    10.0   .     S
V19     V23    10.0   1_565     S
V19     V24    10.0   1_554     S
V19     V22    10.0   1_565     S
V20     V28    10.0   .     S
V20     V36    10.0   1_554     S
V20     V15    10.0   1_554     S
V20     V24    10.0   1_654     S
V20     V16    10.0   1_554     S
V21     V14    10.0   1_554     S
V21     V13    10.0   1_455     S
V21     V17    10.0   1_455     S
V21     V23    10.0   .     S
V22     V14    10.0   1_554     S
V22     V23    10.0   1_554     S
V22     V23    10.0   .     S
V22     V24    10.0   1_544     S
V22     V19    10.0   1_545     S
V22     V30    10.0   1_554     S
V22     V31    10.0   .     S
V23     V22    10.0   1_556     S
V23     V19    10.0   1_545     S
V23     V30    10.0   .     S
V23     V31    10.0   .     S
V24     V8    10.0   1_556     S
V24     V20    10.0   1_456     S
V24     V16    10.0   1_455     S
V24     V22    10.0   1_566     S
V24     V19    10.0   1_556     S
V25     V12    10.0   1_545     S
V25     V7    10.0   1_545     S
V25     V34    10.0   .     S
V25     V32    10.0   1_554     S
V25     V32    10.0   .     S
V25     V31    10.0   .     S
V25     V30    10.0   .     S
V26     V17    10.0   1_556     S
V26     V32    10.0   .     S
V26     V34    10.0   1_556     S
V26     V33    10.0   .     S
V26     V34    10.0   .     S
V26     V35    10.0   .     S
V27     V4    10.0   1_556     S
V27     V36    10.0   .     S
V27     V29    10.0   .     S
V27     V29    10.0   1_556     S
V27     V30    10.0   .     S
V27     V31    10.0   1_556     S
V28     V29    10.0   .     S
V28     V36    10.0   .     S
V28     V36    10.0   1_554     S
V28     V35    10.0   .     S
V28     V33    10.0   1_554     S
V29     V36    10.0   .     S
V29     V31    10.0   .     S
V29     V27    10.0   1_554     S
V30     V22    10.0   1_556     S
V30     V31    10.0   1_556     S
V30     V32    10.0   .     S
V30     V31    10.0   .     S
V31     V30    10.0   1_554     S
V31     V27    10.0   1_554     S
V32     V12    10.0   1_546     S
V32     V7    10.0   1_545     S
V32     V25    10.0   1_556     S
V32     V34    10.0   1_556     S
V33     V2    10.0   1_655     S
V33     V5    10.0   1_656     S
V33     V35    10.0   .     S
V33     V36    10.0   .     S
V33     V35    10.0   1_556     S
V33     V28    10.0   1_556     S
V34     V26    10.0   1_554     S
V34     V32    10.0   1_554     S
V34     V35    10.0   .     S
V35     V2    10.0   1_655     S
V35     V5    10.0   1_655     S
V35     V33    10.0   1_554     S
V36     V20    10.0   1_556     S
V36     V28    10.0   1_556     S
