data_wnk
_audit_creation_date              2020-02-04
_audit_creation_method            'Pymatgen'
_symmetry_space_group_name_H-M    'P1'
_symmetry_Int_Tables_number       1
loop_
_symmetry_equiv_pos_as_xyz
  x,y,z
_cell_length_a                    16.0407
_cell_length_b                    16.0407
_cell_length_c                    28.585
_cell_angle_alpha                 90.0
_cell_angle_beta                 90.0
_cell_angle_gamma                 120.0
loop_
_atom_site_label
_atom_site_type_symbol
_atom_site_fract_x
_atom_site_fract_y
_atom_site_fract_z
V1     V     0.6667   0.4426   0.7673
V2     V     0.4426   0.6667   0.2327
V3     V     0.3333   0.7759   0.8993
V4     V     0.5574   0.2241   0.434
V5     V     0.7759   0.3333   0.1007
V6     V     0.2241   0.5574   0.566
loop_
_geom_bond_atom_site_label_1
_geom_bond_atom_site_label_2
_geom_bond_distance
_geom_bond_site_symmetry_2
_ccdc_geom_bond_type
V1     V4    10.0   .     S
V1     V6    10.0   .     S
V1     V5    10.0   1_556     S
V1     V6    10.0   1_655     S
V1     V3    10.0   1_655     S
V1     V3    10.0   .     S
V1     V3    10.0   1_545     S
V2     V6    10.0   .     S
V2     V4    10.0   .     S
V2     V3    10.0   1_554     S
V2     V4    10.0   1_565     S
V2     V5    10.0   1_565     S
V2     V5    10.0   .     S
V2     V5    10.0   1_455     S
V3     V2    10.0   1_556     S
V3     V5    10.0   1_566     S
V3     V5    10.0   1_456     S
V3     V6    10.0   .     S
V3     V1    10.0   1_455     S
V3     V1    10.0   1_565     S
V4     V6    10.0   .     S
V4     V5    10.0   .     S
V4     V2    10.0   1_545     S
V4     V6    10.0   1_655     S
V4     V6    10.0   1_545     S
V5     V3    10.0   1_544     S
V5     V2    10.0   1_545     S
V5     V1    10.0   1_554     S
V5     V3    10.0   1_654     S
V5     V2    10.0   1_655     S
V6     V1    10.0   1_455     S
V6     V4    10.0   1_455     S
V6     V4    10.0   1_565     S
