data_wno
_audit_creation_date              2020-02-04
_audit_creation_method            'Pymatgen'
_symmetry_space_group_name_H-M    'P1'
_symmetry_Int_Tables_number       1
loop_
_symmetry_equiv_pos_as_xyz
  x,y,z
_cell_length_a                    31.4625
_cell_length_b                    31.4625
_cell_length_c                    21.9456
_cell_angle_alpha                 90.0
_cell_angle_beta                 90.0
_cell_angle_gamma                 120.0
loop_
_atom_site_label
_atom_site_type_symbol
_atom_site_fract_x
_atom_site_fract_y
_atom_site_fract_z
V1     V     0.8009   0.6875   0.8845
V2     V     0.8866   0.1991   0.8845
V3     V     0.6875   0.8866   0.1155
V4     V     0.3125   0.1134   0.8845
V5     V     0.1991   0.3125   0.1155
V6     V     0.1134   0.8009   0.1155
V7     V     0.1342   0.3542   0.5512
V8     V     0.6458   0.78   0.5512
V9     V     0.5324   0.9791   0.7821
V10     V     0.4467   0.4676   0.7821
V11     V     0.22   0.8658   0.5512
V12     V     0.0209   0.5533   0.7821
V13     V     0.5533   0.5324   0.2179
V14     V     0.4676   0.0209   0.2179
V15     V     0.3542   0.22   0.4488
V16     V     0.9791   0.4467   0.2179
V17     V     0.8658   0.6458   0.4488
V18     V     0.78   0.1342   0.4488
loop_
_geom_bond_atom_site_label_1
_geom_bond_atom_site_label_2
_geom_bond_distance
_geom_bond_site_symmetry_2
_ccdc_geom_bond_type
V1     V3    10.0   1_556     S
V1     V6    10.0   1_656     S
V1     V12    10.0   1_655     S
V1     V13    10.0   1_556     S
V1     V17    10.0   .     S
V1     V8    10.0   .     S
V1     V10    10.0   .     S
V2     V18    10.0   .     S
V2     V7    10.0   1_655     S
V2     V12    10.0   1_655     S
V2     V3    10.0   1_546     S
V2     V5    10.0   1_656     S
V2     V16    10.0   1_556     S
V2     V9    10.0   1_545     S
V3     V8    10.0   .     S
V3     V18    10.0   1_565     S
V3     V14    10.0   1_565     S
V3     V1    10.0   1_554     S
V3     V2    10.0   1_564     S
V3     V9    10.0   1_554     S
V3     V13    10.0   .     S
V4     V15    10.0   .     S
V4     V11    10.0   1_545     S
V4     V9    10.0   1_545     S
V4     V5    10.0   1_556     S
V4     V6    10.0   1_546     S
V4     V14    10.0   1_556     S
V4     V10    10.0   .     S
V5     V7    10.0   .     S
V5     V15    10.0   .     S
V5     V13    10.0   .     S
V5     V4    10.0   1_554     S
V5     V2    10.0   1_454     S
V5     V16    10.0   1_455     S
V5     V10    10.0   1_554     S
V6     V11    10.0   .     S
V6     V17    10.0   1_455     S
V6     V16    10.0   1_455     S
V6     V1    10.0   1_454     S
V6     V4    10.0   1_564     S
V6     V12    10.0   1_554     S
V6     V14    10.0   1_565     S
V7     V2    10.0   1_455     S
V7     V15    10.0   .     S
V7     V16    10.0   1_455     S
V7     V18    10.0   1_455     S
V7     V12    10.0   .     S
V7     V10    10.0   .     S
V8     V18    10.0   1_565     S
V8     V13    10.0   .     S
V8     V17    10.0   .     S
V8     V9    10.0   .     S
V8     V10    10.0   .     S
V9     V18    10.0   1_565     S
V9     V4    10.0   1_565     S
V9     V14    10.0   1_566     S
V9     V3    10.0   1_556     S
V9     V2    10.0   1_565     S
V9     V11    10.0   .     S
V10     V15    10.0   .     S
V10     V13    10.0   1_556     S
V10     V5    10.0   1_556     S
V11     V4    10.0   1_565     S
V11     V14    10.0   1_565     S
V11     V15    10.0   1_565     S
V11     V12    10.0   .     S
V11     V17    10.0   1_455     S
V12     V2    10.0   1_455     S
V12     V16    10.0   1_456     S
V12     V6    10.0   1_556     S
V12     V1    10.0   1_455     S
V12     V17    10.0   1_455     S
V13     V10    10.0   1_554     S
V13     V1    10.0   1_554     S
V13     V15    10.0   .     S
V13     V17    10.0   .     S
V14     V11    10.0   1_545     S
V14     V3    10.0   1_545     S
V14     V9    10.0   1_544     S
V14     V4    10.0   1_554     S
V14     V6    10.0   1_545     S
V14     V18    10.0   .     S
V14     V15    10.0   .     S
V15     V11    10.0   1_545     S
V16     V6    10.0   1_655     S
V16     V7    10.0   1_655     S
V16     V12    10.0   1_654     S
V16     V2    10.0   1_554     S
V16     V5    10.0   1_655     S
V16     V17    10.0   .     S
V16     V18    10.0   .     S
V17     V6    10.0   1_655     S
V17     V12    10.0   1_655     S
V17     V11    10.0   1_655     S
V18     V9    10.0   1_545     S
V18     V8    10.0   1_545     S
V18     V3    10.0   1_545     S
V18     V7    10.0   1_655     S
