data_wnp
_audit_creation_date              2020-02-04
_audit_creation_method            'Pymatgen'
_symmetry_space_group_name_H-M    'P1'
_symmetry_Int_Tables_number       1
loop_
_symmetry_equiv_pos_as_xyz
  x,y,z
_cell_length_a                    24.462
_cell_length_b                    24.462
_cell_length_c                    37.8174
_cell_angle_alpha                 90.0
_cell_angle_beta                 90.0
_cell_angle_gamma                 120.0
loop_
_atom_site_label
_atom_site_type_symbol
_atom_site_fract_x
_atom_site_fract_y
_atom_site_fract_z
V1     V     0.5443   0.9215   0.2746
V2     V     0.789   0.7451   0.392
V3     V     0.3772   0.4557   0.2746
V4     V     0.9561   0.211   0.392
V5     V     0.0785   0.6228   0.2746
V6     V     0.2549   0.0439   0.392
V7     V     0.0439   0.789   0.608
V8     V     0.6228   0.5443   0.7254
V9     V     0.7451   0.9561   0.608
V10     V     0.9215   0.3772   0.7254
V11     V     0.211   0.2549   0.608
V12     V     0.4557   0.0785   0.7254
V13     V     0.2895   0.8777   0.0587
V14     V     0.7105   0.1223   0.9413
V15     V     0.5882   0.7105   0.0587
V16     V     0.4118   0.2895   0.9413
V17     V     0.1223   0.4118   0.0587
V18     V     0.8777   0.5882   0.9413
loop_
_geom_bond_atom_site_label_1
_geom_bond_atom_site_label_2
_geom_bond_distance
_geom_bond_site_symmetry_2
_ccdc_geom_bond_type
V1     V15    10.0   .     S
V1     V13    10.0   .     S
V1     V2    9.999   .     S
V1     V4    10.0   1_565     S
V1     V5    10.0   .     S
V1     V3    10.0   .     S
V1     V6    10.0   1_565     S
V2     V7    10.0   1_655     S
V2     V9    10.0   .     S
V2     V3    10.0   .     S
V2     V4    10.0   1_565     S
V2     V6    10.0   1_665     S
V2     V5    10.0   1_655     S
V3     V17    10.0   .     S
V3     V15    10.0   .     S
V3     V4    9.999   1_455     S
V3     V6    10.0   .     S
V3     V5    10.0   .     S
V4     V9    10.0   1_545     S
V4     V11    10.0   1_655     S
V4     V1    10.0   1_545     S
V4     V3    9.999   1_655     S
V4     V5    10.0   1_655     S
V4     V6    10.0   1_655     S
V4     V2    10.0   1_545     S
V5     V17    10.0   .     S
V5     V13    10.0   .     S
V5     V4    10.0   1_455     S
V5     V6    9.999   1_565     S
V5     V2    10.0   1_455     S
V6     V11    10.0   .     S
V6     V7    10.0   1_545     S
V6     V4    10.0   1_455     S
V6     V2    10.0   1_445     S
V6     V5    9.999   1_545     S
V6     V1    10.0   1_545     S
V7     V6    10.0   1_565     S
V7     V2    10.0   1_455     S
V7     V8    9.999   1_455     S
V7     V10    10.0   1_455     S
V7     V11    10.0   1_565     S
V7     V9    10.0   1_455     S
V7     V12    10.0   1_565     S
V8     V7    9.999   1_655     S
V8     V9    10.0   .     S
V8     V10    10.0   .     S
V8     V12    10.0   .     S
V8     V11    10.0   .     S
V8     V18    10.0   .     S
V8     V16    10.0   .     S
V9     V4    10.0   1_565     S
V9     V10    9.999   1_565     S
V9     V12    10.0   1_565     S
V9     V11    10.0   1_665     S
V9     V7    10.0   1_655     S
V10     V7    10.0   1_655     S
V10     V12    10.0   .     S
V10     V9    9.999   1_545     S
V10     V11    10.0   1_655     S
V10     V18    10.0   .     S
V10     V14    10.0   .     S
V11     V4    10.0   1_455     S
V11     V10    10.0   1_455     S
V11     V9    10.0   1_445     S
V11     V7    10.0   1_545     S
V11     V12    9.999   .     S
V12     V9    10.0   1_545     S
V12     V7    10.0   1_545     S
V12     V16    10.0   .     S
V12     V14    10.0   .     S
V13     V14    9.999   1_564     S
V13     V16    10.0   1_564     S
V13     V17    10.0   .     S
V13     V15    10.0   .     S
V13     V18    10.0   1_454     S
V14     V13    9.999   1_546     S
V14     V15    10.0   1_546     S
V14     V18    10.0   .     S
V14     V16    10.0   .     S
V14     V17    10.0   1_656     S
V15     V14    10.0   1_564     S
V15     V16    9.999   1_554     S
V15     V18    10.0   1_554     S
V15     V17    10.0   .     S
V16     V13    10.0   1_546     S
V16     V15    9.999   1_556     S
V16     V17    10.0   1_556     S
V16     V18    10.0   .     S
V17     V16    10.0   1_554     S
V17     V18    9.999   1_454     S
V17     V14    10.0   1_454     S
V18     V15    10.0   1_556     S
V18     V17    9.999   1_656     S
V18     V13    10.0   1_656     S
