data_wns
_audit_creation_date              2020-02-04
_audit_creation_method            'Pymatgen'
_symmetry_space_group_name_H-M    'P1'
_symmetry_Int_Tables_number       1
loop_
_symmetry_equiv_pos_as_xyz
  x,y,z
_cell_length_a                    26.112
_cell_length_b                    26.112
_cell_length_c                    19.5516
_cell_angle_alpha                 90.0
_cell_angle_beta                 90.0
_cell_angle_gamma                 120.0
loop_
_atom_site_label
_atom_site_type_symbol
_atom_site_fract_x
_atom_site_fract_y
_atom_site_fract_z
V1     V     0.1675   0.7519   0.4169
V2     V     0.2481   0.4156   0.4169
V3     V     0.5844   0.8325   0.4169
V4     V     0.5844   0.7519   0.9169
V5     V     0.2481   0.8325   0.9169
V6     V     0.1675   0.4156   0.9169
V7     V     0.4156   0.1675   0.5831
V8     V     0.8325   0.2481   0.5831
V9     V     0.7519   0.5844   0.5831
V10     V     0.4156   0.2481   0.0831
V11     V     0.7519   0.1675   0.0831
V12     V     0.8325   0.5844   0.0831
loop_
_geom_bond_atom_site_label_1
_geom_bond_atom_site_label_2
_geom_bond_distance
_geom_bond_site_symmetry_2
_ccdc_geom_bond_type
V1     V12    10.0   1_455     S
V1     V9    10.0   1_455     S
V1     V2    10.0   .     S
V1     V3    10.0   .     S
V1     V5    10.0   .     S
V1     V5    10.0   1_554     S
V1     V7    10.0   1_565     S
V2     V10    10.0   .     S
V2     V7    10.0   .     S
V2     V8    10.0   1_455     S
V2     V3    10.0   .     S
V2     V6    10.0   .     S
V2     V6    10.0   1_554     S
V3     V9    10.0   .     S
V3     V4    10.0   .     S
V3     V4    10.0   1_554     S
V3     V11    10.0   1_565     S
V3     V8    10.0   1_565     S
V4     V12    10.0   1_556     S
V4     V9    10.0   .     S
V4     V5    10.0   .     S
V4     V6    10.0   .     S
V4     V3    10.0   1_556     S
V4     V11    10.0   1_566     S
V5     V12    10.0   1_456     S
V5     V6    10.0   .     S
V5     V1    10.0   1_556     S
V5     V10    10.0   1_566     S
V5     V7    10.0   1_565     S
V6     V10    10.0   1_556     S
V6     V11    10.0   1_456     S
V6     V8    10.0   1_455     S
V6     V2    10.0   1_556     S
V7     V9    10.0   .     S
V7     V8    10.0   .     S
V7     V10    10.0   .     S
V7     V10    10.0   1_556     S
V7     V5    10.0   1_545     S
V7     V1    10.0   1_545     S
V8     V6    10.0   1_655     S
V8     V2    10.0   1_655     S
V8     V3    10.0   1_545     S
V8     V9    10.0   .     S
V8     V11    10.0   .     S
V8     V11    10.0   1_556     S
V9     V1    10.0   1_655     S
V9     V12    10.0   .     S
V9     V12    10.0   1_556     S
V10     V6    10.0   1_554     S
V10     V12    10.0   .     S
V10     V11    10.0   .     S
V10     V7    10.0   1_554     S
V10     V5    10.0   1_544     S
V11     V6    10.0   1_654     S
V11     V4    10.0   1_544     S
V11     V3    10.0   1_545     S
V11     V12    10.0   .     S
V11     V8    10.0   1_554     S
V12     V5    10.0   1_654     S
V12     V1    10.0   1_655     S
V12     V4    10.0   1_554     S
V12     V9    10.0   1_554     S
