data_wnv
_audit_creation_date              2020-02-04
_audit_creation_method            'Pymatgen'
_symmetry_space_group_name_H-M    'P1'
_symmetry_Int_Tables_number       1
loop_
_symmetry_equiv_pos_as_xyz
  x,y,z
_cell_length_a                    73.0588
_cell_length_b                    73.0588
_cell_length_c                    20.0
_cell_angle_alpha                 90.0
_cell_angle_beta                 90.0
_cell_angle_gamma                 120.0
loop_
_atom_site_label
_atom_site_type_symbol
_atom_site_fract_x
_atom_site_fract_y
_atom_site_fract_z
V1     V     0.5887   0.8536   0.3333
V2     V     0.5887   0.8536   0.8333
V3     V     0.5203   0.9221   0.0833
V4     V     0.5203   0.9221   0.5833
V5     V     0.813   0.0684   0.0
V6     V     0.813   0.0684   0.5
V7     V     0.7446   0.9316   0.25
V8     V     0.7446   0.9316   0.75
V9     V     0.5982   0.0779   0.1667
V10     V     0.5982   0.0779   0.6667
V11     V     0.7351   0.1464   0.4167
V12     V     0.7351   0.1464   0.9167
V13     V     0.0684   0.813   0.25
V14     V     0.0684   0.813   0.75
V15     V     0.9316   0.7446   0.0
V16     V     0.9316   0.7446   0.5
V17     V     0.1464   0.7351   0.3333
V18     V     0.1464   0.7351   0.8333
V19     V     0.0779   0.5982   0.0833
V20     V     0.0779   0.5982   0.5833
V21     V     0.9221   0.5203   0.1667
V22     V     0.9221   0.5203   0.6667
V23     V     0.8536   0.5887   0.4167
V24     V     0.8536   0.5887   0.9167
V25     V     0.0684   0.2554   0.0
V26     V     0.0684   0.2554   0.5
V27     V     0.9316   0.187   0.25
V28     V     0.9316   0.187   0.75
V29     V     0.0779   0.4797   0.3333
V30     V     0.0779   0.4797   0.8333
V31     V     0.1464   0.4113   0.0833
V32     V     0.1464   0.4113   0.5833
V33     V     0.9221   0.4018   0.4167
V34     V     0.9221   0.4018   0.9167
V35     V     0.8536   0.2649   0.1667
V36     V     0.8536   0.2649   0.6667
V37     V     0.7446   0.813   0.0
V38     V     0.7446   0.813   0.5
V39     V     0.813   0.7446   0.25
V40     V     0.813   0.7446   0.75
V41     V     0.5887   0.7351   0.0833
V42     V     0.5887   0.7351   0.5833
V43     V     0.5203   0.5982   0.3333
V44     V     0.5203   0.5982   0.8333
V45     V     0.5982   0.5203   0.4167
V46     V     0.5982   0.5203   0.9167
V47     V     0.7351   0.5887   0.1667
V48     V     0.7351   0.5887   0.6667
V49     V     0.4797   0.4018   0.1667
V50     V     0.4797   0.4018   0.6667
V51     V     0.4113   0.2649   0.4167
V52     V     0.4113   0.2649   0.9167
V53     V     0.2649   0.4113   0.3333
V54     V     0.2649   0.4113   0.8333
V55     V     0.4018   0.4797   0.0833
V56     V     0.4018   0.4797   0.5833
V57     V     0.2554   0.187   0.0
V58     V     0.2554   0.187   0.5
V59     V     0.187   0.2554   0.25
V60     V     0.187   0.2554   0.75
V61     V     0.4797   0.0779   0.4167
V62     V     0.4797   0.0779   0.9167
V63     V     0.4113   0.1464   0.1667
V64     V     0.4113   0.1464   0.6667
V65     V     0.2554   0.0684   0.25
V66     V     0.2554   0.0684   0.75
V67     V     0.187   0.9316   0.0
V68     V     0.187   0.9316   0.5
V69     V     0.2649   0.8536   0.0833
V70     V     0.2649   0.8536   0.5833
V71     V     0.4018   0.9221   0.3333
V72     V     0.4018   0.9221   0.8333
loop_
_geom_bond_atom_site_label_1
_geom_bond_atom_site_label_2
_geom_bond_distance
_geom_bond_site_symmetry_2
_ccdc_geom_bond_type
V1     V41    10.001   .     S
V1     V42    10.001   .     S
V1     V3    9.999   .     S
V1     V4    9.999   .     S
V1     V2    10.0   1_554     S
V1     V2    10.0   .     S
V1     V7    10.0   .     S
V2     V42    10.001   .     S
V2     V41    10.001   1_556     S
V2     V4    9.999   .     S
V2     V3    9.999   1_556     S
V2     V1    10.0   1_556     S
V2     V8    10.0   .     S
V3     V71    10.001   .     S
V3     V72    10.001   1_554     S
V3     V9    10.0   1_565     S
V3     V2    9.999   1_554     S
V3     V4    10.0   .     S
V3     V4    10.0   1_554     S
V4     V72    10.001   .     S
V4     V71    10.001   .     S
V4     V10    10.0   1_565     S
V4     V3    10.0   1_556     S
V5     V28    10.001   1_554     S
V5     V27    10.001   .     S
V5     V7    9.999   1_545     S
V5     V6    10.0   .     S
V5     V6    10.0   1_554     S
V5     V8    9.999   1_544     S
V5     V12    10.0   1_554     S
V6     V27    10.001   .     S
V6     V28    10.001   .     S
V6     V8    9.999   1_545     S
V6     V5    10.0   1_556     S
V6     V7    9.999   1_545     S
V6     V11    10.0   .     S
V7     V38    10.001   .     S
V7     V37    10.001   .     S
V7     V5    9.999   1_565     S
V7     V6    9.999   1_565     S
V7     V8    10.0   1_554     S
V7     V8    10.0   .     S
V8     V37    10.001   1_556     S
V8     V38    10.001   .     S
V8     V6    9.999   1_565     S
V8     V5    9.999   1_566     S
V8     V7    10.0   1_556     S
V9     V3    10.0   1_545     S
V9     V12    9.999   1_554     S
V9     V11    9.999   .     S
V9     V10    10.0   .     S
V9     V10    10.0   1_554     S
V9     V62    10.001   1_554     S
V9     V61    10.001   .     S
V10     V4    10.0   1_545     S
V10     V11    9.999   .     S
V10     V12    9.999   .     S
V10     V9    10.0   1_556     S
V10     V61    10.001   .     S
V10     V62    10.001   .     S
V11     V36    10.001   .     S
V11     V35    10.001   .     S
V11     V12    10.0   1_554     S
V11     V12    10.0   .     S
V12     V35    10.001   1_556     S
V12     V36    10.001   .     S
V12     V5    10.0   1_556     S
V12     V9    9.999   1_556     S
V12     V11    10.0   1_556     S
V13     V17    10.0   .     S
V13     V15    9.999   1_455     S
V13     V14    10.0   1_554     S
V13     V14    10.0   .     S
V13     V16    9.999   1_455     S
V13     V68    10.001   .     S
V13     V67    10.001   .     S
V14     V18    10.0   .     S
V14     V16    9.999   1_455     S
V14     V13    10.0   1_556     S
V14     V15    9.999   1_456     S
V14     V67    10.001   1_556     S
V14     V68    10.001   .     S
V15     V40    10.001   1_554     S
V15     V39    10.001   .     S
V15     V13    9.999   1_655     S
V15     V14    9.999   1_654     S
V15     V16    10.0   .     S
V15     V16    10.0   1_554     S
V15     V24    10.0   1_554     S
V16     V39    10.001   .     S
V16     V40    10.001   .     S
V16     V14    9.999   1_655     S
V16     V13    9.999   1_655     S
V16     V15    10.0   1_556     S
V16     V23    10.0   .     S
V17     V19    9.999   .     S
V17     V20    9.999   .     S
V17     V18    10.0   1_554     S
V17     V18    10.0   .     S
V17     V69    10.001   .     S
V17     V70    10.001   .     S
V18     V20    9.999   .     S
V18     V19    9.999   1_556     S
V18     V17    10.0   1_556     S
V18     V70    10.001   .     S
V18     V69    10.001   1_556     S
V19     V29    10.001   .     S
V19     V30    10.001   1_554     S
V19     V18    9.999   1_554     S
V19     V20    10.0   .     S
V19     V20    10.0   1_554     S
V19     V21    10.0   1_455     S
V20     V30    10.001   .     S
V20     V29    10.001   .     S
V20     V19    10.0   1_556     S
V20     V22    10.0   1_455     S
V21     V19    10.0   1_655     S
V21     V24    9.999   1_554     S
V21     V23    9.999   .     S
V21     V22    10.0   .     S
V21     V22    10.0   1_554     S
V21     V34    10.001   1_554     S
V21     V33    10.001   .     S
V22     V20    10.0   1_655     S
V22     V23    9.999   .     S
V22     V24    9.999   .     S
V22     V21    10.0   1_556     S
V22     V33    10.001   .     S
V22     V34    10.001   .     S
V23     V48    10.001   .     S
V23     V47    10.001   .     S
V23     V24    10.0   1_554     S
V23     V24    10.0   .     S
V24     V47    10.001   1_556     S
V24     V48    10.001   .     S
V24     V15    10.0   1_556     S
V24     V21    9.999   1_556     S
V24     V23    10.0   1_556     S
V25     V60    10.001   1_554     S
V25     V59    10.001   .     S
V25     V28    9.999   1_454     S
V25     V26    10.0   .     S
V25     V26    10.0   1_554     S
V25     V27    9.999   1_455     S
V25     V31    10.0   .     S
V26     V59    10.001   .     S
V26     V60    10.001   .     S
V26     V27    9.999   1_455     S
V26     V25    10.0   1_556     S
V26     V28    9.999   1_455     S
V26     V32    10.0   .     S
V27     V35    10.0   .     S
V27     V26    9.999   1_655     S
V27     V25    9.999   1_655     S
V27     V28    10.0   1_554     S
V27     V28    10.0   .     S
V28     V5    10.001   1_556     S
V28     V36    10.0   .     S
V28     V25    9.999   1_656     S
V28     V26    9.999   1_655     S
V28     V27    10.0   1_556     S
V29     V32    9.999   .     S
V29     V31    9.999   .     S
V29     V30    10.0   1_554     S
V29     V30    10.0   .     S
V29     V33    10.0   1_455     S
V30     V19    10.001   1_556     S
V30     V31    9.999   1_556     S
V30     V32    9.999   .     S
V30     V29    10.0   1_556     S
V30     V34    10.0   1_455     S
V31     V30    9.999   1_554     S
V31     V32    10.0   .     S
V31     V32    10.0   1_554     S
V31     V53    10.001   .     S
V31     V54    10.001   1_554     S
V32     V31    10.0   1_556     S
V32     V54    10.001   .     S
V32     V53    10.001   .     S
V33     V29    10.0   1_655     S
V33     V36    9.999   .     S
V33     V35    9.999   .     S
V33     V34    10.0   1_554     S
V33     V34    10.0   .     S
V34     V21    10.001   1_556     S
V34     V30    10.0   1_655     S
V34     V35    9.999   1_556     S
V34     V36    9.999   .     S
V34     V33    10.0   1_556     S
V35     V12    10.001   1_554     S
V35     V34    9.999   1_554     S
V35     V36    10.0   .     S
V35     V36    10.0   1_554     S
V36     V35    10.0   1_556     S
V37     V8    10.001   1_554     S
V37     V41    10.0   .     S
V37     V40    9.999   1_554     S
V37     V38    10.0   .     S
V37     V38    10.0   1_554     S
V37     V39    9.999   .     S
V38     V42    10.0   .     S
V38     V39    9.999   .     S
V38     V37    10.0   1_556     S
V38     V40    9.999   .     S
V39     V40    10.0   1_554     S
V39     V40    10.0   .     S
V39     V47    10.0   .     S
V40     V15    10.001   1_556     S
V40     V37    9.999   1_556     S
V40     V39    10.0   1_556     S
V40     V48    10.0   .     S
V41     V2    10.001   1_554     S
V41     V42    10.0   .     S
V41     V42    10.0   1_554     S
V41     V44    9.999   1_554     S
V41     V43    9.999   .     S
V42     V41    10.0   1_556     S
V42     V43    9.999   .     S
V42     V44    9.999   .     S
V43     V55    10.001   .     S
V43     V56    10.001   .     S
V43     V44    10.0   1_554     S
V43     V44    10.0   .     S
V43     V45    10.0   .     S
V44     V56    10.001   .     S
V44     V55    10.001   1_556     S
V44     V41    9.999   1_556     S
V44     V43    10.0   1_556     S
V44     V46    10.0   .     S
V45     V48    9.999   .     S
V45     V46    10.0   1_554     S
V45     V46    10.0   .     S
V45     V47    9.999   .     S
V45     V50    10.001   .     S
V45     V49    10.001   .     S
V46     V47    9.999   1_556     S
V46     V45    10.0   1_556     S
V46     V48    9.999   .     S
V46     V49    10.001   1_556     S
V46     V50    10.001   .     S
V47     V24    10.001   1_554     S
V47     V46    9.999   1_554     S
V47     V48    10.0   .     S
V47     V48    10.0   1_554     S
V48     V47    10.0   1_556     S
V49     V46    10.001   1_554     S
V49     V52    9.999   1_554     S
V49     V51    9.999   .     S
V49     V50    10.0   .     S
V49     V50    10.0   1_554     S
V49     V55    10.0   .     S
V50     V51    9.999   .     S
V50     V52    9.999   .     S
V50     V49    10.0   1_556     S
V50     V56    10.0   .     S
V51     V58    10.0   .     S
V51     V52    10.0   1_554     S
V51     V52    10.0   .     S
V51     V64    10.001   .     S
V51     V63    10.001   .     S
V52     V57    10.0   1_556     S
V52     V49    9.999   1_556     S
V52     V51    10.0   1_556     S
V52     V63    10.001   1_556     S
V52     V64    10.001   .     S
V53     V56    9.999   .     S
V53     V54    10.0   1_554     S
V53     V54    10.0   .     S
V53     V55    9.999   .     S
V53     V59    10.0   .     S
V54     V31    10.001   1_556     S
V54     V55    9.999   1_556     S
V54     V53    10.0   1_556     S
V54     V56    9.999   .     S
V54     V60    10.0   .     S
V55     V44    10.001   1_554     S
V55     V54    9.999   1_554     S
V55     V56    10.0   .     S
V55     V56    10.0   1_554     S
V56     V55    10.0   1_556     S
V57     V66    10.001   1_554     S
V57     V65    10.001   .     S
V57     V52    10.0   1_554     S
V57     V59    9.999   .     S
V57     V58    10.0   .     S
V57     V58    10.0   1_554     S
V57     V60    9.999   1_554     S
V58     V65    10.001   .     S
V58     V66    10.001   .     S
V58     V60    9.999   .     S
V58     V57    10.0   1_556     S
V58     V59    9.999   .     S
V59     V60    10.0   1_554     S
V59     V60    10.0   .     S
V60     V25    10.001   1_556     S
V60     V57    9.999   1_556     S
V60     V59    10.0   1_556     S
V61     V64    9.999   .     S
V61     V62    10.0   1_554     S
V61     V62    10.0   .     S
V61     V63    9.999   .     S
V61     V71    10.0   1_545     S
V62     V9    10.001   1_556     S
V62     V63    9.999   1_556     S
V62     V61    10.0   1_556     S
V62     V64    9.999   .     S
V62     V72    10.0   1_545     S
V63     V52    10.001   1_554     S
V63     V65    10.0   .     S
V63     V62    9.999   1_554     S
V63     V64    10.0   .     S
V63     V64    10.0   1_554     S
V64     V66    10.0   .     S
V64     V63    10.0   1_556     S
V65     V68    9.999   1_545     S
V65     V66    10.0   1_554     S
V65     V66    10.0   .     S
V65     V67    9.999   1_545     S
V66     V57    10.001   1_556     S
V66     V67    9.999   1_546     S
V66     V65    10.0   1_556     S
V66     V68    9.999   1_545     S
V67     V14    10.001   1_554     S
V67     V69    10.0   .     S
V67     V66    9.999   1_564     S
V67     V65    9.999   1_565     S
V67     V68    10.0   .     S
V67     V68    10.0   1_554     S
V68     V70    10.0   .     S
V68     V65    9.999   1_565     S
V68     V66    9.999   1_565     S
V68     V67    10.0   1_556     S
V69     V70    10.0   .     S
V69     V70    10.0   1_554     S
V69     V72    9.999   1_554     S
V69     V71    9.999   .     S
V69     V18    10.001   1_554     S
V70     V69    10.0   1_556     S
V70     V71    9.999   .     S
V70     V72    9.999   .     S
V71     V61    10.0   1_565     S
V71     V72    10.0   1_554     S
V71     V72    10.0   .     S
V72     V3    10.001   1_556     S
V72     V62    10.0   1_565     S
V72     V69    9.999   1_556     S
V72     V71    10.0   1_556     S
