data_wnw
_audit_creation_date              2020-02-04
_audit_creation_method            'Pymatgen'
_symmetry_space_group_name_H-M    'P1'
_symmetry_Int_Tables_number       1
loop_
_symmetry_equiv_pos_as_xyz
  x,y,z
_cell_length_a                    50.0616
_cell_length_b                    50.0616
_cell_length_c                    17.1121
_cell_angle_alpha                 90.0
_cell_angle_beta                 90.0
_cell_angle_gamma                 120.0
loop_
_atom_site_label
_atom_site_type_symbol
_atom_site_fract_x
_atom_site_fract_y
_atom_site_fract_z
V1     V     0.2736   0.8298   0.1667
V2     V     0.1631   0.9403   0.0
V3     V     0.1702   0.7264   0.6667
V4     V     0.0597   0.8369   0.5
V5     V     0.8895   0.4964   0.3333
V6     V     0.1105   0.607   0.1667
V7     V     0.8895   0.393   0.8333
V8     V     0.1105   0.5036   0.6667
V9     V     0.8369   0.0597   0.0
V10     V     0.7264   0.1702   0.8333
V11     V     0.9403   0.1631   0.5
V12     V     0.8298   0.2736   0.3333
V13     V     0.2736   0.4439   0.6667
V14     V     0.1631   0.2228   0.5
V15     V     0.1702   0.4439   0.1667
V16     V     0.0597   0.2228   0.0
V17     V     0.5036   0.1105   0.8333
V18     V     0.393   0.8895   0.6667
V19     V     0.607   0.1105   0.3333
V20     V     0.4964   0.8895   0.1667
V21     V     0.4439   0.2736   0.8333
V22     V     0.2228   0.1631   0.0
V23     V     0.2228   0.0597   0.5
V24     V     0.4439   0.1702   0.3333
V25     V     0.393   0.5036   0.1667
V26     V     0.5036   0.393   0.3333
V27     V     0.607   0.4964   0.8333
V28     V     0.4964   0.607   0.6667
V29     V     0.8298   0.5561   0.8333
V30     V     0.9403   0.7772   0.0
V31     V     0.7264   0.5561   0.3333
V32     V     0.8369   0.7772   0.5
V33     V     0.5561   0.7264   0.1667
V34     V     0.7772   0.8369   0.0
V35     V     0.7772   0.9403   0.5
V36     V     0.5561   0.8298   0.6667
loop_
_geom_bond_atom_site_label_1
_geom_bond_atom_site_label_2
_geom_bond_distance
_geom_bond_site_symmetry_2
_ccdc_geom_bond_type
V1     V18    10.0   .     S
V1     V20    10.0   .     S
V1     V18    10.0   1_554     S
V1     V2    10.0   .     S
V1     V3    10.0   .     S
V1     V3    10.0   1_554     S
V1     V6    10.0   .     S
V2     V30    10.0   1_455     S
V2     V4    10.0   1_554     S
V2     V4    10.0   .     S
V2     V23    10.0   1_564     S
V2     V23    10.0   1_565     S
V2     V22    10.0   1_565     S
V3     V18    10.0   .     S
V3     V4    10.0   .     S
V3     V1    10.0   1_556     S
V3     V6    10.0   1_556     S
V3     V8    10.0   .     S
V3     V6    10.0   .     S
V4     V30    10.0   1_455     S
V4     V30    10.0   1_456     S
V4     V32    10.0   1_455     S
V4     V2    10.0   1_556     S
V4     V23    10.0   1_565     S
V5     V6    10.0   1_655     S
V5     V7    10.0   1_554     S
V5     V7    10.0   .     S
V5     V29    10.0   .     S
V5     V29    10.0   1_554     S
V5     V31    10.0   .     S
V5     V12    10.0   .     S
V6     V15    10.0   .     S
V6     V3    10.0   1_554     S
V6     V5    10.0   1_455     S
V6     V8    10.0   .     S
V6     V8    10.0   1_554     S
V7     V8    10.0   1_655     S
V7     V5    10.0   1_556     S
V7     V29    10.0   .     S
V7     V12    10.0   1_556     S
V7     V12    10.0   .     S
V7     V10    10.0   .     S
V8     V15    10.0   .     S
V8     V13    10.0   .     S
V8     V15    10.0   1_556     S
V8     V7    10.0   1_455     S
V8     V6    10.0   1_556     S
V9     V35    10.0   1_545     S
V9     V34    10.0   1_545     S
V9     V35    10.0   1_544     S
V9     V16    10.0   1_655     S
V9     V10    10.0   1_554     S
V9     V11    10.0   1_554     S
V9     V11    10.0   .     S
V10     V19    10.0   .     S
V10     V17    10.0   .     S
V10     V19    10.0   1_556     S
V10     V9    10.0   1_556     S
V10     V12    10.0   1_556     S
V10     V12    10.0   .     S
V11     V35    10.0   1_545     S
V11     V16    10.0   1_656     S
V11     V14    10.0   1_655     S
V11     V16    10.0   1_655     S
V11     V12    10.0   .     S
V11     V9    10.0   1_556     S
V12     V7    10.0   1_554     S
V12     V19    10.0   .     S
V12     V10    10.0   1_554     S
V13     V14    10.0   .     S
V13     V15    10.0   .     S
V13     V15    10.0   1_556     S
V13     V25    10.0   1_556     S
V13     V25    10.0   .     S
V13     V28    10.0   .     S
V14     V11    10.0   1_455     S
V14     V16    10.0   1_556     S
V14     V16    10.0   .     S
V14     V22    10.0   .     S
V14     V22    10.0   1_556     S
V14     V23    10.0   .     S
V15     V8    10.0   1_554     S
V15     V13    10.0   1_554     S
V15     V16    10.0   .     S
V15     V25    10.0   .     S
V16     V11    10.0   1_454     S
V16     V11    10.0   1_455     S
V16     V9    10.0   1_455     S
V16     V14    10.0   1_554     S
V16     V22    10.0   .     S
V17     V18    10.0   1_545     S
V17     V19    10.0   .     S
V17     V19    10.0   1_556     S
V17     V24    10.0   1_556     S
V17     V21    10.0   .     S
V17     V24    10.0   .     S
V18     V1    10.0   1_556     S
V18     V36    10.0   .     S
V18     V17    10.0   1_565     S
V18     V20    10.0   .     S
V18     V20    10.0   1_556     S
V19     V10    10.0   1_554     S
V19     V20    10.0   1_545     S
V19     V17    10.0   1_554     S
V19     V24    10.0   .     S
V20     V36    10.0   1_554     S
V20     V36    10.0   .     S
V20     V33    10.0   .     S
V20     V19    10.0   1_565     S
V20     V18    10.0   1_554     S
V21     V22    10.0   1_556     S
V21     V24    10.0   1_556     S
V21     V24    10.0   .     S
V21     V26    10.0   .     S
V21     V26    10.0   1_556     S
V21     V27    10.0   .     S
V22     V2    10.0   1_545     S
V22     V14    10.0   1_554     S
V22     V21    10.0   1_554     S
V22     V23    10.0   1_554     S
V22     V23    10.0   .     S
V23     V2    10.0   1_546     S
V23     V4    10.0   1_545     S
V23     V2    10.0   1_545     S
V23     V24    10.0   .     S
V23     V22    10.0   1_556     S
V24     V21    10.0   1_554     S
V24     V17    10.0   1_554     S
V24     V26    10.0   .     S
V25     V13    10.0   1_554     S
V25     V26    10.0   .     S
V25     V28    10.0   .     S
V25     V28    10.0   1_554     S
V25     V33    10.0   .     S
V26     V21    10.0   1_554     S
V26     V27    10.0   .     S
V26     V27    10.0   1_554     S
V26     V31    10.0   .     S
V27     V28    10.0   .     S
V27     V26    10.0   1_556     S
V27     V31    10.0   1_556     S
V27     V29    10.0   .     S
V27     V31    10.0   .     S
V28     V25    10.0   1_556     S
V28     V33    10.0   .     S
V28     V33    10.0   1_556     S
V28     V36    10.0   .     S
V29     V5    10.0   1_556     S
V29     V30    10.0   1_556     S
V29     V31    10.0   .     S
V29     V31    10.0   1_556     S
V30     V4    10.0   1_655     S
V30     V2    10.0   1_655     S
V30     V4    10.0   1_654     S
V30     V34    10.0   .     S
V30     V29    10.0   1_554     S
V30     V32    10.0   1_554     S
V30     V32    10.0   .     S
V31     V32    10.0   .     S
V31     V29    10.0   1_554     S
V31     V27    10.0   1_554     S
V32     V4    10.0   1_655     S
V32     V34    10.0   1_556     S
V32     V34    10.0   .     S
V32     V35    10.0   .     S
V32     V30    10.0   1_556     S
V33     V34    10.0   .     S
V33     V36    10.0   .     S
V33     V36    10.0   1_554     S
V33     V28    10.0   1_554     S
V34     V9    10.0   1_565     S
V34     V32    10.0   1_554     S
V34     V35    10.0   1_554     S
V34     V35    10.0   .     S
V35     V9    10.0   1_565     S
V35     V11    10.0   1_565     S
V35     V9    10.0   1_566     S
V35     V36    10.0   .     S
V35     V34    10.0   1_556     S
V36     V20    10.0   1_556     S
V36     V33    10.0   1_556     S
