data_wnx
_audit_creation_date              2020-02-04
_audit_creation_method            'Pymatgen'
_symmetry_space_group_name_H-M    'P1'
_symmetry_Int_Tables_number       1
loop_
_symmetry_equiv_pos_as_xyz
  x,y,z
_cell_length_a                    32.6677
_cell_length_b                    32.6677
_cell_length_c                    36.0679
_cell_angle_alpha                 90.0
_cell_angle_beta                 90.0
_cell_angle_gamma                 120.0
loop_
_atom_site_label
_atom_site_type_symbol
_atom_site_fract_x
_atom_site_fract_y
_atom_site_fract_z
V1     V     0.5226   0.6952   0.2799
V2     V     0.6952   0.5226   0.2201
V3     V     0.6382   0.1441   0.4465
V4     V     0.8107   0.9715   0.3868
V5     V     0.1441   0.6382   0.0535
V6     V     0.9715   0.8107   0.1132
V7     V     0.3048   0.4774   0.7799
V8     V     0.4774   0.3048   0.7201
V9     V     0.0285   0.1893   0.8868
V10     V     0.8559   0.3618   0.9465
V11     V     0.1893   0.0285   0.6132
V12     V     0.3618   0.8559   0.5535
V13     V     0.6382   0.4941   0.9465
V14     V     0.8107   0.8392   0.8868
V15     V     0.1893   0.1608   0.1132
V16     V     0.3618   0.5059   0.0535
V17     V     0.0285   0.8392   0.3868
V18     V     0.8559   0.4941   0.4465
V19     V     0.3048   0.8274   0.2799
V20     V     0.4774   0.1726   0.2201
V21     V     0.9715   0.1608   0.6132
V22     V     0.1441   0.5059   0.5535
V23     V     0.5226   0.8274   0.7799
V24     V     0.6952   0.1726   0.7201
V25     V     0.4941   0.6382   0.5535
V26     V     0.8392   0.8107   0.6132
V27     V     0.1726   0.4774   0.2799
V28     V     0.8274   0.3048   0.2201
V29     V     0.1608   0.1893   0.3868
V30     V     0.5059   0.3618   0.4465
V31     V     0.1726   0.6952   0.7799
V32     V     0.8274   0.5226   0.7201
V33     V     0.4941   0.8559   0.0535
V34     V     0.8392   0.0285   0.1132
V35     V     0.5059   0.1441   0.9465
V36     V     0.1608   0.9715   0.8868
loop_
_geom_bond_atom_site_label_1
_geom_bond_atom_site_label_2
_geom_bond_distance
_geom_bond_site_symmetry_2
_ccdc_geom_bond_type
V1     V27    10.0   .     S
V1     V33    10.0   .     S
V1     V19    10.0   .     S
V1     V16    10.0   .     S
V1     V4    10.0   .     S
V1     V2    10.0   .     S
V1     V25    10.0   .     S
V2     V20    10.0   .     S
V2     V18    10.0   .     S
V2     V28    10.0   .     S
V2     V30    10.0   .     S
V2     V6    10.0   .     S
V2     V13    10.0   1_554     S
V3     V20    10.0   .     S
V3     V30    10.0   .     S
V3     V18    10.0   .     S
V3     V28    10.0   .     S
V3     V4    10.0   1_545     S
V3     V12    10.0   1_545     S
V3     V24    10.0   .     S
V4     V21    10.0   1_565     S
V4     V29    10.0   1_665     S
V4     V26    10.0   .     S
V4     V17    10.0   1_655     S
V4     V3    10.0   1_565     S
V4     V34    10.0   1_565     S
V5     V27    10.0   .     S
V5     V16    10.0   .     S
V5     V19    10.0   .     S
V5     V33    10.0   .     S
V5     V10    10.0   1_454     S
V5     V6    10.0   1_455     S
V5     V31    10.0   1_554     S
V6     V14    10.0   1_554     S
V6     V34    10.0   1_565     S
V6     V36    10.0   1_654     S
V6     V15    10.0   1_665     S
V6     V5    10.0   1_655     S
V6     V17    10.0   1_655     S
V7     V23    10.0   .     S
V7     V25    10.0   .     S
V7     V22    10.0   .     S
V7     V31    10.0   .     S
V7     V8    10.0   .     S
V7     V9    10.0   .     S
V7     V16    10.0   1_556     S
V8     V32    10.0   .     S
V8     V13    10.0   .     S
V8     V35    10.0   .     S
V8     V24    10.0   .     S
V8     V11    10.0   .     S
V8     V30    10.0   .     S
V9     V15    10.0   1_556     S
V9     V36    10.0   1_545     S
V9     V14    10.0   1_445     S
V9     V34    10.0   1_456     S
V9     V10    10.0   1_455     S
V9     V21    10.0   1_455     S
V10     V24    10.0   .     S
V10     V32    10.0   .     S
V10     V13    10.0   .     S
V10     V35    10.0   .     S
V10     V5    10.0   1_656     S
V10     V9    10.0   1_655     S
V10     V28    10.0   1_556     S
V11     V29    10.0   .     S
V11     V21    10.0   1_455     S
V11     V26    10.0   1_445     S
V11     V17    10.0   1_545     S
V11     V12    10.0   1_545     S
V11     V36    10.0   1_545     S
V12     V31    10.0   .     S
V12     V23    10.0   .     S
V12     V25    10.0   .     S
V12     V22    10.0   .     S
V12     V3    10.0   1_565     S
V12     V11    10.0   1_565     S
V12     V19    10.0   .     S
V13     V32    10.0   .     S
V13     V35    10.0   .     S
V13     V14    10.0   .     S
V13     V16    10.0   1_556     S
V13     V2    10.0   1_556     S
V14     V6    10.0   1_556     S
V14     V36    10.0   1_655     S
V14     V34    10.0   1_566     S
V14     V9    10.0   1_665     S
V14     V23    10.0   .     S
V14     V26    10.0   .     S
V15     V36    10.0   1_544     S
V15     V6    10.0   1_445     S
V15     V9    10.0   1_554     S
V15     V34    10.0   1_455     S
V15     V16    10.0   .     S
V15     V20    10.0   .     S
V15     V29    10.0   .     S
V16     V27    10.0   .     S
V16     V33    10.0   .     S
V16     V13    10.0   1_554     S
V16     V7    10.0   1_554     S
V17     V26    10.0   1_455     S
V17     V4    10.0   1_455     S
V17     V11    10.0   1_565     S
V17     V29    10.0   1_565     S
V17     V18    10.0   1_455     S
V17     V19    10.0   .     S
V17     V6    10.0   1_455     S
V18     V28    10.0   .     S
V18     V30    10.0   .     S
V18     V17    10.0   1_655     S
V18     V22    10.0   1_655     S
V18     V32    10.0   .     S
V19     V27    10.0   .     S
V19     V33    10.0   .     S
V19     V20    10.0   1_565     S
V20     V30    10.0   .     S
V20     V28    10.0   .     S
V20     V19    10.0   1_545     S
V20     V35    10.0   1_554     S
V21     V11    10.0   1_655     S
V21     V4    10.0   1_545     S
V21     V26    10.0   1_545     S
V21     V29    10.0   1_655     S
V21     V22    10.0   1_655     S
V21     V24    10.0   .     S
V21     V9    10.0   1_655     S
V22     V25    10.0   .     S
V22     V31    10.0   .     S
V22     V18    10.0   1_455     S
V22     V21    10.0   1_455     S
V22     V27    10.0   .     S
V23     V31    10.0   .     S
V23     V25    10.0   .     S
V23     V24    10.0   1_565     S
V23     V33    10.0   1_556     S
V24     V32    10.0   .     S
V24     V35    10.0   .     S
V24     V23    10.0   1_545     S
V25     V30    10.0   .     S
V25     V26    10.0   .     S
V26     V21    10.0   1_565     S
V26     V17    10.0   1_655     S
V26     V11    10.0   1_665     S
V26     V32    10.0   .     S
V27     V28    10.0   1_455     S
V27     V29    10.0   .     S
V28     V10    10.0   1_554     S
V28     V27    10.0   1_655     S
V28     V34    10.0   .     S
V29     V21    10.0   1_455     S
V29     V4    10.0   1_445     S
V29     V17    10.0   1_545     S
V29     V30    10.0   .     S
V31     V5    10.0   1_556     S
V31     V32    10.0   1_455     S
V31     V36    10.0   .     S
V32     V31    10.0   1_655     S
V33     V34    10.0   1_565     S
V33     V35    10.0   1_564     S
V33     V23    10.0   1_554     S
V34     V6    10.0   1_545     S
V34     V14    10.0   1_544     S
V34     V9    10.0   1_654     S
V34     V15    10.0   1_655     S
V34     V33    10.0   1_545     S
V34     V4    10.0   1_545     S
V35     V33    10.0   1_546     S
V35     V36    10.0   1_545     S
V35     V20    10.0   1_556     S
V36     V6    10.0   1_456     S
V36     V14    10.0   1_455     S
V36     V15    10.0   1_566     S
V36     V9    10.0   1_565     S
V36     V35    10.0   1_565     S
V36     V11    10.0   1_565     S
