data_wpa
_audit_creation_date              2020-02-04
_audit_creation_method            'Pymatgen'
_symmetry_space_group_name_H-M    'P1'
_symmetry_Int_Tables_number       1
loop_
_symmetry_equiv_pos_as_xyz
  x,y,z
_cell_length_a                    77.2491
_cell_length_b                    77.2491
_cell_length_c                    77.2491
_cell_angle_alpha                 90.0
_cell_angle_beta                 90.0
_cell_angle_gamma                 90.0
loop_
_atom_site_label
_atom_site_type_symbol
_atom_site_fract_x
_atom_site_fract_y
_atom_site_fract_z
Er1     Er     0.0647   0.4353   0.9353
V2     V     0.3102   0.4018   0.9353
V3     V     0.1898   0.4353   0.9018
V4     V     0.4018   0.3102   0.9353
V5     V     0.4353   0.1898   0.9018
Er6     Er     0.4353   0.4353   0.9353
Er7     Er     0.4353   0.0647   0.9353
V8     V     0.4018   0.0647   0.6898
V9     V     0.4353   0.0982   0.8102
V10     V     0.0647   0.4018   0.6898
V11     V     0.0982   0.4353   0.8102
Er12     Er     0.4353   0.0647   0.5647
Er13     Er     0.0647   0.4353   0.5647
V14     V     0.1898   0.0982   0.5647
V15     V     0.3102   0.0647   0.5982
V16     V     0.0647   0.3102   0.5982
V17     V     0.0982   0.1898   0.5647
Er18     Er     0.0647   0.0647   0.5647
Er19     Er     0.4353   0.9353   0.9353
V20     V     0.4018   0.9353   0.6898
V21     V     0.4353   0.9018   0.8102
Er22     Er     0.4353   0.9353   0.5647
V23     V     0.1898   0.9018   0.5647
V24     V     0.3102   0.9353   0.5982
Er25     Er     0.0647   0.9353   0.5647
V26     V     0.0647   0.6898   0.5982
V27     V     0.0982   0.8102   0.5647
Er28     Er     0.0647   0.5647   0.5647
V29     V     0.0647   0.5982   0.6898
V30     V     0.0982   0.5647   0.8102
V31     V     0.4018   0.6898   0.9353
V32     V     0.4353   0.8102   0.9018
Er33     Er     0.0647   0.5647   0.9353
V34     V     0.3102   0.5982   0.9353
V35     V     0.1898   0.5647   0.9018
Er36     Er     0.4353   0.5647   0.9353
Er37     Er     0.9353   0.4353   0.9353
V38     V     0.9353   0.4018   0.6898
V39     V     0.9018   0.4353   0.8102
Er40     Er     0.9353   0.4353   0.5647
V41     V     0.9018   0.1898   0.5647
V42     V     0.9353   0.3102   0.5982
Er43     Er     0.9353   0.0647   0.5647
V44     V     0.6898   0.0647   0.5982
V45     V     0.8102   0.0982   0.5647
Er46     Er     0.5647   0.0647   0.5647
V47     V     0.5982   0.0647   0.6898
V48     V     0.5647   0.0982   0.8102
V49     V     0.6898   0.4018   0.9353
V50     V     0.8102   0.4353   0.9018
Er51     Er     0.5647   0.0647   0.9353
V52     V     0.5982   0.3102   0.9353
V53     V     0.5647   0.1898   0.9018
Er54     Er     0.5647   0.4353   0.9353
Er55     Er     0.9353   0.9353   0.5647
V56     V     0.6898   0.9353   0.5982
V57     V     0.8102   0.9018   0.5647
V58     V     0.5982   0.9353   0.6898
V59     V     0.5647   0.9018   0.8102
Er60     Er     0.5647   0.9353   0.5647
Er61     Er     0.5647   0.9353   0.9353
V62     V     0.5982   0.6898   0.9353
V63     V     0.5647   0.8102   0.9018
V64     V     0.6898   0.5982   0.9353
V65     V     0.8102   0.5647   0.9018
Er66     Er     0.5647   0.5647   0.9353
Er67     Er     0.9353   0.5647   0.9353
V68     V     0.9353   0.6898   0.5982
V69     V     0.9018   0.8102   0.5647
V70     V     0.9353   0.5982   0.6898
V71     V     0.9018   0.5647   0.8102
Er72     Er     0.9353   0.5647   0.5647
Er73     Er     0.9353   0.4353   0.0647
Er74     Er     0.9353   0.0647   0.4353
V75     V     0.9353   0.4018   0.3102
V76     V     0.9018   0.4353   0.1898
V77     V     0.9353   0.3102   0.4018
V78     V     0.9018   0.1898   0.4353
Er79     Er     0.9353   0.4353   0.4353
V80     V     0.6898   0.4018   0.0647
V81     V     0.8102   0.4353   0.0982
V82     V     0.6898   0.0647   0.4018
V83     V     0.8102   0.0982   0.4353
Er84     Er     0.5647   0.0647   0.4353
Er85     Er     0.5647   0.4353   0.0647
V86     V     0.5647   0.0982   0.1898
V87     V     0.5982   0.0647   0.3102
V88     V     0.5982   0.3102   0.0647
V89     V     0.5647   0.1898   0.0982
Er90     Er     0.5647   0.0647   0.0647
Er91     Er     0.9353   0.9353   0.4353
V92     V     0.6898   0.9353   0.4018
V93     V     0.8102   0.9018   0.4353
Er94     Er     0.5647   0.9353   0.4353
V95     V     0.5982   0.9353   0.3102
V96     V     0.5647   0.9018   0.1898
Er97     Er     0.5647   0.9353   0.0647
V98     V     0.9353   0.6898   0.4018
V99     V     0.9018   0.8102   0.4353
Er100     Er     0.9353   0.5647   0.4353
V101     V     0.9353   0.5982   0.3102
V102     V     0.9018   0.5647   0.1898
Er103     Er     0.9353   0.5647   0.0647
V104     V     0.5982   0.6898   0.0647
V105     V     0.5647   0.8102   0.0982
V106     V     0.6898   0.5982   0.0647
V107     V     0.8102   0.5647   0.0982
Er108     Er     0.5647   0.5647   0.0647
Er109     Er     0.0647   0.9353   0.4353
Er110     Er     0.4353   0.9353   0.0647
V111     V     0.3102   0.9353   0.4018
V112     V     0.1898   0.9018   0.4353
V113     V     0.4018   0.9353   0.3102
V114     V     0.4353   0.9018   0.1898
Er115     Er     0.4353   0.9353   0.4353
V116     V     0.0647   0.6898   0.4018
V117     V     0.0982   0.8102   0.4353
V118     V     0.4018   0.6898   0.0647
V119     V     0.4353   0.8102   0.0982
Er120     Er     0.0647   0.5647   0.4353
Er121     Er     0.4353   0.5647   0.0647
V122     V     0.0982   0.5647   0.1898
V123     V     0.0647   0.5982   0.3102
V124     V     0.3102   0.5982   0.0647
V125     V     0.1898   0.5647   0.0982
Er126     Er     0.0647   0.5647   0.0647
Er127     Er     0.4353   0.0647   0.4353
V128     V     0.4018   0.0647   0.3102
V129     V     0.4353   0.0982   0.1898
V130     V     0.4018   0.3102   0.0647
V131     V     0.4353   0.1898   0.0982
Er132     Er     0.4353   0.4353   0.0647
V133     V     0.3102   0.4018   0.0647
V134     V     0.1898   0.4353   0.0982
V135     V     0.0647   0.4018   0.3102
V136     V     0.0982   0.4353   0.1898
Er137     Er     0.0647   0.4353   0.4353
V138     V     0.3102   0.0647   0.4018
V139     V     0.1898   0.0982   0.4353
V140     V     0.0647   0.3102   0.4018
V141     V     0.0982   0.1898   0.4353
Er142     Er     0.0647   0.0647   0.4353
Er143     Er     0.0647   0.4353   0.0647
Er144     Er     0.4353   0.0647   0.0647
loop_
_geom_bond_atom_site_label_1
_geom_bond_atom_site_label_2
_geom_bond_distance
_geom_bond_site_symmetry_2
_ccdc_geom_bond_type
Er1     V3    10.0   .     S
Er1     V11    10.0   .     S
Er1     Er37    10.001   1_455     S
Er1     Er143    10.001   1_556     S
Er1     Er33    10.001   .     S
V2     V3    9.999   .     S
V2     Er6    10.0   .     S
V2     V4    10.0   .     S
V2     V133    10.001   1_556     S
V3     V11    10.0   .     S
V3     V35    10.001   .     S
V4     V5    9.999   .     S
V4     Er6    10.0   .     S
V4     V130    10.001   1_556     S
V5     Er7    10.0   .     S
V5     V9    10.0   .     S
V5     V53    10.001   .     S
Er6     Er36    10.001   .     S
Er6     Er54    10.001   .     S
Er6     Er132    10.001   1_556     S
Er7     V9    10.0   .     S
Er7     Er19    10.001   1_545     S
Er7     Er144    10.001   1_556     S
Er7     Er51    10.001   .     S
V8     V9    9.999   .     S
V8     Er12    10.0   .     S
V8     V15    10.0   .     S
V8     V20    10.001   1_545     S
V9     V48    10.001   .     S
V10     V11    9.999   .     S
V10     Er13    10.0   .     S
V10     V16    10.0   .     S
V10     V38    10.001   1_455     S
V11     V30    10.001   .     S
Er12     V15    10.0   .     S
Er12     Er127    10.001   .     S
Er12     Er46    10.001   .     S
Er12     Er22    10.001   1_545     S
Er13     V16    10.0   .     S
Er13     Er137    10.001   .     S
Er13     Er28    10.001   .     S
Er13     Er40    10.001   1_455     S
V14     V15    9.999   .     S
V14     V17    10.0   .     S
V14     Er18    10.0   .     S
V14     V139    10.001   .     S
V15     V24    10.001   1_545     S
V16     V17    9.999   .     S
V16     V42    10.001   1_455     S
V17     Er18    10.0   .     S
V17     V141    10.001   .     S
Er18     Er43    10.001   1_455     S
Er18     Er25    10.001   1_545     S
Er18     Er142    10.001   .     S
Er19     V21    10.0   .     S
Er19     V32    10.0   .     S
Er19     Er110    10.001   1_556     S
Er19     Er7    10.001   1_565     S
Er19     Er61    10.001   .     S
V20     V21    9.999   .     S
V20     Er22    10.0   .     S
V20     V24    10.0   .     S
V20     V8    10.001   1_565     S
V21     V32    10.0   .     S
V21     V59    10.001   .     S
Er22     V24    10.0   .     S
Er22     Er115    10.001   .     S
Er22     Er60    10.001   .     S
Er22     Er12    10.001   1_565     S
V23     V24    9.999   .     S
V23     Er25    10.0   .     S
V23     V27    10.0   .     S
V23     V112    10.001   .     S
V24     V15    10.001   1_565     S
Er25     V27    10.0   .     S
Er25     Er55    10.001   1_455     S
Er25     Er18    10.001   1_565     S
Er25     Er109    10.001   .     S
V26     V27    9.999   .     S
V26     Er28    10.0   .     S
V26     V29    10.0   .     S
V26     V68    10.001   1_455     S
V27     V117    10.001   .     S
Er28     V29    10.0   .     S
Er28     Er120    10.001   .     S
Er28     Er72    10.001   1_455     S
V29     V30    9.999   .     S
V29     V70    10.001   1_455     S
V30     V35    10.0   .     S
V30     Er33    10.0   .     S
V31     V32    9.999   .     S
V31     Er36    10.0   .     S
V31     V34    10.0   .     S
V31     V118    10.001   1_556     S
V32     V63    10.001   .     S
Er33     V35    10.0   .     S
Er33     Er67    10.001   1_455     S
Er33     Er126    10.001   1_556     S
V34     V35    9.999   .     S
V34     Er36    10.0   .     S
V34     V124    10.001   1_556     S
Er36     Er66    10.001   .     S
Er36     Er121    10.001   1_556     S
Er37     V50    10.0   .     S
Er37     V39    10.0   .     S
Er37     Er73    10.001   1_556     S
Er37     Er1    10.001   1_655     S
Er37     Er67    10.001   .     S
V38     V39    9.999   .     S
V38     Er40    10.0   .     S
V38     V42    10.0   .     S
V38     V10    10.001   1_655     S
V39     V50    10.0   .     S
V39     V71    10.001   .     S
Er40     V42    10.0   .     S
Er40     Er79    10.001   .     S
Er40     Er72    10.001   .     S
Er40     Er13    10.001   1_655     S
V41     V42    9.999   .     S
V41     Er43    10.0   .     S
V41     V45    10.0   .     S
V41     V78    10.001   .     S
V42     V16    10.001   1_655     S
Er43     V45    10.0   .     S
Er43     Er55    10.001   1_545     S
Er43     Er18    10.001   1_655     S
Er43     Er74    10.001   .     S
V44     V45    9.999   .     S
V44     Er46    10.0   .     S
V44     V47    10.0   .     S
V44     V56    10.001   1_545     S
V45     V83    10.001   .     S
Er46     V47    10.0   .     S
Er46     Er84    10.001   .     S
Er46     Er60    10.001   1_545     S
V47     V48    9.999   .     S
V47     V58    10.001   1_545     S
V48     V53    10.0   .     S
V48     Er51    10.0   .     S
V49     V50    9.999   .     S
V49     Er54    10.0   .     S
V49     V52    10.0   .     S
V49     V80    10.001   1_556     S
V50     V65    10.001   .     S
Er51     V53    10.0   .     S
Er51     Er61    10.001   1_545     S
Er51     Er90    10.001   1_556     S
V52     V53    9.999   .     S
V52     Er54    10.0   .     S
V52     V88    10.001   1_556     S
Er54     Er66    10.001   .     S
Er54     Er85    10.001   1_556     S
Er55     V57    10.0   .     S
Er55     V69    10.0   .     S
Er55     Er43    10.001   1_565     S
Er55     Er25    10.001   1_655     S
Er55     Er91    10.001   .     S
V56     V57    9.999   .     S
V56     Er60    10.0   .     S
V56     V58    10.0   .     S
V56     V44    10.001   1_565     S
V57     V69    10.0   .     S
V57     V93    10.001   .     S
V58     V59    9.999   .     S
V58     Er60    10.0   .     S
V58     V47    10.001   1_565     S
V59     Er61    10.0   .     S
V59     V63    10.0   .     S
Er60     Er94    10.001   .     S
Er60     Er46    10.001   1_565     S
Er61     V63    10.0   .     S
Er61     Er97    10.001   1_556     S
Er61     Er51    10.001   1_565     S
V62     V63    9.999   .     S
V62     Er66    10.0   .     S
V62     V64    10.0   .     S
V62     V104    10.001   1_556     S
V64     V65    9.999   .     S
V64     Er66    10.0   .     S
V64     V106    10.001   1_556     S
V65     Er67    10.0   .     S
V65     V71    10.0   .     S
Er66     Er108    10.001   1_556     S
Er67     V71    10.0   .     S
Er67     Er103    10.001   1_556     S
Er67     Er33    10.001   1_655     S
V68     V69    9.999   .     S
V68     Er72    10.0   .     S
V68     V70    10.0   .     S
V68     V26    10.001   1_655     S
V69     V99    10.001   .     S
V70     V71    9.999   .     S
V70     Er72    10.0   .     S
V70     V29    10.001   1_655     S
Er72     Er100    10.001   .     S
Er72     Er28    10.001   1_655     S
Er73     V76    10.0   .     S
Er73     V81    10.0   .     S
Er73     Er143    10.001   1_655     S
Er73     Er37    10.001   1_554     S
Er73     Er103    10.001   .     S
Er74     V83    10.0   .     S
Er74     V78    10.0   .     S
Er74     Er91    10.001   1_545     S
Er74     Er142    10.001   1_655     S
V75     V76    9.999   .     S
V75     Er79    10.0   .     S
V75     V77    10.0   .     S
V75     V135    10.001   1_655     S
V76     V81    10.0   .     S
V76     V102    10.001   .     S
V77     V78    9.999   .     S
V77     Er79    10.0   .     S
V77     V140    10.001   1_655     S
V78     V83    10.0   .     S
Er79     Er100    10.001   .     S
Er79     Er137    10.001   1_655     S
V80     V81    9.999   .     S
V80     Er85    10.0   .     S
V80     V88    10.0   .     S
V80     V49    10.001   1_554     S
V81     V107    10.001   .     S
V82     V83    9.999   .     S
V82     Er84    10.0   .     S
V82     V87    10.0   .     S
V82     V92    10.001   1_545     S
Er84     V87    10.0   .     S
Er84     Er127    10.001   .     S
Er84     Er94    10.001   1_545     S
Er85     V88    10.0   .     S
Er85     Er108    10.001   .     S
Er85     Er132    10.001   .     S
Er85     Er54    10.001   1_554     S
V86     V87    9.999   .     S
V86     V89    10.0   .     S
V86     Er90    10.0   .     S
V86     V129    10.001   .     S
V87     V95    10.001   1_545     S
V88     V89    9.999   .     S
V88     V52    10.001   1_554     S
V89     Er90    10.0   .     S
V89     V131    10.001   .     S
Er90     Er97    10.001   1_545     S
Er90     Er51    10.001   1_554     S
Er90     Er144    10.001   .     S
Er91     V99    10.0   .     S
Er91     V93    10.0   .     S
Er91     Er74    10.001   1_565     S
Er91     Er109    10.001   1_655     S
V92     V93    9.999   .     S
V92     Er94    10.0   .     S
V92     V95    10.0   .     S
V92     V82    10.001   1_565     S
V93     V99    10.0   .     S
Er94     V95    10.0   .     S
Er94     Er115    10.001   .     S
Er94     Er84    10.001   1_565     S
V95     V96    9.999   .     S
V95     V87    10.001   1_565     S
V96     Er97    10.0   .     S
V96     V105    10.0   .     S
V96     V114    10.001   .     S
Er97     V105    10.0   .     S
Er97     Er90    10.001   1_565     S
Er97     Er61    10.001   1_554     S
Er97     Er110    10.001   .     S
V98     V99    9.999   .     S
V98     Er100    10.0   .     S
V98     V101    10.0   .     S
V98     V116    10.001   1_655     S
Er100     V101    10.0   .     S
Er100     Er120    10.001   1_655     S
V101     V102    9.999   .     S
V101     V123    10.001   1_655     S
V102     Er103    10.0   .     S
V102     V107    10.0   .     S
Er103     V107    10.0   .     S
Er103     Er126    10.001   1_655     S
Er103     Er67    10.001   1_554     S
V104     V105    9.999   .     S
V104     Er108    10.0   .     S
V104     V106    10.0   .     S
V104     V62    10.001   1_554     S
V105     V119    10.001   .     S
V106     V107    9.999   .     S
V106     Er108    10.0   .     S
V106     V64    10.001   1_554     S
Er108     Er121    10.001   .     S
Er108     Er66    10.001   1_554     S
Er109     V112    10.0   .     S
Er109     V117    10.0   .     S
Er109     Er142    10.001   1_565     S
Er109     Er91    10.001   1_455     S
Er110     V119    10.0   .     S
Er110     V114    10.0   .     S
Er110     Er144    10.001   1_565     S
Er110     Er19    10.001   1_554     S
V111     V112    9.999   .     S
V111     Er115    10.0   .     S
V111     V113    10.0   .     S
V111     V138    10.001   1_565     S
V112     V117    10.0   .     S
V113     V114    9.999   .     S
V113     Er115    10.0   .     S
V113     V128    10.001   1_565     S
V114     V119    10.0   .     S
Er115     Er127    10.001   1_565     S
V116     V117    9.999   .     S
V116     Er120    10.0   .     S
V116     V123    10.0   .     S
V116     V98    10.001   1_455     S
V118     V119    9.999   .     S
V118     Er121    10.0   .     S
V118     V124    10.0   .     S
V118     V31    10.001   1_554     S
Er120     V123    10.0   .     S
Er120     Er137    10.001   .     S
Er120     Er100    10.001   1_455     S
Er121     V124    10.0   .     S
Er121     Er132    10.001   .     S
Er121     Er36    10.001   1_554     S
V122     V123    9.999   .     S
V122     V125    10.0   .     S
V122     Er126    10.0   .     S
V122     V136    10.001   .     S
V123     V101    10.001   1_455     S
V124     V125    9.999   .     S
V124     V34    10.001   1_554     S
V125     Er126    10.0   .     S
V125     V134    10.001   .     S
Er126     Er103    10.001   1_455     S
Er126     Er33    10.001   1_554     S
Er126     Er143    10.001   .     S
Er127     V128    10.0   .     S
Er127     V138    10.0   .     S
Er127     Er115    10.001   1_545     S
V128     V138    10.0   .     S
V128     V129    9.999   .     S
V128     V113    10.001   1_545     S
V129     V131    10.0   .     S
V129     Er144    10.0   .     S
V130     V131    9.999   .     S
V130     Er132    10.0   .     S
V130     V133    10.0   .     S
V130     V4    10.001   1_554     S
V131     Er144    10.0   .     S
Er132     V133    10.0   .     S
Er132     Er6    10.001   1_554     S
V133     V134    9.999   .     S
V133     V2    10.001   1_554     S
V134     V136    10.0   .     S
V134     Er143    10.0   .     S
V135     V136    9.999   .     S
V135     Er137    10.0   .     S
V135     V140    10.0   .     S
V135     V75    10.001   1_455     S
V136     Er143    10.0   .     S
Er137     V140    10.0   .     S
Er137     Er79    10.001   1_455     S
V138     V139    9.999   .     S
V138     V111    10.001   1_545     S
V139     V141    10.0   .     S
V139     Er142    10.0   .     S
V140     V141    9.999   .     S
V140     V77    10.001   1_455     S
V141     Er142    10.0   .     S
Er142     Er109    10.001   1_545     S
Er142     Er74    10.001   1_455     S
Er143     Er73    10.001   1_455     S
Er143     Er1    10.001   1_554     S
Er144     Er110    10.001   1_545     S
Er144     Er7    10.001   1_554     S
