data_wuy
_audit_creation_date              2020-02-04
_audit_creation_method            'Pymatgen'
_symmetry_space_group_name_H-M    'P1'
_symmetry_Int_Tables_number       1
loop_
_symmetry_equiv_pos_as_xyz
  x,y,z
_cell_length_a                    39.4159
_cell_length_b                    39.4159
_cell_length_c                    24.8233
_cell_angle_alpha                 90.0
_cell_angle_beta                 90.0
_cell_angle_gamma                 90.0
loop_
_atom_site_label
_atom_site_type_symbol
_atom_site_fract_x
_atom_site_fract_y
_atom_site_fract_z
V1     V     0.801   0.377   0.0625
V2     V     0.627   0.449   0.8125
V3     V     0.873   0.551   0.3125
V4     V     0.699   0.623   0.5625
V5     V     0.699   0.877   0.5625
V6     V     0.627   0.051   0.8125
V7     V     0.801   0.123   0.0625
V8     V     0.873   0.949   0.3125
V9     V     0.127   0.551   0.3125
V10     V     0.199   0.377   0.0625
V11     V     0.301   0.623   0.5625
V12     V     0.373   0.449   0.8125
V13     V     0.127   0.949   0.3125
V14     V     0.199   0.123   0.0625
V15     V     0.301   0.877   0.5625
V16     V     0.373   0.051   0.8125
V17     V     0.699   0.377   0.4375
V18     V     0.627   0.551   0.1875
V19     V     0.873   0.449   0.6875
V20     V     0.801   0.623   0.9375
V21     V     0.373   0.551   0.1875
V22     V     0.301   0.377   0.4375
V23     V     0.199   0.623   0.9375
V24     V     0.127   0.449   0.6875
V25     V     0.199   0.877   0.9375
V26     V     0.127   0.051   0.6875
V27     V     0.373   0.949   0.1875
V28     V     0.301   0.123   0.4375
V29     V     0.801   0.877   0.9375
V30     V     0.873   0.051   0.6875
V31     V     0.699   0.123   0.4375
V32     V     0.627   0.949   0.1875
loop_
_geom_bond_atom_site_label_1
_geom_bond_atom_site_label_2
_geom_bond_distance
_geom_bond_site_symmetry_2
_ccdc_geom_bond_type
V1     V19    10.138   1_554     S
V1     V17    10.139   .     S
V1     V2    9.675   1_554     S
V1     V3    9.675   .     S
V1     V7    10.011   .     S
V1     V20    10.181   1_554     S
V1     V18    10.182   .     S
V2     V17    10.138   .     S
V2     V18    10.139   1_556     S
V2     V1    9.675   1_556     S
V2     V4    9.675   .     S
V2     V12    10.011   .     S
V2     V19    10.181   .     S
V2     V20    10.182   .     S
V3     V20    10.138   1_554     S
V3     V19    10.139   .     S
V3     V4    9.675   .     S
V3     V9    10.011   1_655     S
V3     V18    10.181   .     S
V3     V17    10.182   .     S
V4     V18    10.138   .     S
V4     V20    10.139   .     S
V4     V5    10.011   .     S
V4     V19    10.182   .     S
V4     V17    10.181   .     S
V5     V32    10.138   .     S
V5     V29    10.139   .     S
V5     V8    9.675   .     S
V5     V6    9.675   1_565     S
V5     V31    10.181   1_565     S
V5     V30    10.182   1_565     S
V6     V31    10.138   .     S
V6     V32    10.139   1_546     S
V6     V5    9.675   1_545     S
V6     V7    9.675   1_556     S
V6     V16    10.011   .     S
V6     V30    10.181   .     S
V6     V29    10.182   1_545     S
V7     V30    10.138   1_554     S
V7     V31    10.139   .     S
V7     V6    9.675   1_554     S
V7     V8    9.675   1_545     S
V7     V29    10.181   1_544     S
V7     V32    10.182   1_545     S
V8     V29    10.138   1_554     S
V8     V30    10.139   1_565     S
V8     V7    9.675   1_565     S
V8     V13    10.011   1_655     S
V8     V31    10.182   1_565     S
V8     V32    10.181   .     S
V9     V23    10.138   1_554     S
V9     V24    10.139   .     S
V9     V10    9.675   .     S
V9     V11    9.675   .     S
V9     V3    10.011   1_455     S
V9     V21    10.181   .     S
V9     V22    10.182   .     S
V10     V24    10.138   1_554     S
V10     V22    10.139   .     S
V10     V12    9.675   1_554     S
V10     V14    10.011   .     S
V10     V23    10.181   1_554     S
V10     V21    10.182   .     S
V11     V21    10.138   .     S
V11     V23    10.139   .     S
V11     V12    9.675   .     S
V11     V15    10.011   .     S
V11     V22    10.181   .     S
V11     V24    10.182   .     S
V12     V22    10.138   .     S
V12     V21    10.139   1_556     S
V12     V10    9.675   1_556     S
V12     V24    10.181   .     S
V12     V23    10.182   .     S
V13     V25    10.138   1_554     S
V13     V26    10.139   1_565     S
V13     V14    9.675   1_565     S
V13     V15    9.675   .     S
V13     V8    10.011   1_455     S
V13     V28    10.182   1_565     S
V13     V27    10.181   .     S
V14     V26    10.138   1_554     S
V14     V28    10.139   .     S
V14     V13    9.675   1_545     S
V14     V16    9.675   1_554     S
V14     V25    10.181   1_544     S
V14     V27    10.182   1_545     S
V15     V27    10.138   .     S
V15     V25    10.139   .     S
V15     V16    9.675   1_565     S
V15     V28    10.181   1_565     S
V15     V26    10.182   1_565     S
V16     V28    10.138   .     S
V16     V27    10.139   1_546     S
V16     V14    9.675   1_556     S
V16     V15    9.675   1_545     S
V16     V26    10.181   .     S
V16     V25    10.182   1_545     S
V17     V19    9.675   .     S
V17     V18    9.675   .     S
V17     V31    10.011   .     S
V18     V2    10.139   1_554     S
V18     V20    9.675   1_554     S
V18     V21    10.011   .     S
V19     V1    10.138   1_556     S
V19     V20    9.675   .     S
V19     V24    10.011   1_655     S
V20     V3    10.138   1_556     S
V20     V18    9.675   1_556     S
V20     V29    10.011   .     S
V20     V1    10.181   1_556     S
V21     V12    10.139   1_554     S
V21     V22    9.675   .     S
V21     V23    9.675   1_554     S
V22     V24    9.675   .     S
V22     V28    10.011   .     S
V23     V9    10.138   1_556     S
V23     V21    9.675   1_556     S
V23     V24    9.675   .     S
V23     V25    10.011   .     S
V23     V10    10.181   1_556     S
V24     V10    10.138   1_556     S
V24     V19    10.011   1_455     S
V25     V13    10.138   1_556     S
V25     V27    9.675   1_556     S
V25     V26    9.675   1_565     S
V25     V16    10.182   1_565     S
V25     V14    10.181   1_566     S
V26     V14    10.138   1_556     S
V26     V13    10.139   1_545     S
V26     V25    9.675   1_545     S
V26     V28    9.675   .     S
V26     V30    10.011   1_455     S
V26     V15    10.182   1_545     S
V27     V16    10.139   1_564     S
V27     V25    9.675   1_554     S
V27     V28    9.675   1_565     S
V27     V32    10.011   .     S
V27     V14    10.182   1_565     S
V28     V27    9.675   1_545     S
V28     V15    10.181   1_545     S
V28     V13    10.182   1_545     S
V29     V8    10.138   1_556     S
V29     V32    9.675   1_556     S
V29     V30    9.675   1_565     S
V29     V7    10.181   1_566     S
V29     V6    10.182   1_565     S
V30     V7    10.138   1_556     S
V30     V8    10.139   1_545     S
V30     V29    9.675   1_545     S
V30     V31    9.675   .     S
V30     V26    10.011   1_655     S
V30     V5    10.182   1_545     S
V31     V32    9.675   1_545     S
V31     V5    10.181   1_545     S
V31     V8    10.182   1_545     S
V32     V6    10.139   1_564     S
V32     V29    9.675   1_554     S
V32     V31    9.675   1_565     S
V32     V7    10.182   1_565     S
