data_wxs
_audit_creation_date              2020-02-04
_audit_creation_method            'Pymatgen'
_symmetry_space_group_name_H-M    'P1'
_symmetry_Int_Tables_number       1
loop_
_symmetry_equiv_pos_as_xyz
  x,y,z
_cell_length_a                    50.0506
_cell_length_b                    50.0506
_cell_length_c                    24.1156
_cell_angle_alpha                 90.0
_cell_angle_beta                 90.0
_cell_angle_gamma                 90.0
loop_
_atom_site_label
_atom_site_type_symbol
_atom_site_fract_x
_atom_site_fract_y
_atom_site_fract_z
Ce1     Ce     0.0   0.5   0.5
Ti2     Ti     0.8641   0.1904   0.827
Ti3     Ti     0.8641   0.1904   0.173
V4     V     0.0396   0.2371   0.0
Er5     Er     0.777   0.277   0.5
Ti6     Ti     0.6904   0.3641   0.827
Ti7     Ti     0.6904   0.3641   0.173
V8     V     0.7371   0.5396   0.0
S9     S     0.0938   0.4062   0.19
S10     S     0.0938   0.4062   0.81
Ti11     Ti     0.1359   0.8096   0.827
Ti12     Ti     0.1359   0.8096   0.173
V13     V     0.9604   0.7629   0.0
Er14     Er     0.223   0.723   0.5
Ti15     Ti     0.3096   0.6359   0.173
Ti16     Ti     0.3096   0.6359   0.827
V17     V     0.2629   0.4604   0.0
S18     S     0.9062   0.5938   0.19
S19     S     0.9062   0.5938   0.81
Ce20     Ce     0.5   0.0   0.5
Ti21     Ti     0.8096   0.8641   0.827
Ti22     Ti     0.8096   0.8641   0.173
V23     V     0.7629   0.0396   0.0
Er24     Er     0.723   0.777   0.5
Ti25     Ti     0.6359   0.6904   0.173
Ti26     Ti     0.6359   0.6904   0.827
V27     V     0.4604   0.7371   0.0
S28     S     0.5938   0.0938   0.19
S29     S     0.5938   0.0938   0.81
Ti30     Ti     0.1904   0.1359   0.827
Ti31     Ti     0.1904   0.1359   0.173
V32     V     0.2371   0.9604   0.0
Er33     Er     0.277   0.223   0.5
Ti34     Ti     0.3641   0.3096   0.827
Ti35     Ti     0.3641   0.3096   0.173
V36     V     0.5396   0.2629   0.0
S37     S     0.4062   0.9062   0.19
S38     S     0.4062   0.9062   0.81
loop_
_geom_bond_atom_site_label_1
_geom_bond_atom_site_label_2
_geom_bond_distance
_geom_bond_site_symmetry_2
_ccdc_geom_bond_type
Ce1     S19    10.0   1_455     S
Ce1     S9    10.0   .     S
Ce1     S10    10.0   .     S
Ce1     S18    10.0   1_455     S
Ti2     V4    10.0   1_656     S
Ti2     Er5    10.0   .     S
Ti2     V23    10.0   1_556     S
Ti3     V4    10.0   1_655     S
Ti3     Er5    10.0   .     S
Ti3     V23    10.0   .     S
V4     Ti3    10.0   1_455     S
V4     Ti2    10.0   1_454     S
V4     Ti31    10.0   .     S
V4     Ti30    10.0   1_554     S
V4     S9    10.0   .     S
V4     S10    10.0   1_554     S
Er5     Ti6    10.0   .     S
Er5     Ti7    10.0   .     S
Ti6     V8    10.0   1_556     S
Ti6     V36    10.0   1_556     S
Ti7     V8    10.0   .     S
Ti7     V36    10.0   .     S
V8     Ti6    10.0   1_554     S
V8     Ti26    10.0   1_554     S
V8     Ti25    10.0   .     S
V8     S19    10.0   1_554     S
V8     S18    10.0   .     S
S9     V17    10.0   .     S
S10     V4    10.0   1_556     S
S10     V17    10.0   1_556     S
Ti11     V13    10.0   1_456     S
Ti11     Er14    10.0   .     S
Ti11     V32    10.0   1_556     S
Ti12     V13    10.0   1_455     S
Ti12     Er14    10.0   .     S
Ti12     V32    10.0   .     S
V13     Ti12    10.0   1_655     S
V13     Ti11    10.0   1_654     S
V13     Ti22    10.0   .     S
V13     Ti21    10.0   1_554     S
V13     S18    10.0   .     S
V13     S19    10.0   1_554     S
Er14     Ti16    10.0   .     S
Er14     Ti15    10.0   .     S
Ti15     V17    10.0   .     S
Ti15     V27    10.0   .     S
Ti16     V17    10.0   1_556     S
Ti16     V27    10.0   1_556     S
V17     Ti16    10.0   1_554     S
V17     Ti34    10.0   1_554     S
V17     Ti35    10.0   .     S
V17     S10    10.0   1_554     S
S18     Ce1    10.0   1_655     S
S19     Ce1    10.0   1_655     S
S19     V8    10.0   1_556     S
S19     V13    10.0   1_556     S
Ce20     S29    10.0   .     S
Ce20     S37    10.0   1_545     S
Ce20     S38    10.0   1_545     S
Ce20     S28    10.0   .     S
Ti21     V13    10.0   1_556     S
Ti21     V23    10.0   1_566     S
Ti21     Er24    10.0   .     S
Ti22     V23    10.0   1_565     S
Ti22     Er24    10.0   .     S
V23     Ti22    10.0   1_545     S
V23     Ti21    10.0   1_544     S
V23     Ti2    10.0   1_554     S
V23     S28    10.0   .     S
V23     S29    10.0   1_554     S
Er24     Ti26    10.0   .     S
Er24     Ti25    10.0   .     S
Ti25     V27    10.0   .     S
Ti26     V8    10.0   1_556     S
Ti26     V27    10.0   1_556     S
V27     Ti26    10.0   1_554     S
V27     Ti16    10.0   1_554     S
V27     S38    10.0   1_554     S
V27     S37    10.0   .     S
S28     V36    10.0   .     S
S29     V23    10.0   1_556     S
S29     V36    10.0   1_556     S
Ti30     V4    10.0   1_556     S
Ti30     V32    10.0   1_546     S
Ti30     Er33    10.0   .     S
Ti31     V32    10.0   1_545     S
Ti31     Er33    10.0   .     S
V32     Ti31    10.0   1_565     S
V32     Ti30    10.0   1_564     S
V32     Ti11    10.0   1_554     S
V32     S37    10.0   .     S
V32     S38    10.0   1_554     S
Er33     Ti34    10.0   .     S
Er33     Ti35    10.0   .     S
Ti34     V17    10.0   1_556     S
Ti34     V36    10.0   1_556     S
Ti35     V36    10.0   .     S
V36     Ti34    10.0   1_554     S
V36     Ti6    10.0   1_554     S
V36     S29    10.0   1_554     S
S37     Ce20    10.0   1_565     S
S38     Ce20    10.0   1_565     S
S38     V27    10.0   1_556     S
S38     V32    10.0   1_556     S
