data_xaba
_audit_creation_date              2020-02-04
_audit_creation_method            'Pymatgen'
_symmetry_space_group_name_H-M    'P1'
_symmetry_Int_Tables_number       1
loop_
_symmetry_equiv_pos_as_xyz
  x,y,z
_cell_length_a                    61.2103
_cell_length_b                    61.2103
_cell_length_c                    61.2103
_cell_angle_alpha                 90.0
_cell_angle_beta                 90.0
_cell_angle_gamma                 90.0
loop_
_atom_site_label
_atom_site_type_symbol
_atom_site_fract_x
_atom_site_fract_y
_atom_site_fract_z
Er1     Er     0.0268   0.6922   0.6922
V2     V     0.1683   0.75   0.75
Er3     Er     0.0268   0.8078   0.8078
Er4     Er     0.4732   0.8078   0.6922
Er5     Er     0.4732   0.6922   0.8078
V6     V     0.3317   0.75   0.75
Er7     Er     0.6922   0.0268   0.6922
V8     V     0.75   0.1683   0.75
Er9     Er     0.8078   0.0268   0.8078
Er10     Er     0.8078   0.4732   0.6922
Er11     Er     0.6922   0.4732   0.8078
V12     V     0.75   0.3317   0.75
Er13     Er     0.8078   0.8078   0.0268
Er14     Er     0.6922   0.6922   0.0268
V15     V     0.75   0.75   0.1683
Er16     Er     0.6922   0.8078   0.4732
Er17     Er     0.8078   0.6922   0.4732
V18     V     0.75   0.75   0.3317
Ti19     Ti     0.923   0.0385   0.923
Ti20     Ti     0.0385   0.923   0.923
Ti21     Ti     0.923   0.923   0.0385
Ti22     Ti     0.9615   0.077   0.077
Ti23     Ti     0.077   0.9615   0.077
Ti24     Ti     0.077   0.077   0.9615
Ti25     Ti     0.577   0.923   0.4615
Ti26     Ti     0.5385   0.077   0.423
Ti27     Ti     0.4615   0.923   0.577
Ti28     Ti     0.577   0.0385   0.577
Ti29     Ti     0.423   0.077   0.5385
Ti30     Ti     0.423   0.9615   0.423
Er31     Er     0.1922   0.9732   0.1922
Er32     Er     0.3078   0.9732   0.3078
V33     V     0.25   0.8317   0.25
Er34     Er     0.1922   0.5268   0.3078
Er35     Er     0.3078   0.5268   0.1922
V36     V     0.25   0.6683   0.25
Ti37     Ti     0.4615   0.577   0.923
Ti38     Ti     0.577   0.577   0.0385
Ti39     Ti     0.577   0.4615   0.923
Ti40     Ti     0.5385   0.423   0.077
Ti41     Ti     0.423   0.5385   0.077
Ti42     Ti     0.423   0.423   0.9615
Er43     Er     0.1922   0.1922   0.9732
Er44     Er     0.3078   0.3078   0.9732
V45     V     0.25   0.25   0.8317
Er46     Er     0.3078   0.1922   0.5268
Er47     Er     0.1922   0.3078   0.5268
V48     V     0.25   0.25   0.6683
Ti49     Ti     0.0385   0.577   0.577
Ti50     Ti     0.923   0.4615   0.577
Ti51     Ti     0.077   0.423   0.5385
Ti52     Ti     0.923   0.577   0.4615
Ti53     Ti     0.077   0.5385   0.423
Ti54     Ti     0.9615   0.423   0.423
Er55     Er     0.9732   0.1922   0.1922
Er56     Er     0.9732   0.3078   0.3078
V57     V     0.8317   0.25   0.25
Er58     Er     0.5268   0.3078   0.1922
Er59     Er     0.5268   0.1922   0.3078
V60     V     0.6683   0.25   0.25
loop_
_geom_bond_atom_site_label_1
_geom_bond_atom_site_label_2
_geom_bond_distance
_geom_bond_site_symmetry_2
_ccdc_geom_bond_type
Er1     Ti49    10.0   .     S
Er1     V2    10.0   .     S
Er1     Er3    10.0   .     S
V2     Er3    10.0   .     S
V2     V6    10.001   .     S
Er3     Ti20    10.0   .     S
Er4     Ti27    10.0   .     S
Er4     V6    10.0   .     S
Er4     Er5    10.0   .     S
Er5     Ti37    10.0   .     S
Er5     V6    10.0   .     S
Er7     Ti28    10.0   .     S
Er7     V8    10.0   .     S
Er7     Er9    10.0   .     S
V8     Er9    10.0   .     S
V8     V12    10.001   .     S
Er9     Ti19    10.0   .     S
Er10     Ti50    10.0   .     S
Er10     V12    10.0   .     S
Er10     Er11    10.0   .     S
Er11     Ti39    10.0   .     S
Er11     V12    10.0   .     S
Er13     Ti21    10.0   .     S
Er13     Er14    10.0   .     S
Er13     V15    10.0   .     S
Er14     Ti38    10.0   .     S
Er14     V15    10.0   .     S
V15     V18    10.001   .     S
Er16     Ti25    10.0   .     S
Er16     V18    10.0   .     S
Er16     Er17    10.0   .     S
Er17     Ti52    10.0   .     S
Er17     V18    10.0   .     S
Ti19     Ti20    10.0   1_645     S
Ti19     Ti24    9.999   1_655     S
Ti19     Ti21    10.0   1_546     S
Ti19     Ti22    9.999   1_556     S
Ti20     Ti21    10.0   1_456     S
Ti20     Ti23    9.999   1_556     S
Ti20     Ti19    10.0   1_465     S
Ti20     Ti24    9.999   1_565     S
Ti21     Ti20    10.0   1_654     S
Ti21     Ti23    9.999   1_655     S
Ti21     Ti19    10.0   1_564     S
Ti21     Ti22    9.999   1_565     S
Ti22     Ti21    9.999   1_545     S
Ti22     Ti19    9.999   1_554     S
Ti22     Ti24    10.0   1_654     S
Ti22     Ti23    10.0   1_645     S
Ti22     Er55    10.0   .     S
Ti23     Ti20    9.999   1_554     S
Ti23     Ti21    9.999   1_455     S
Ti23     Ti22    10.0   1_465     S
Ti23     Ti24    10.0   1_564     S
Ti23     Er31    10.0   .     S
Ti24     Ti20    9.999   1_545     S
Ti24     Ti19    9.999   1_455     S
Ti24     Ti22    10.0   1_456     S
Ti24     Ti23    10.0   1_546     S
Ti24     Er43    10.0   .     S
Ti25     Ti30    9.999   .     S
Ti25     Ti26    9.999   1_565     S
Ti25     Ti28    10.0   1_565     S
Ti25     Ti27    10.0   .     S
Ti26     Ti25    9.999   1_545     S
Ti26     Ti28    9.999   .     S
Ti26     Ti29    10.0   .     S
Ti26     Ti30    10.0   1_545     S
Ti26     Er59    10.0   .     S
Ti27     Ti28    10.0   1_565     S
Ti27     Ti29    9.999   1_565     S
Ti27     Ti30    9.999   .     S
Ti28     Ti25    10.0   1_545     S
Ti28     Ti27    10.0   1_545     S
Ti28     Ti29    9.999   .     S
Ti29     Ti27    9.999   1_545     S
Ti29     Ti30    10.0   1_545     S
Ti29     Er46    10.0   .     S
Ti30     Ti29    10.0   1_565     S
Ti30     Ti26    10.0   1_565     S
Ti30     Er32    10.0   .     S
Er31     V33    10.0   .     S
Er31     Er32    10.0   .     S
Er32     V33    10.0   .     S
V33     V36    10.001   .     S
Er34     Ti53    10.0   .     S
Er34     V36    10.0   .     S
Er34     Er35    10.0   .     S
Er35     Ti41    10.0   .     S
Er35     V36    10.0   .     S
Ti37     Ti42    9.999   .     S
Ti37     Ti41    9.999   1_556     S
Ti37     Ti39    10.0   .     S
Ti37     Ti38    10.0   1_556     S
Ti38     Ti39    10.0   1_554     S
Ti38     Ti40    9.999   .     S
Ti38     Ti41    9.999   .     S
Ti38     Ti37    10.0   1_554     S
Ti39     Ti38    10.0   1_556     S
Ti39     Ti42    9.999   .     S
Ti39     Ti40    9.999   1_556     S
Ti40     Ti39    9.999   1_554     S
Ti40     Ti41    10.0   .     S
Ti40     Ti42    10.0   1_554     S
Ti40     Er58    10.0   .     S
Ti41     Ti37    9.999   1_554     S
Ti41     Ti42    10.0   1_554     S
Ti42     Ti41    10.0   1_556     S
Ti42     Ti40    10.0   1_556     S
Ti42     Er44    10.0   .     S
Er43     V45    10.0   .     S
Er43     Er44    10.0   .     S
Er44     V45    10.0   .     S
V45     V48    10.001   .     S
Er46     V48    10.0   .     S
Er46     Er47    10.0   .     S
Er47     Ti51    10.0   .     S
Er47     V48    10.0   .     S
Ti49     Ti52    10.0   1_455     S
Ti49     Ti53    9.999   .     S
Ti49     Ti50    10.0   1_455     S
Ti49     Ti51    9.999   .     S
Ti50     Ti49    10.0   1_655     S
Ti50     Ti54    9.999   .     S
Ti50     Ti51    9.999   1_655     S
Ti50     Ti52    10.0   .     S
Ti51     Ti50    9.999   1_455     S
Ti51     Ti53    10.0   .     S
Ti51     Ti54    10.0   1_455     S
Ti52     Ti49    10.0   1_655     S
Ti52     Ti53    9.999   1_655     S
Ti52     Ti54    9.999   .     S
Ti53     Ti52    9.999   1_455     S
Ti53     Ti54    10.0   1_455     S
Ti54     Ti51    10.0   1_655     S
Ti54     Ti53    10.0   1_655     S
Ti54     Er56    10.0   .     S
Er55     V57    10.0   .     S
Er55     Er56    10.0   .     S
Er56     V57    10.0   .     S
V57     V60    10.001   .     S
Er58     V60    10.0   .     S
Er58     Er59    10.0   .     S
Er59     V60    10.0   .     S
