data_xada
_audit_creation_date              2020-02-04
_audit_creation_method            'Pymatgen'
_symmetry_space_group_name_H-M    'P1'
_symmetry_Int_Tables_number       1
loop_
_symmetry_equiv_pos_as_xyz
  x,y,z
_cell_length_a                    88.1454
_cell_length_b                    88.1454
_cell_length_c                    88.1454
_cell_angle_alpha                 90.0
_cell_angle_beta                 90.0
_cell_angle_gamma                 90.0
loop_
_atom_site_label
_atom_site_type_symbol
_atom_site_fract_x
_atom_site_fract_y
_atom_site_fract_z
Er1     Er     0.637   0.637   0.7171
Er2     Er     0.7171   0.637   0.637
Er3     Er     0.637   0.7171   0.637
Er4     Er     0.637   0.7171   0.363
Er5     Er     0.7171   0.637   0.363
Er6     Er     0.637   0.637   0.2829
V7     V     0.7171   0.4433   0.5567
V8     V     0.7171   0.4433   0.4433
V9     V     0.7171   0.5567   0.4433
V10     V     0.7171   0.5567   0.5567
Er11     Er     0.637   0.363   0.7171
Er12     Er     0.7171   0.363   0.637
Er13     Er     0.637   0.2829   0.637
V14     V     0.4433   0.7171   0.5567
V15     V     0.4433   0.7171   0.4433
V16     V     0.5567   0.7171   0.5567
V17     V     0.5567   0.7171   0.4433
V18     V     0.4433   0.4433   0.7171
V19     V     0.4433   0.5567   0.7171
V20     V     0.5567   0.5567   0.7171
V21     V     0.5567   0.4433   0.7171
Er22     Er     0.363   0.637   0.7171
Er23     Er     0.363   0.7171   0.637
Er24     Er     0.2829   0.637   0.637
Er25     Er     0.363   0.363   0.2829
Er26     Er     0.363   0.2829   0.363
Er27     Er     0.2829   0.363   0.363
Er28     Er     0.2829   0.363   0.637
Er29     Er     0.363   0.363   0.7171
Er30     Er     0.363   0.2829   0.637
V31     V     0.2829   0.5567   0.4433
V32     V     0.2829   0.5567   0.5567
V33     V     0.2829   0.4433   0.4433
V34     V     0.2829   0.4433   0.5567
Er35     Er     0.363   0.637   0.2829
Er36     Er     0.2829   0.637   0.363
Er37     Er     0.363   0.7171   0.363
V38     V     0.5567   0.2829   0.4433
V39     V     0.5567   0.2829   0.5567
V40     V     0.4433   0.2829   0.4433
V41     V     0.4433   0.2829   0.5567
V42     V     0.4433   0.4433   0.2829
V43     V     0.4433   0.5567   0.2829
V44     V     0.5567   0.5567   0.2829
V45     V     0.5567   0.4433   0.2829
Er46     Er     0.637   0.363   0.2829
Er47     Er     0.7171   0.363   0.363
Er48     Er     0.637   0.2829   0.363
Ti49     Ti     0.7172   0.7172   0.7172
Ti50     Ti     0.2828   0.7172   0.7172
Ti51     Ti     0.7172   0.2828   0.7172
Ti52     Ti     0.7172   0.7172   0.2828
Ti53     Ti     0.2828   0.2828   0.7172
Ti54     Ti     0.7172   0.2828   0.2828
Ti55     Ti     0.2828   0.7172   0.2828
Ti56     Ti     0.2828   0.2828   0.2828
Er57     Er     0.137   0.137   0.2171
Er58     Er     0.2171   0.137   0.137
Er59     Er     0.137   0.2171   0.137
Er60     Er     0.137   0.2171   0.863
Er61     Er     0.2171   0.137   0.863
Er62     Er     0.137   0.137   0.7829
V63     V     0.2171   0.0567   0.0567
V64     V     0.2171   0.0567   0.9433
V65     V     0.2171   0.9433   0.0567
V66     V     0.2171   0.9433   0.9433
Er67     Er     0.2171   0.863   0.863
Er68     Er     0.137   0.863   0.7829
Er69     Er     0.137   0.7829   0.863
V70     V     0.7829   0.0567   0.0567
V71     V     0.7829   0.0567   0.9433
V72     V     0.7829   0.9433   0.0567
V73     V     0.7829   0.9433   0.9433
V74     V     0.0567   0.7829   0.0567
V75     V     0.0567   0.7829   0.9433
V76     V     0.9433   0.7829   0.0567
V77     V     0.9433   0.7829   0.9433
Er78     Er     0.863   0.863   0.7829
Er79     Er     0.863   0.7829   0.863
Er80     Er     0.7829   0.863   0.863
V81     V     0.0567   0.9433   0.7829
V82     V     0.0567   0.0567   0.7829
V83     V     0.9433   0.0567   0.7829
V84     V     0.9433   0.9433   0.7829
Er85     Er     0.863   0.2171   0.863
Er86     Er     0.863   0.137   0.7829
Er87     Er     0.7829   0.137   0.863
V88     V     0.0567   0.2171   0.9433
V89     V     0.0567   0.2171   0.0567
V90     V     0.9433   0.2171   0.0567
V91     V     0.9433   0.2171   0.9433
Er92     Er     0.137   0.863   0.2171
Er93     Er     0.2171   0.863   0.137
Er94     Er     0.137   0.7829   0.137
Er95     Er     0.863   0.137   0.2171
Er96     Er     0.863   0.2171   0.137
Er97     Er     0.7829   0.137   0.137
Er98     Er     0.863   0.863   0.2171
Er99     Er     0.7829   0.863   0.137
Er100     Er     0.863   0.7829   0.137
V101     V     0.0567   0.9433   0.2171
V102     V     0.0567   0.0567   0.2171
V103     V     0.9433   0.0567   0.2171
V104     V     0.9433   0.9433   0.2171
Ti105     Ti     0.7828   0.7828   0.2172
Ti106     Ti     0.2172   0.7828   0.7828
Ti107     Ti     0.7828   0.2172   0.7828
Ti108     Ti     0.7828   0.7828   0.7828
Ti109     Ti     0.7828   0.2172   0.2172
Ti110     Ti     0.2172   0.7828   0.2172
Ti111     Ti     0.2172   0.2172   0.7828
Ti112     Ti     0.2172   0.2172   0.2172
loop_
_geom_bond_atom_site_label_1
_geom_bond_atom_site_label_2
_geom_bond_distance
_geom_bond_site_symmetry_2
_ccdc_geom_bond_type
Er1     Ti49    10.002   .     S
Er1     Er3    9.994   .     S
Er1     Er2    9.994   .     S
Er1     V20    10.002   .     S
Er2     Ti49    10.002   .     S
Er2     Er3    9.994   .     S
Er2     V10    10.002   .     S
Er3     Ti49    10.002   .     S
Er3     V16    10.002   .     S
Er4     Ti52    10.002   .     S
Er4     Er6    9.994   .     S
Er4     Er5    9.994   .     S
Er4     V17    10.002   .     S
Er5     Ti52    10.002   .     S
Er5     Er6    9.994   .     S
Er5     V9    10.002   .     S
Er6     Ti52    10.002   .     S
Er6     V44    10.002   .     S
V7     V8    9.999   .     S
V7     V10    9.999   .     S
V7     Er12    10.002   .     S
V8     V9    9.999   .     S
V8     Er47    10.002   .     S
V9     V10    9.999   .     S
Er11     Ti51    10.002   .     S
Er11     Er12    9.994   .     S
Er11     Er13    9.994   .     S
Er11     V21    10.002   .     S
Er12     Ti51    10.002   .     S
Er12     Er13    9.994   .     S
Er13     Ti51    10.002   .     S
Er13     V39    10.002   .     S
V14     V15    9.999   .     S
V14     V16    9.999   .     S
V14     Er23    10.002   .     S
V15     V17    9.999   .     S
V15     Er37    10.002   .     S
V16     V17    9.999   .     S
V18     V19    9.999   .     S
V18     V21    9.999   .     S
V18     Er29    10.002   .     S
V19     V20    9.999   .     S
V19     Er22    10.002   .     S
V20     V21    9.999   .     S
Er22     Ti50    10.002   .     S
Er22     Er24    9.994   .     S
Er22     Er23    9.994   .     S
Er23     Ti50    10.002   .     S
Er23     Er24    9.994   .     S
Er24     Ti50    10.002   .     S
Er24     V32    10.002   .     S
Er25     Ti56    10.002   .     S
Er25     Er27    9.994   .     S
Er25     Er26    9.994   .     S
Er25     V42    10.002   .     S
Er26     Ti56    10.002   .     S
Er26     Er27    9.994   .     S
Er26     V40    10.002   .     S
Er27     Ti56    10.002   .     S
Er27     V33    10.002   .     S
Er28     Ti53    10.002   .     S
Er28     Er29    9.994   .     S
Er28     Er30    9.994   .     S
Er28     V34    10.002   .     S
Er29     Ti53    10.002   .     S
Er29     Er30    9.994   .     S
Er30     Ti53    10.002   .     S
Er30     V41    10.002   .     S
V31     V32    9.999   .     S
V31     V33    9.999   .     S
V31     Er36    10.002   .     S
V32     V34    9.999   .     S
V33     V34    9.999   .     S
Er35     Ti55    10.002   .     S
Er35     Er37    9.994   .     S
Er35     Er36    9.994   .     S
Er35     V43    10.002   .     S
Er36     Ti55    10.002   .     S
Er36     Er37    9.994   .     S
Er37     Ti55    10.002   .     S
V38     V39    9.999   .     S
V38     V40    9.999   .     S
V38     Er48    10.002   .     S
V39     V41    9.999   .     S
V40     V41    9.999   .     S
V42     V43    9.999   .     S
V42     V45    9.999   .     S
V43     V44    9.999   .     S
V44     V45    9.999   .     S
V45     Er46    10.002   .     S
Er46     Ti54    10.002   .     S
Er46     Er47    9.994   .     S
Er46     Er48    9.994   .     S
Er47     Ti54    10.002   .     S
Er47     Er48    9.994   .     S
Er48     Ti54    10.002   .     S
Ti49     Ti108    10.015   .     S
Ti50     Ti106    10.015   .     S
Ti51     Ti107    10.015   .     S
Ti52     Ti105    10.015   .     S
Ti53     Ti111    10.015   .     S
Ti54     Ti109    10.015   .     S
Ti55     Ti110    10.015   .     S
Ti56     Ti112    10.015   .     S
Er57     Ti112    10.002   .     S
Er57     Er59    9.994   .     S
Er57     Er58    9.994   .     S
Er57     V102    10.002   .     S
Er58     Ti112    10.002   .     S
Er58     Er59    9.994   .     S
Er58     V63    10.002   .     S
Er59     Ti112    10.002   .     S
Er59     V89    10.002   .     S
Er60     Ti111    10.002   .     S
Er60     Er62    9.994   .     S
Er60     Er61    9.994   .     S
Er60     V88    10.002   .     S
Er61     Ti111    10.002   .     S
Er61     Er62    9.994   .     S
Er61     V64    10.002   .     S
Er62     Ti111    10.002   .     S
Er62     V82    10.002   .     S
V63     V64    9.999   1_554     S
V63     V65    9.999   1_545     S
V64     V63    9.999   1_556     S
V64     V66    9.999   1_545     S
V65     V63    9.999   1_565     S
V65     V66    9.999   1_554     S
V65     Er93    10.002   .     S
V66     V64    9.999   1_565     S
V66     V65    9.999   1_556     S
V66     Er67    10.002   .     S
Er67     Ti106    10.002   .     S
Er67     Er68    9.994   .     S
Er67     Er69    9.994   .     S
Er68     Ti106    10.002   .     S
Er68     Er69    9.994   .     S
Er68     V81    10.002   .     S
Er69     Ti106    10.002   .     S
Er69     V75    10.002   .     S
V70     V71    9.999   1_554     S
V70     V72    9.999   1_545     S
V70     Er97    10.002   .     S
V71     V70    9.999   1_556     S
V71     V73    9.999   1_545     S
V71     Er87    10.002   .     S
V72     V70    9.999   1_565     S
V72     V73    9.999   1_554     S
V72     Er99    10.002   .     S
V73     V71    9.999   1_565     S
V73     V72    9.999   1_556     S
V73     Er80    10.002   .     S
V74     V75    9.999   1_554     S
V74     V76    9.999   1_455     S
V74     Er94    10.002   .     S
V75     V74    9.999   1_556     S
V75     V77    9.999   1_455     S
V76     V74    9.999   1_655     S
V76     V77    9.999   1_554     S
V76     Er100    10.002   .     S
V77     V75    9.999   1_655     S
V77     V76    9.999   1_556     S
V77     Er79    10.002   .     S
Er78     Ti108    10.002   .     S
Er78     Er80    9.994   .     S
Er78     Er79    9.994   .     S
Er78     V84    10.002   .     S
Er79     Ti108    10.002   .     S
Er79     Er80    9.994   .     S
Er80     Ti108    10.002   .     S
V81     V84    9.999   1_455     S
V81     V82    9.999   1_565     S
V82     V83    9.999   1_455     S
V82     V81    9.999   1_545     S
V83     V82    9.999   1_655     S
V83     V84    9.999   1_545     S
V83     Er86    10.002   .     S
V84     V81    9.999   1_655     S
V84     V83    9.999   1_565     S
Er85     Ti107    10.002   .     S
Er85     Er86    9.994   .     S
Er85     Er87    9.994   .     S
Er85     V91    10.002   .     S
Er86     Ti107    10.002   .     S
Er86     Er87    9.994   .     S
Er87     Ti107    10.002   .     S
V88     V91    9.999   1_455     S
V88     V89    9.999   1_556     S
V89     V90    9.999   1_455     S
V89     V88    9.999   1_554     S
V90     V89    9.999   1_655     S
V90     V91    9.999   1_554     S
V90     Er96    10.002   .     S
V91     V88    9.999   1_655     S
V91     V90    9.999   1_556     S
Er92     Ti110    10.002   .     S
Er92     Er93    9.994   .     S
Er92     Er94    9.994   .     S
Er92     V101    10.002   .     S
Er93     Ti110    10.002   .     S
Er93     Er94    9.994   .     S
Er94     Ti110    10.002   .     S
Er95     Ti109    10.002   .     S
Er95     Er97    9.994   .     S
Er95     Er96    9.994   .     S
Er95     V103    10.002   .     S
Er96     Ti109    10.002   .     S
Er96     Er97    9.994   .     S
Er97     Ti109    10.002   .     S
Er98     Ti105    10.002   .     S
Er98     Er100    9.994   .     S
Er98     Er99    9.994   .     S
Er98     V104    10.002   .     S
Er99     Ti105    10.002   .     S
Er99     Er100    9.994   .     S
Er100     Ti105    10.002   .     S
V101     V104    9.999   1_455     S
V101     V102    9.999   1_565     S
V102     V101    9.999   1_545     S
V102     V103    9.999   1_455     S
V103     V102    9.999   1_655     S
V103     V104    9.999   1_545     S
V104     V101    9.999   1_655     S
V104     V103    9.999   1_565     S
