data_xaja
_audit_creation_date              2020-02-04
_audit_creation_method            'Pymatgen'
_symmetry_space_group_name_H-M    'P1'
_symmetry_Int_Tables_number       1
loop_
_symmetry_equiv_pos_as_xyz
  x,y,z
_cell_length_a                    62.7799
_cell_length_b                    62.7799
_cell_length_c                    62.7799
_cell_angle_alpha                 90.0
_cell_angle_beta                 90.0
_cell_angle_gamma                 90.0
loop_
_atom_site_label
_atom_site_type_symbol
_atom_site_fract_x
_atom_site_fract_y
_atom_site_fract_z
Er1     Er     0.3874   0.3874   0.5
Er2     Er     0.5   0.3874   0.3874
Er3     Er     0.3874   0.5   0.3874
Er4     Er     0.6126   0.3874   0.5
Er5     Er     0.6126   0.5   0.3874
Er6     Er     0.5   0.6126   0.3874
Er7     Er     0.3874   0.6126   0.5
Er8     Er     0.3874   0.5   0.6126
Er9     Er     0.5   0.3874   0.6126
Er10     Er     0.6126   0.6126   0.5
Er11     Er     0.5   0.6126   0.6126
Er12     Er     0.6126   0.5   0.6126
Ce13     Ce     0.2747   0.5   0.2747
Ti14     Ti     0.1209   0.5   0.2335
Ti15     Ti     0.2335   0.5   0.1209
Ce16     Ce     0.5   0.2747   0.2747
Ti17     Ti     0.5   0.1209   0.2335
Ti18     Ti     0.5   0.2335   0.1209
Ce19     Ce     0.2747   0.2747   0.5
Ti20     Ti     0.1209   0.2335   0.5
Ti21     Ti     0.2335   0.1209   0.5
Ce22     Ce     0.5   0.2747   0.7253
Ti23     Ti     0.5   0.2335   0.8791
Ti24     Ti     0.5   0.1209   0.7665
Ce25     Ce     0.2747   0.5   0.7253
Ti26     Ti     0.2335   0.5   0.8791
Ti27     Ti     0.1209   0.5   0.7665
V28     V     0.5   0.6126   0.9204
V29     V     0.5   0.6126   0.0796
V30     V     0.6126   0.5   0.9204
V31     V     0.6126   0.5   0.0796
V32     V     0.3874   0.5   0.0796
V33     V     0.3874   0.5   0.9204
V34     V     0.5   0.3874   0.9204
V35     V     0.5   0.3874   0.0796
Ce36     Ce     0.5   0.7253   0.2747
Ti37     Ti     0.5   0.8791   0.2335
Ti38     Ti     0.5   0.7665   0.1209
Ce39     Ce     0.7253   0.5   0.2747
Ti40     Ti     0.8791   0.5   0.2335
Ti41     Ti     0.7665   0.5   0.1209
Ce42     Ce     0.2747   0.7253   0.5
Ti43     Ti     0.2335   0.8791   0.5
Ti44     Ti     0.1209   0.7665   0.5
Ce45     Ce     0.5   0.7253   0.7253
Ti46     Ti     0.5   0.8791   0.7665
Ti47     Ti     0.5   0.7665   0.8791
V48     V     0.5   0.9204   0.6126
V49     V     0.5   0.0796   0.6126
V50     V     0.6126   0.9204   0.5
V51     V     0.6126   0.0796   0.5
V52     V     0.3874   0.9204   0.5
V53     V     0.3874   0.0796   0.5
V54     V     0.5   0.0796   0.3874
V55     V     0.5   0.9204   0.3874
Ce56     Ce     0.7253   0.2747   0.5
Ti57     Ti     0.8791   0.2335   0.5
Ti58     Ti     0.7665   0.1209   0.5
Ce59     Ce     0.7253   0.5   0.7253
Ti60     Ti     0.8791   0.5   0.7665
Ti61     Ti     0.7665   0.5   0.8791
Ce62     Ce     0.7253   0.7253   0.5
Ti63     Ti     0.8791   0.7665   0.5
Ti64     Ti     0.7665   0.8791   0.5
V65     V     0.0796   0.5   0.6126
V66     V     0.9204   0.5   0.6126
V67     V     0.9204   0.6126   0.5
V68     V     0.0796   0.6126   0.5
V69     V     0.0796   0.5   0.3874
V70     V     0.9204   0.5   0.3874
V71     V     0.0796   0.3874   0.5
V72     V     0.9204   0.3874   0.5
loop_
_geom_bond_atom_site_label_1
_geom_bond_atom_site_label_2
_geom_bond_distance
_geom_bond_site_symmetry_2
_ccdc_geom_bond_type
Er1     Er9    10.0   .     S
Er1     Er8    10.0   .     S
Er1     Er3    10.0   .     S
Er1     Er2    10.0   .     S
Er1     Ce19    10.001   .     S
Er2     Er4    10.0   .     S
Er2     Er5    10.0   .     S
Er2     Er3    10.0   .     S
Er2     Ce16    10.001   .     S
Er3     Er7    10.0   .     S
Er3     Er6    10.0   .     S
Er3     Ce13    10.001   .     S
Er4     Er12    10.0   .     S
Er4     Er9    10.0   .     S
Er4     Er5    10.0   .     S
Er4     Ce56    10.001   .     S
Er5     Er10    10.0   .     S
Er5     Er6    10.0   .     S
Er5     Ce39    10.001   .     S
Er6     Er7    10.0   .     S
Er6     Er10    10.0   .     S
Er6     Ce36    10.001   .     S
Er7     Er8    10.0   .     S
Er7     Er11    10.0   .     S
Er7     Ce42    10.001   .     S
Er8     Er11    10.0   .     S
Er8     Er9    10.0   .     S
Er8     Ce25    10.001   .     S
Er9     Er12    10.0   .     S
Er9     Ce22    10.001   .     S
Er10     Er11    10.0   .     S
Er10     Er12    10.0   .     S
Er10     Ce62    10.001   .     S
Er11     Er12    10.0   .     S
Er11     Ce45    10.001   .     S
Er12     Ce59    10.001   .     S
Ce13     Ti14    9.999   .     S
Ce13     Ti15    9.999   .     S
Ti14     Ti15    10.0   .     S
Ti14     V69    10.0   .     S
Ti15     V32    10.0   .     S
Ce16     Ti17    9.999   .     S
Ce16     Ti18    9.999   .     S
Ti17     Ti18    10.0   .     S
Ti17     V54    10.0   .     S
Ti18     V35    10.0   .     S
Ce19     Ti20    9.999   .     S
Ce19     Ti21    9.999   .     S
Ti20     Ti21    10.0   .     S
Ti20     V71    10.0   .     S
Ti21     V53    10.0   .     S
Ce22     Ti23    9.999   .     S
Ce22     Ti24    9.999   .     S
Ti23     Ti24    10.0   .     S
Ti23     V34    10.0   .     S
Ti24     V49    10.0   .     S
Ce25     Ti26    9.999   .     S
Ce25     Ti27    9.999   .     S
Ti26     Ti27    10.0   .     S
Ti26     V33    10.0   .     S
Ti27     V65    10.0   .     S
V28     V29    10.0   1_556     S
V28     V33    10.0   .     S
V28     V30    10.0   .     S
V28     Ti47    10.0   .     S
V29     V28    10.0   1_554     S
V29     V32    10.0   .     S
V29     V31    10.0   .     S
V29     Ti38    10.0   .     S
V30     V31    10.0   1_556     S
V30     V34    10.0   .     S
V30     Ti61    10.0   .     S
V31     V30    10.0   1_554     S
V31     V35    10.0   .     S
V31     Ti41    10.0   .     S
V32     V33    10.0   1_554     S
V32     V35    10.0   .     S
V33     V32    10.0   1_556     S
V33     V34    10.0   .     S
V34     V35    10.0   1_556     S
V35     V34    10.0   1_554     S
Ce36     Ti37    9.999   .     S
Ce36     Ti38    9.999   .     S
Ti37     Ti38    10.0   .     S
Ti37     V55    10.0   .     S
Ce39     Ti40    9.999   .     S
Ce39     Ti41    9.999   .     S
Ti40     Ti41    10.0   .     S
Ti40     V70    10.0   .     S
Ce42     Ti43    9.999   .     S
Ce42     Ti44    9.999   .     S
Ti43     Ti44    10.0   .     S
Ti43     V52    10.0   .     S
Ti44     V68    10.0   .     S
Ce45     Ti46    9.999   .     S
Ce45     Ti47    9.999   .     S
Ti46     Ti47    10.0   .     S
Ti46     V48    10.0   .     S
V48     V49    10.0   1_565     S
V48     V52    10.0   .     S
V48     V50    10.0   .     S
V49     V48    10.0   1_545     S
V49     V53    10.0   .     S
V49     V51    10.0   .     S
V50     V51    10.0   1_565     S
V50     V55    10.0   .     S
V50     Ti64    10.0   .     S
V51     V50    10.0   1_545     S
V51     V54    10.0   .     S
V51     Ti58    10.0   .     S
V52     V53    10.0   1_565     S
V52     V55    10.0   .     S
V53     V52    10.0   1_545     S
V53     V54    10.0   .     S
V54     V55    10.0   1_545     S
V55     V54    10.0   1_565     S
Ce56     Ti57    9.999   .     S
Ce56     Ti58    9.999   .     S
Ti57     Ti58    10.0   .     S
Ti57     V72    10.0   .     S
Ce59     Ti60    9.999   .     S
Ce59     Ti61    9.999   .     S
Ti60     Ti61    10.0   .     S
Ti60     V66    10.0   .     S
Ce62     Ti63    9.999   .     S
Ce62     Ti64    9.999   .     S
Ti63     Ti64    10.0   .     S
Ti63     V67    10.0   .     S
V65     V66    10.0   1_455     S
V65     V71    10.0   .     S
V65     V68    10.0   .     S
V66     V65    10.0   1_655     S
V66     V72    10.0   .     S
V66     V67    10.0   .     S
V67     V68    10.0   1_655     S
V67     V70    10.0   .     S
V68     V67    10.0   1_455     S
V68     V69    10.0   .     S
V69     V70    10.0   1_455     S
V69     V71    10.0   .     S
V70     V69    10.0   1_655     S
V70     V72    10.0   .     S
V71     V72    10.0   1_455     S
V72     V71    10.0   1_655     S
