data_xam
_audit_creation_date              2020-02-04
_audit_creation_method            'Pymatgen'
_symmetry_space_group_name_H-M    'P1'
_symmetry_Int_Tables_number       1
loop_
_symmetry_equiv_pos_as_xyz
  x,y,z
_cell_length_a                    22.4009
_cell_length_b                    22.4009
_cell_length_c                    22.4009
_cell_angle_alpha                 90.0
_cell_angle_beta                 90.0
_cell_angle_gamma                 90.0
loop_
_atom_site_label
_atom_site_type_symbol
_atom_site_fract_x
_atom_site_fract_y
_atom_site_fract_z
Er1     Er     0.75   0.75   0.75
Er2     Er     0.25   0.75   0.25
Er3     Er     0.75   0.75   0.25
Er4     Er     0.75   0.25   0.25
Er5     Er     0.25   0.75   0.75
Er6     Er     0.75   0.25   0.75
Er7     Er     0.25   0.25   0.75
Er8     Er     0.25   0.25   0.25
V9     V     0.0   0.0   0.5
V10     V     0.5   0.0   0.0
V11     V     0.0   0.5   0.0
V12     V     0.5   0.5   0.0
V13     V     0.0   0.5   0.5
V14     V     0.5   0.0   0.5
loop_
_geom_bond_atom_site_label_1
_geom_bond_atom_site_label_2
_geom_bond_distance
_geom_bond_site_symmetry_2
_ccdc_geom_bond_type
Er1     V12    9.7   1_556     S
Er1     V13    9.7   1_655     S
Er1     V14    9.7   1_565     S
Er1     V9    9.7   1_665     S
Er1     V11    9.7   1_656     S
Er1     V10    9.7   1_566     S
Er2     V12    9.7   .     S
Er2     V13    9.7   .     S
Er2     V11    9.7   .     S
Er2     V14    9.7   1_565     S
Er2     V9    9.7   1_565     S
Er2     V10    9.7   1_565     S
Er3     V12    9.7   .     S
Er3     V10    9.7   1_565     S
Er3     V11    9.7   1_655     S
Er3     V14    9.7   1_565     S
Er3     V13    9.7   1_655     S
Er3     V9    9.7   1_665     S
Er4     V12    9.7   .     S
Er4     V14    9.7   .     S
Er4     V10    9.7   .     S
Er4     V13    9.7   1_655     S
Er4     V9    9.7   1_655     S
Er4     V11    9.7   1_655     S
Er5     V13    9.7   .     S
Er5     V9    9.7   1_565     S
Er5     V12    9.7   1_556     S
Er5     V14    9.7   1_565     S
Er5     V11    9.7   1_556     S
Er5     V10    9.7   1_566     S
Er6     V14    9.7   .     S
Er6     V9    9.7   1_655     S
Er6     V12    9.7   1_556     S
Er6     V13    9.7   1_655     S
Er6     V10    9.7   1_556     S
Er6     V11    9.7   1_656     S
Er7     V13    9.7   .     S
Er7     V14    9.7   .     S
Er7     V9    9.7   .     S
Er7     V12    9.7   1_556     S
Er7     V11    9.7   1_556     S
Er7     V10    9.7   1_556     S
Er8     V12    9.7   .     S
Er8     V14    9.7   .     S
Er8     V13    9.7   .     S
Er8     V9    9.7   .     S
Er8     V10    9.7   .     S
Er8     V11    9.7   .     S
V9     V14    11.2   1_455     S
V9     V13    11.2   1_545     S
V9     V13    11.2   .     S
V9     V14    11.2   .     S
V9     Er6    9.7   1_455     S
V9     Er5    9.7   1_545     S
V9     Er1    9.7   1_445     S
V9     Er4    9.7   1_455     S
V9     Er3    9.7   1_445     S
V9     Er2    9.7   1_545     S
V10     V12    11.2   1_545     S
V10     V14    11.2   1_554     S
V10     V14    11.2   .     S
V10     V12    11.2   .     S
V10     Er3    9.7   1_545     S
V10     Er6    9.7   1_554     S
V10     Er1    9.7   1_544     S
V10     Er5    9.7   1_544     S
V10     Er7    9.7   1_554     S
V10     Er2    9.7   1_545     S
V11     V12    11.2   1_455     S
V11     V13    11.2   1_554     S
V11     V13    11.2   .     S
V11     V12    11.2   .     S
V11     Er3    9.7   1_455     S
V11     Er5    9.7   1_554     S
V11     Er1    9.7   1_454     S
V11     Er4    9.7   1_455     S
V11     Er7    9.7   1_554     S
V11     Er6    9.7   1_454     S
V12     V11    11.2   1_655     S
V12     V10    11.2   1_565     S
V12     Er1    9.7   1_554     S
V12     Er6    9.7   1_554     S
V12     Er5    9.7   1_554     S
V12     Er7    9.7   1_554     S
V13     V11    11.2   1_556     S
V13     V9    11.2   1_565     S
V13     Er1    9.7   1_455     S
V13     Er3    9.7   1_455     S
V13     Er6    9.7   1_455     S
V13     Er4    9.7   1_455     S
V14     V10    11.2   1_556     S
V14     V9    11.2   1_655     S
V14     Er1    9.7   1_545     S
V14     Er3    9.7   1_545     S
V14     Er5    9.7   1_545     S
V14     Er2    9.7   1_545     S
