data_xata
_audit_creation_date              2020-02-04
_audit_creation_method            'Pymatgen'
_symmetry_space_group_name_H-M    'P1'
_symmetry_Int_Tables_number       1
loop_
_symmetry_equiv_pos_as_xyz
  x,y,z
_cell_length_a                    35.6036
_cell_length_b                    35.6036
_cell_length_c                    86.3535
_cell_angle_alpha                 90.0
_cell_angle_beta                 90.0
_cell_angle_gamma                 120.0
loop_
_atom_site_label
_atom_site_type_symbol
_atom_site_fract_x
_atom_site_fract_y
_atom_site_fract_z
Er1     Er     0.2397   0.7603   0.9024
Er2     Er     0.2397   0.4794   0.9024
Er3     Er     0.5206   0.7603   0.9024
Er4     Er     0.2397   0.4794   0.5976
Er5     Er     0.2397   0.7603   0.5976
Er6     Er     0.5206   0.7603   0.5976
V7     V     0.3333   0.6667   0.8079
V8     V     0.3333   0.6667   0.6921
Ti9     Ti     0.8128   0.9064   0.5473
Ti10     Ti     0.0936   0.1872   0.5473
Ti11     Ti     0.0936   0.9064   0.5473
Ti12     Ti     0.9064   0.8128   0.4527
Ti13     Ti     0.1872   0.0936   0.4527
Ti14     Ti     0.9064   0.0936   0.4527
Er15     Er     0.4794   0.2397   0.4024
Er16     Er     0.7603   0.2397   0.4024
Er17     Er     0.7603   0.5206   0.4024
Er18     Er     0.4794   0.2397   0.0976
Er19     Er     0.7603   0.2397   0.0976
Er20     Er     0.7603   0.5206   0.0976
V21     V     0.6667   0.3333   0.3079
V22     V     0.6667   0.3333   0.1921
Ti23     Ti     0.8128   0.9064   0.9527
Ti24     Ti     0.0936   0.1872   0.9527
Ti25     Ti     0.0936   0.9064   0.9527
Ti26     Ti     0.9064   0.8128   0.0473
Ti27     Ti     0.1872   0.0936   0.0473
Ti28     Ti     0.9064   0.0936   0.0473
loop_
_geom_bond_atom_site_label_1
_geom_bond_atom_site_label_2
_geom_bond_distance
_geom_bond_site_symmetry_2
_ccdc_geom_bond_type
Er1     Er2    10.0   .     S
Er1     Er3    10.0   .     S
Er1     V7    10.0   .     S
Er1     Ti25    10.0   .     S
Er2     Er3    10.0   .     S
Er2     V7    10.0   .     S
Er2     Ti24    10.0   .     S
Er3     V7    10.0   .     S
Er3     Ti23    10.0   .     S
Er4     V8    10.0   .     S
Er4     Er6    10.0   .     S
Er4     Er5    10.0   .     S
Er4     Ti10    10.0   .     S
Er5     Er6    10.0   .     S
Er5     V8    10.0   .     S
Er5     Ti11    10.0   .     S
Er6     V8    10.0   .     S
Er6     Ti9    10.0   .     S
V7     V8    10.0   .     S
Ti9     Ti10    10.0   1_665     S
Ti9     Ti11    10.0   1_655     S
Ti9     Ti14    10.0   1_565     S
Ti9     Ti12    10.001   .     S
Ti10     Ti9    10.0   1_445     S
Ti10     Ti11    10.0   1_545     S
Ti10     Ti13    10.001   .     S
Ti10     Ti14    10.001   1_455     S
Ti11     Ti10    10.0   1_565     S
Ti11     Ti9    10.0   1_455     S
Ti11     Ti13    10.001   1_565     S
Ti11     Ti12    10.0   1_455     S
Ti12     Er17    10.0   .     S
Ti12     Ti14    10.0   1_565     S
Ti12     Ti13    10.0   1_665     S
Ti12     Ti11    10.0   1_655     S
Ti13     Er15    10.0   .     S
Ti13     Ti12    10.0   1_445     S
Ti13     Ti14    10.0   1_455     S
Ti13     Ti11    10.001   1_545     S
Ti14     Er16    10.0   .     S
Ti14     Ti12    10.0   1_545     S
Ti14     Ti13    10.0   1_655     S
Ti14     Ti9    10.0   1_545     S
Ti14     Ti10    10.001   1_655     S
Er15     Er16    10.0   .     S
Er15     V21    10.0   .     S
Er15     Er17    10.0   .     S
Er16     V21    10.0   .     S
Er16     Er17    10.0   .     S
Er17     V21    10.0   .     S
Er18     Er19    10.0   .     S
Er18     V22    10.0   .     S
Er18     Er20    10.0   .     S
Er18     Ti27    10.0   .     S
Er19     V22    10.0   .     S
Er19     Er20    10.0   .     S
Er19     Ti28    10.0   .     S
Er20     V22    10.0   .     S
Er20     Ti26    10.0   .     S
V21     V22    10.0   .     S
Ti23     Ti24    10.0   1_665     S
Ti23     Ti25    10.0   1_655     S
Ti23     Ti26    10.0   1_556     S
Ti23     Ti28    10.001   1_566     S
Ti24     Ti25    10.0   1_545     S
Ti24     Ti23    10.0   1_445     S
Ti24     Ti28    10.001   1_456     S
Ti24     Ti27    10.001   1_556     S
Ti25     Ti24    10.0   1_565     S
Ti25     Ti23    10.0   1_455     S
Ti25     Ti27    10.001   1_566     S
Ti25     Ti26    10.001   1_456     S
Ti26     Ti28    10.0   1_565     S
Ti26     Ti27    10.0   1_665     S
Ti26     Ti23    10.0   1_554     S
Ti26     Ti25    10.001   1_654     S
Ti27     Ti28    10.0   1_455     S
Ti27     Ti26    10.0   1_445     S
Ti27     Ti24    10.001   1_554     S
Ti27     Ti25    10.001   1_544     S
Ti28     Ti27    10.0   1_655     S
Ti28     Ti26    10.0   1_545     S
Ti28     Ti23    10.001   1_544     S
Ti28     Ti24    10.001   1_654     S
