data_xbh
_audit_creation_date              2020-02-04
_audit_creation_method            'Pymatgen'
_symmetry_space_group_name_H-M    'P1'
_symmetry_Int_Tables_number       1
loop_
_symmetry_equiv_pos_as_xyz
  x,y,z
_cell_length_a                    48.7831
_cell_length_b                    48.7831
_cell_length_c                    48.7831
_cell_angle_alpha                 90.0
_cell_angle_beta                 90.0
_cell_angle_gamma                 90.0
loop_
_atom_site_label
_atom_site_type_symbol
_atom_site_fract_x
_atom_site_fract_y
_atom_site_fract_z
Er1     Er     0.5   0.25   0.25
Er2     Er     0.5   0.75   0.25
Er3     Er     0.5   0.25   0.75
Er4     Er     0.25   0.25   0.5
Er5     Er     0.25   0.0   0.75
V6     V     0.3225   0.1775   0.8225
V7     V     0.1775   0.3225   0.8225
V8     V     0.3225   0.3225   0.6775
V9     V     0.1775   0.1775   0.6775
Er10     Er     0.0   0.25   0.75
Er11     Er     0.25   0.5   0.75
Er12     Er     0.75   0.5   0.25
Er13     Er     0.75   0.25   0.0
V14     V     0.8225   0.3225   0.1775
V15     V     0.8225   0.1775   0.3225
V16     V     0.6775   0.3225   0.3225
V17     V     0.6775   0.1775   0.1775
Er18     Er     0.75   0.0   0.25
Er19     Er     0.75   0.25   0.5
Er20     Er     0.75   0.75   0.0
V21     V     0.8225   0.6775   0.1775
V22     V     0.8225   0.8225   0.3225
V23     V     0.6775   0.8225   0.1775
V24     V     0.6775   0.6775   0.3225
Er25     Er     0.75   0.75   0.5
Er26     Er     0.75   0.0   0.75
V27     V     0.6775   0.1775   0.8225
V28     V     0.8225   0.3225   0.8225
V29     V     0.8225   0.1775   0.6775
V30     V     0.6775   0.3225   0.6775
Er31     Er     0.75   0.5   0.75
V32     V     0.8225   0.6775   0.8225
V33     V     0.8225   0.8225   0.6775
V34     V     0.6775   0.8225   0.8225
V35     V     0.6775   0.6775   0.6775
Er36     Er     0.5   0.75   0.75
V37     V     0.1775   0.6775   0.8225
V38     V     0.1775   0.8225   0.6775
V39     V     0.3225   0.8225   0.8225
V40     V     0.3225   0.6775   0.6775
Er41     Er     0.0   0.75   0.75
Er42     Er     0.25   0.75   0.5
Er43     Er     0.0   0.75   0.25
V44     V     0.3225   0.8225   0.1775
V45     V     0.1775   0.8225   0.3225
V46     V     0.3225   0.6775   0.3225
V47     V     0.1775   0.6775   0.1775
Er48     Er     0.25   0.75   0.0
Er49     Er     0.25   0.5   0.25
Er50     Er     0.25   0.25   0.0
Er51     Er     0.25   0.0   0.25
V52     V     0.3225   0.3225   0.3225
V53     V     0.1775   0.1775   0.3225
V54     V     0.1775   0.3225   0.1775
V55     V     0.3225   0.1775   0.1775
Er56     Er     0.0   0.25   0.25
loop_
_geom_bond_atom_site_label_1
_geom_bond_atom_site_label_2
_geom_bond_distance
_geom_bond_site_symmetry_2
_ccdc_geom_bond_type
Er1     V16    10.0   .     S
Er1     V17    10.0   .     S
Er1     V55    10.0   .     S
Er1     V52    10.0   .     S
Er2     V23    10.0   .     S
Er2     V24    10.0   .     S
Er2     V46    10.0   .     S
Er2     V44    10.0   .     S
Er3     V27    10.0   .     S
Er3     V30    10.0   .     S
Er3     V8    10.0   .     S
Er3     V6    10.0   .     S
Er4     V8    10.0   .     S
Er4     V9    10.0   .     S
Er4     V53    10.0   .     S
Er4     V52    10.0   .     S
Er5     V39    10.0   1_545     S
Er5     V38    10.0   1_545     S
Er5     V6    10.0   .     S
Er5     V9    10.0   .     S
V6     V9    9.999   .     S
V6     V7    9.999   .     S
V6     V8    9.999   .     S
V6     Er50    10.0   1_556     S
V7     V9    9.999   .     S
V7     V8    9.999   .     S
V7     Er10    10.0   .     S
V7     Er11    10.0   .     S
V7     Er50    10.0   1_556     S
V8     V9    9.999   .     S
V8     Er11    10.0   .     S
V9     Er10    10.0   .     S
Er10     V29    10.0   1_455     S
Er10     V28    10.0   1_455     S
Er11     V37    10.0   .     S
Er11     V40    10.0   .     S
Er12     V24    10.0   .     S
Er12     V21    10.0   .     S
Er12     V14    10.0   .     S
Er12     V16    10.0   .     S
Er13     V28    10.0   1_554     S
Er13     V27    10.0   1_554     S
Er13     V14    10.0   .     S
Er13     V17    10.0   .     S
V14     V17    9.999   .     S
V14     V15    9.999   .     S
V14     V16    9.999   .     S
V14     Er56    10.0   1_655     S
V15     V17    9.999   .     S
V15     V16    9.999   .     S
V15     Er18    10.0   .     S
V15     Er19    10.0   .     S
V15     Er56    10.0   1_655     S
V16     V17    9.999   .     S
V16     Er19    10.0   .     S
V17     Er18    10.0   .     S
Er18     V23    10.0   1_545     S
Er18     V22    10.0   1_545     S
Er19     V29    10.0   .     S
Er19     V30    10.0   .     S
Er20     V34    10.0   1_554     S
Er20     V32    10.0   1_554     S
Er20     V21    10.0   .     S
Er20     V23    10.0   .     S
V21     V24    9.999   .     S
V21     V22    9.999   .     S
V21     V23    9.999   .     S
V21     Er43    10.0   1_655     S
V22     Er18    10.0   1_565     S
V22     V24    9.999   .     S
V22     V23    9.999   .     S
V22     Er25    10.0   .     S
V22     Er43    10.0   1_655     S
V23     Er18    10.0   1_565     S
V23     V24    9.999   .     S
V24     Er25    10.0   .     S
Er25     V33    10.0   .     S
Er25     V35    10.0   .     S
Er26     V33    10.0   1_545     S
Er26     V34    10.0   1_545     S
Er26     V27    10.0   .     S
Er26     V29    10.0   .     S
V27     Er13    10.0   1_556     S
V27     V30    9.999   .     S
V27     V28    9.999   .     S
V27     V29    9.999   .     S
V28     Er10    10.0   1_655     S
V28     Er13    10.0   1_556     S
V28     V30    9.999   .     S
V28     V29    9.999   .     S
V28     Er31    10.0   .     S
V29     Er10    10.0   1_655     S
V29     V30    9.999   .     S
V30     Er31    10.0   .     S
Er31     V32    10.0   .     S
Er31     V35    10.0   .     S
V32     Er20    10.0   1_556     S
V32     V35    9.999   .     S
V32     V33    9.999   .     S
V32     V34    9.999   .     S
V32     Er41    10.0   1_655     S
V33     Er26    10.0   1_565     S
V33     V35    9.999   .     S
V33     V34    9.999   .     S
V33     Er41    10.0   1_655     S
V34     Er20    10.0   1_556     S
V34     Er26    10.0   1_565     S
V34     V35    9.999   .     S
V34     Er36    10.0   .     S
V35     Er36    10.0   .     S
Er36     V39    10.0   .     S
Er36     V40    10.0   .     S
V37     V40    9.999   .     S
V37     V39    9.999   .     S
V37     V38    9.999   .     S
V37     Er41    10.0   .     S
V37     Er48    10.0   1_556     S
V38     Er5    10.0   1_565     S
V38     V40    9.999   .     S
V38     V39    9.999   .     S
V38     Er41    10.0   .     S
V38     Er42    10.0   .     S
V39     Er5    10.0   1_565     S
V39     V40    9.999   .     S
V39     Er48    10.0   1_556     S
V40     Er42    10.0   .     S
Er41     V32    10.0   1_455     S
Er41     V33    10.0   1_455     S
Er42     V45    10.0   .     S
Er42     V46    10.0   .     S
Er43     V22    10.0   1_455     S
Er43     V21    10.0   1_455     S
Er43     V45    10.0   .     S
Er43     V47    10.0   .     S
V44     V47    9.999   .     S
V44     V45    9.999   .     S
V44     V46    9.999   .     S
V44     Er48    10.0   .     S
V44     Er51    10.0   1_565     S
V45     V46    9.999   .     S
V45     V47    9.999   .     S
V45     Er51    10.0   1_565     S
V46     V47    9.999   .     S
V46     Er49    10.0   .     S
V47     Er48    10.0   .     S
V47     Er49    10.0   .     S
Er48     V37    10.0   1_554     S
Er48     V39    10.0   1_554     S
Er49     V52    10.0   .     S
Er49     V54    10.0   .     S
Er50     V6    10.0   1_554     S
Er50     V7    10.0   1_554     S
Er50     V54    10.0   .     S
Er50     V55    10.0   .     S
Er51     V45    10.0   1_545     S
Er51     V44    10.0   1_545     S
Er51     V55    10.0   .     S
Er51     V53    10.0   .     S
V52     V54    9.999   .     S
V52     V53    9.999   .     S
V52     V55    9.999   .     S
V53     V54    9.999   .     S
V53     V55    9.999   .     S
V53     Er56    10.0   .     S
V54     V55    9.999   .     S
V54     Er56    10.0   .     S
Er56     V14    10.0   1_455     S
Er56     V15    10.0   1_455     S
