data_xbna
_audit_creation_date              2020-02-04
_audit_creation_method            'Pymatgen'
_symmetry_space_group_name_H-M    'P1'
_symmetry_Int_Tables_number       1
loop_
_symmetry_equiv_pos_as_xyz
  x,y,z
_cell_length_a                    48.6126
_cell_length_b                    48.6126
_cell_length_c                    48.6126
_cell_angle_alpha                 90.0
_cell_angle_beta                 90.0
_cell_angle_gamma                 90.0
loop_
_atom_site_label
_atom_site_type_symbol
_atom_site_fract_x
_atom_site_fract_y
_atom_site_fract_z
Ti1     Ti     0.5   0.6409   0.0
Er2     Er     0.5   0.8393   0.0
Er3     Er     0.1607   0.5   0.0
Ti4     Ti     0.3591   0.5   0.0
Er5     Er     0.5   0.1607   0.0
Ti6     Ti     0.5   0.3591   0.0
Ti7     Ti     0.6409   0.5   0.0
Er8     Er     0.8393   0.5   0.0
Ti9     Ti     0.5   0.0   0.6409
Er10     Er     0.5   0.0   0.8393
Er11     Er     0.1607   0.0   0.5
Ti12     Ti     0.3591   0.0   0.5
Er13     Er     0.5   0.0   0.1607
Ti14     Ti     0.5   0.0   0.3591
Ti15     Ti     0.6409   0.0   0.5
Er16     Er     0.8393   0.0   0.5
Ti17     Ti     0.0   0.5   0.6409
Er18     Er     0.0   0.5   0.8393
Ti19     Ti     0.0   0.6409   0.5
Er20     Er     0.0   0.8393   0.5
Er21     Er     0.0   0.5   0.1607
Ti22     Ti     0.0   0.5   0.3591
Er23     Er     0.0   0.1607   0.5
Ti24     Ti     0.0   0.3591   0.5
V25     V     0.7964   0.7964   0.5
V26     V     0.7964   0.5   0.7964
V27     V     0.5   0.7964   0.7964
V28     V     0.7964   0.2036   0.5
V29     V     0.2036   0.7964   0.5
V30     V     0.7964   0.5   0.2036
V31     V     0.5   0.7964   0.2036
V32     V     0.2036   0.5   0.7964
V33     V     0.5   0.2036   0.7964
V34     V     0.2036   0.2036   0.5
V35     V     0.5   0.2036   0.2036
V36     V     0.2036   0.5   0.2036
Ce37     Ce     0.3536   0.3536   0.5
Ce38     Ce     0.3536   0.5   0.3536
Ce39     Ce     0.5   0.3536   0.6464
Ce40     Ce     0.5   0.3536   0.3536
Ce41     Ce     0.6464   0.3536   0.5
Ce42     Ce     0.6464   0.5   0.6464
Ce43     Ce     0.6464   0.5   0.3536
Ce44     Ce     0.6464   0.6464   0.5
Ce45     Ce     0.5   0.6464   0.6464
Ce46     Ce     0.5   0.6464   0.3536
Ce47     Ce     0.3536   0.6464   0.5
Ce48     Ce     0.3536   0.5   0.6464
loop_
_geom_bond_atom_site_label_1
_geom_bond_atom_site_label_2
_geom_bond_distance
_geom_bond_site_symmetry_2
_ccdc_geom_bond_type
Ti1     Ti4    9.687   .     S
Ti1     Ti7    9.687   .     S
Ti1     Er2    9.644   .     S
Er2     V31    10.114   .     S
Er2     V27    10.114   1_554     S
Er3     V36    10.114   .     S
Er3     V32    10.114   1_554     S
Er3     Ti4    9.644   .     S
Ti4     Ti6    9.687   .     S
Er5     V35    10.114   .     S
Er5     V33    10.114   1_554     S
Er5     Ti6    9.644   .     S
Ti6     Ti7    9.687   .     S
Ti7     Er8    9.644   .     S
Er8     V30    10.114   .     S
Er8     V26    10.114   1_554     S
Ti9     Ti12    9.687   .     S
Ti9     Ti15    9.687   .     S
Ti9     Er10    9.644   .     S
Er10     V33    10.114   .     S
Er10     V27    10.114   1_545     S
Er11     V34    10.114   .     S
Er11     V29    10.114   1_545     S
Er11     Ti12    9.644   .     S
Ti12     Ti14    9.687   .     S
Er13     V35    10.114   .     S
Er13     V31    10.114   1_545     S
Er13     Ti14    9.644   .     S
Ti14     Ti15    9.687   .     S
Ti15     Er16    9.644   .     S
Er16     V28    10.114   .     S
Er16     V25    10.114   1_545     S
Ti17     Ti19    9.687   .     S
Ti17     Ti24    9.687   .     S
Ti17     Er18    9.644   .     S
Er18     V32    10.114   .     S
Er18     V26    10.114   1_455     S
Ti19     Ti22    9.687   .     S
Ti19     Er20    9.644   .     S
Er20     V29    10.114   .     S
Er20     V25    10.114   1_455     S
Er21     V36    10.114   .     S
Er21     V30    10.114   1_455     S
Er21     Ti22    9.644   .     S
Ti22     Ti24    9.687   .     S
Er23     V34    10.114   .     S
Er23     V28    10.114   1_455     S
Er23     Ti24    9.644   .     S
V25     Er16    10.114   1_565     S
V25     Er20    10.114   1_655     S
V25     Ce44    10.315   .     S
V26     Er8    10.114   1_556     S
V26     Er18    10.114   1_655     S
V26     Ce42    10.315   .     S
V27     Er2    10.114   1_556     S
V27     Er10    10.114   1_565     S
V27     Ce45    10.315   .     S
V28     Er23    10.114   1_655     S
V28     Ce41    10.315   .     S
V29     Er11    10.114   1_565     S
V29     Ce47    10.315   .     S
V30     Er21    10.114   1_655     S
V30     Ce43    10.315   .     S
V31     Er13    10.114   1_565     S
V31     Ce46    10.315   .     S
V32     Er3    10.114   1_556     S
V32     Ce48    10.315   .     S
V33     Er5    10.114   1_556     S
V33     Ce39    10.315   .     S
V34     Ce37    10.315   .     S
V35     Ce40    10.315   .     S
V36     Ce38    10.315   .     S
Ce37     Ce38    10.063   .     S
Ce37     Ce39    10.063   .     S
Ce37     Ce40    10.063   .     S
Ce37     Ce48    10.063   .     S
Ce38     Ce47    10.063   .     S
Ce38     Ce40    10.063   .     S
Ce38     Ce46    10.063   .     S
Ce39     Ce41    10.063   .     S
Ce39     Ce48    10.063   .     S
Ce39     Ce42    10.063   .     S
Ce40     Ce41    10.063   .     S
Ce40     Ce43    10.063   .     S
Ce41     Ce42    10.063   .     S
Ce41     Ce43    10.063   .     S
Ce42     Ce44    10.063   .     S
Ce42     Ce45    10.063   .     S
Ce43     Ce44    10.063   .     S
Ce43     Ce46    10.063   .     S
Ce44     Ce45    10.063   .     S
Ce44     Ce46    10.063   .     S
Ce45     Ce47    10.063   .     S
Ce45     Ce48    10.063   .     S
Ce46     Ce47    10.063   .     S
Ce47     Ce48    10.063   .     S
