data_xboa
_audit_creation_date              2020-02-04
_audit_creation_method            'Pymatgen'
_symmetry_space_group_name_H-M    'P1'
_symmetry_Int_Tables_number       1
loop_
_symmetry_equiv_pos_as_xyz
  x,y,z
_cell_length_a                    40.724
_cell_length_b                    40.724
_cell_length_c                    40.724
_cell_angle_alpha                 90.0
_cell_angle_beta                 90.0
_cell_angle_gamma                 90.0
loop_
_atom_site_label
_atom_site_type_symbol
_atom_site_fract_x
_atom_site_fract_y
_atom_site_fract_z
Ti1     Ti     0.0   0.3705   0.0
Ce2     Ce     0.0   0.1664   0.0
Ti3     Ti     0.0   0.6295   0.0
Ce4     Ce     0.0   0.8336   0.0
Er5     Er     0.1358   0.5   0.1358
Er6     Er     0.8642   0.5   0.1358
Er7     Er     0.1358   0.5   0.8642
Er8     Er     0.8642   0.5   0.8642
Ti9     Ti     0.3705   0.0   0.0
Ce10     Ce     0.1664   0.0   0.0
Ti11     Ti     0.6295   0.0   0.0
Ce12     Ce     0.8336   0.0   0.0
Er13     Er     0.5   0.1358   0.1358
Er14     Er     0.5   0.8642   0.1358
Er15     Er     0.5   0.1358   0.8642
Er16     Er     0.5   0.8642   0.8642
Ti17     Ti     0.0   0.0   0.3705
Ce18     Ce     0.0   0.0   0.1664
Ti19     Ti     0.0   0.0   0.6295
Ce20     Ce     0.0   0.0   0.8336
Er21     Er     0.1358   0.1358   0.5
Er22     Er     0.8642   0.1358   0.5
Er23     Er     0.1358   0.8642   0.5
Er24     Er     0.8642   0.8642   0.5
V25     V     0.32   0.5   0.32
V26     V     0.68   0.5   0.32
V27     V     0.5   0.68   0.32
V28     V     0.5   0.32   0.32
V29     V     0.5   0.32   0.68
V30     V     0.68   0.32   0.5
V31     V     0.32   0.32   0.5
V32     V     0.32   0.5   0.68
V33     V     0.32   0.68   0.5
V34     V     0.68   0.68   0.5
V35     V     0.5   0.68   0.68
V36     V     0.68   0.5   0.68
loop_
_geom_bond_atom_site_label_1
_geom_bond_atom_site_label_2
_geom_bond_distance
_geom_bond_site_symmetry_2
_ccdc_geom_bond_type
Ti1     Er8    9.431   1_454     S
Ti1     Er7    9.431   1_554     S
Ti1     Er6    9.431   1_455     S
Ti1     Er5    9.431   .     S
Ti1     Ce2    8.313   .     S
Ce2     Ce20    9.583   1_554     S
Ce2     Ce18    9.583   .     S
Ce2     Ce10    9.583   .     S
Ce2     Ce12    9.583   1_455     S
Ti3     Er8    9.431   1_454     S
Ti3     Er6    9.431   1_455     S
Ti3     Er7    9.431   1_554     S
Ti3     Er5    9.431   .     S
Ti3     Ce4    8.313   .     S
Ce4     Ce20    9.583   1_564     S
Ce4     Ce10    9.583   1_565     S
Ce4     Ce18    9.583   1_565     S
Ce4     Ce12    9.583   1_465     S
Er5     Er7    11.058   1_554     S
Er5     Er6    11.058   1_455     S
Er5     V25    10.613   .     S
Er6     Ti1    9.431   1_655     S
Er6     Ti3    9.431   1_655     S
Er6     Er5    11.058   1_655     S
Er6     Er8    11.058   1_554     S
Er6     V26    10.613   .     S
Er7     Ti1    9.431   1_556     S
Er7     Ti3    9.431   1_556     S
Er7     Er5    11.058   1_556     S
Er7     Er8    11.058   1_455     S
Er7     V32    10.613   .     S
Er8     Ti1    9.431   1_656     S
Er8     Ti3    9.431   1_656     S
Er8     Er6    11.058   1_556     S
Er8     Er7    11.058   1_655     S
Er8     V36    10.613   .     S
Ti9     Er16    9.431   1_544     S
Ti9     Er15    9.431   1_554     S
Ti9     Er14    9.431   1_545     S
Ti9     Er13    9.431   .     S
Ti9     Ce10    8.313   .     S
Ce10     Ce20    9.583   1_554     S
Ce10     Ce4    9.583   1_545     S
Ce10     Ce18    9.583   .     S
Ti11     Er16    9.431   1_544     S
Ti11     Er15    9.431   1_554     S
Ti11     Er14    9.431   1_545     S
Ti11     Er13    9.431   .     S
Ti11     Ce12    8.313   .     S
Ce12     Ce20    9.583   1_654     S
Ce12     Ce18    9.583   1_655     S
Ce12     Ce2    9.583   1_655     S
Ce12     Ce4    9.583   1_645     S
Er13     Er15    11.058   1_554     S
Er13     Er14    11.058   1_545     S
Er13     V28    10.613   .     S
Er14     Ti9    9.431   1_565     S
Er14     Ti11    9.431   1_565     S
Er14     Er13    11.058   1_565     S
Er14     Er16    11.058   1_554     S
Er14     V27    10.613   .     S
Er15     Ti9    9.431   1_556     S
Er15     Ti11    9.431   1_556     S
Er15     Er13    11.058   1_556     S
Er15     Er16    11.058   1_545     S
Er15     V29    10.613   .     S
Er16     Ti9    9.431   1_566     S
Er16     Ti11    9.431   1_566     S
Er16     Er14    11.058   1_556     S
Er16     Er15    11.058   1_565     S
Er16     V35    10.613   .     S
Ti17     Er24    9.431   1_445     S
Ti17     Er23    9.431   1_545     S
Ti17     Er22    9.431   1_455     S
Ti17     Er21    9.431   .     S
Ti17     Ce18    8.313   .     S
Ce18     Ce4    9.583   1_545     S
Ce18     Ce12    9.583   1_455     S
Ti19     Er24    9.431   1_445     S
Ti19     Er22    9.431   1_455     S
Ti19     Er23    9.431   1_545     S
Ti19     Er21    9.431   .     S
Ti19     Ce20    8.313   .     S
Ce20     Ce2    9.583   1_556     S
Ce20     Ce12    9.583   1_456     S
Ce20     Ce4    9.583   1_546     S
Ce20     Ce10    9.583   1_556     S
Er21     Er23    11.058   1_545     S
Er21     Er22    11.058   1_455     S
Er21     V31    10.613   .     S
Er22     Ti17    9.431   1_655     S
Er22     Ti19    9.431   1_655     S
Er22     Er21    11.058   1_655     S
Er22     Er24    11.058   1_545     S
Er22     V30    10.613   .     S
Er23     Ti17    9.431   1_565     S
Er23     Ti19    9.431   1_565     S
Er23     Er21    11.058   1_565     S
Er23     Er24    11.058   1_455     S
Er23     V33    10.613   .     S
Er24     Ti17    9.431   1_665     S
Er24     Ti19    9.431   1_665     S
Er24     Er22    11.058   1_565     S
Er24     Er23    11.058   1_655     S
Er24     V34    10.613   .     S
V25     V33    10.364   .     S
V25     V27    10.364   .     S
V25     V31    10.364   .     S
V25     V28    10.364   .     S
V26     V34    10.364   .     S
V26     V27    10.364   .     S
V26     V28    10.364   .     S
V26     V30    10.364   .     S
V27     V33    10.364   .     S
V27     V34    10.364   .     S
V28     V30    10.364   .     S
V28     V31    10.364   .     S
V29     V30    10.364   .     S
V29     V36    10.364   .     S
V29     V31    10.364   .     S
V29     V32    10.364   .     S
V30     V36    10.364   .     S
V31     V32    10.364   .     S
V32     V33    10.364   .     S
V32     V35    10.364   .     S
V33     V35    10.364   .     S
V34     V35    10.364   .     S
V34     V36    10.364   .     S
V35     V36    10.364   .     S
