data_xbv
_audit_creation_date              2020-02-04
_audit_creation_method            'Pymatgen'
_symmetry_space_group_name_H-M    'P1'
_symmetry_Int_Tables_number       1
loop_
_symmetry_equiv_pos_as_xyz
  x,y,z
_cell_length_a                    46.188
_cell_length_b                    46.188
_cell_length_c                    46.188
_cell_angle_alpha                 90.0
_cell_angle_beta                 90.0
_cell_angle_gamma                 90.0
loop_
_atom_site_label
_atom_site_type_symbol
_atom_site_fract_x
_atom_site_fract_y
_atom_site_fract_z
Er1     Er     0.375   0.625   0.625
Ti2     Ti     0.5   0.5   0.5
Er3     Er     0.625   0.375   0.625
Er4     Er     0.375   0.375   0.375
Er5     Er     0.625   0.625   0.375
Er6     Er     0.375   0.625   0.375
Er7     Er     0.625   0.375   0.375
Er8     Er     0.375   0.375   0.625
Er9     Er     0.625   0.625   0.625
V10     V     0.25   0.25   0.0
V11     V     0.25   0.0   0.25
V12     V     0.0   0.25   0.25
V13     V     0.5   0.25   0.25
V14     V     0.25   0.25   0.5
V15     V     0.25   0.5   0.25
V16     V     0.25   0.75   0.0
V17     V     0.75   0.25   0.0
V18     V     0.0   0.25   0.75
V19     V     0.75   0.5   0.25
V20     V     0.25   0.5   0.75
Er21     Er     0.875   0.625   0.875
Ti22     Ti     0.0   0.5   0.0
Er23     Er     0.875   0.375   0.125
Er24     Er     0.125   0.375   0.875
Er25     Er     0.125   0.625   0.875
Er26     Er     0.875   0.375   0.875
Er27     Er     0.875   0.625   0.125
V28     V     0.75   0.5   0.75
Er29     Er     0.125   0.625   0.125
Er30     Er     0.125   0.375   0.125
V31     V     0.25   0.0   0.75
V32     V     0.5   0.75   0.25
V33     V     0.5   0.25   0.75
Er34     Er     0.625   0.125   0.875
Ti35     Ti     0.5   0.0   0.0
Er36     Er     0.625   0.875   0.125
Er37     Er     0.375   0.875   0.875
Er38     Er     0.375   0.125   0.875
Er39     Er     0.625   0.875   0.875
Er40     Er     0.375   0.875   0.125
V41     V     0.5   0.75   0.75
Er42     Er     0.375   0.125   0.125
Er43     Er     0.625   0.125   0.125
V44     V     0.0   0.75   0.25
V45     V     0.75   0.0   0.25
V46     V     0.75   0.25   0.5
V47     V     0.25   0.75   0.5
Er48     Er     0.875   0.125   0.375
Ti49     Ti     0.0   0.0   0.5
Er50     Er     0.875   0.875   0.375
Er51     Er     0.125   0.875   0.375
Er52     Er     0.125   0.875   0.625
Er53     Er     0.875   0.125   0.625
Er54     Er     0.875   0.875   0.625
V55     V     0.75   0.75   0.5
Er56     Er     0.125   0.125   0.375
Er57     Er     0.125   0.125   0.625
V58     V     0.0   0.75   0.75
V59     V     0.75   0.0   0.75
V60     V     0.75   0.75   0.0
loop_
_geom_bond_atom_site_label_1
_geom_bond_atom_site_label_2
_geom_bond_distance
_geom_bond_site_symmetry_2
_ccdc_geom_bond_type
Er1     Ti2    10.0   .     S
Er1     V20    10.0   .     S
Er1     V47    10.0   .     S
Er1     V41    10.0   .     S
Ti2     Er3    10.0   .     S
Ti2     Er4    10.0   .     S
Ti2     Er5    10.0   .     S
Ti2     Er6    10.0   .     S
Ti2     Er7    10.0   .     S
Ti2     Er8    10.0   .     S
Ti2     Er9    10.0   .     S
Er3     V46    10.0   .     S
Er3     V33    10.0   .     S
Er3     V28    10.0   .     S
Er4     V13    10.0   .     S
Er4     V14    10.0   .     S
Er4     V15    10.0   .     S
Er5     V19    10.0   .     S
Er5     V32    10.0   .     S
Er5     V55    10.0   .     S
Er6     V15    10.0   .     S
Er6     V47    10.0   .     S
Er6     V32    10.0   .     S
Er7     V13    10.0   .     S
Er7     V46    10.0   .     S
Er7     V19    10.0   .     S
Er8     V14    10.0   .     S
Er8     V20    10.0   .     S
Er8     V33    10.0   .     S
Er9     V55    10.0   .     S
Er9     V28    10.0   .     S
Er9     V41    10.0   .     S
V10     Er38    10.0   1_554     S
V10     Er30    10.0   .     S
V10     Er42    10.0   .     S
V10     Er24    10.0   1_554     S
V11     Er51    10.0   1_545     S
V11     Er42    10.0   .     S
V11     Er56    10.0   .     S
V11     Er40    10.0   1_545     S
V12     Er56    10.0   .     S
V12     Er23    10.0   1_455     S
V12     Er48    10.0   1_455     S
V12     Er30    10.0   .     S
V13     Er42    10.0   .     S
V13     Er43    10.0   .     S
V14     Er56    10.0   .     S
V14     Er57    10.0   .     S
V15     Er29    10.0   .     S
V15     Er30    10.0   .     S
V16     Er37    10.0   1_554     S
V16     Er40    10.0   .     S
V16     Er25    10.0   1_554     S
V16     Er29    10.0   .     S
V17     Er26    10.0   1_554     S
V17     Er23    10.0   .     S
V17     Er34    10.0   1_554     S
V17     Er43    10.0   .     S
V18     Er24    10.0   .     S
V18     Er26    10.0   1_455     S
V18     Er53    10.0   1_455     S
V18     Er57    10.0   .     S
V19     Er23    10.0   .     S
V19     Er27    10.0   .     S
V20     Er24    10.0   .     S
V20     Er25    10.0   .     S
Er21     Ti22    10.0   1_656     S
Er21     V28    10.0   .     S
Er21     V58    10.0   1_655     S
Er21     V60    10.0   1_556     S
Ti22     Er21    10.0   1_454     S
Ti22     Er23    10.0   1_455     S
Ti22     Er24    10.0   1_554     S
Ti22     Er25    10.0   1_554     S
Ti22     Er26    10.0   1_454     S
Ti22     Er27    10.0   1_455     S
Ti22     Er29    10.0   .     S
Ti22     Er30    10.0   .     S
Er23     V12    10.0   1_655     S
Er23     Ti22    10.0   1_655     S
Er24     V10    10.0   1_556     S
Er24     Ti22    10.0   1_556     S
Er25     Ti22    10.0   1_556     S
Er25     V58    10.0   .     S
Er25     V16    10.0   1_556     S
Er26     V17    10.0   1_556     S
Er26     V18    10.0   1_655     S
Er26     Ti22    10.0   1_656     S
Er26     V28    10.0   .     S
Er27     Ti22    10.0   1_655     S
Er27     V44    10.0   1_655     S
Er27     V60    10.0   .     S
Er29     V44    10.0   .     S
V31     Er37    10.0   1_545     S
V31     Er38    10.0   .     S
V31     Er57    10.0   .     S
V31     Er52    10.0   1_545     S
V32     Er36    10.0   .     S
V32     Er40    10.0   .     S
V33     Er34    10.0   .     S
V33     Er38    10.0   .     S
Er34     Ti35    10.0   1_556     S
Er34     V59    10.0   .     S
Er34     V17    10.0   1_556     S
Ti35     Er34    10.0   1_554     S
Ti35     Er36    10.0   1_545     S
Ti35     Er37    10.0   1_544     S
Ti35     Er38    10.0   1_554     S
Ti35     Er39    10.0   1_544     S
Ti35     Er40    10.0   1_545     S
Ti35     Er42    10.0   .     S
Ti35     Er43    10.0   .     S
Er36     Ti35    10.0   1_565     S
Er36     V45    10.0   1_565     S
Er36     V60    10.0   .     S
Er37     V16    10.0   1_556     S
Er37     V31    10.0   1_565     S
Er37     Ti35    10.0   1_566     S
Er37     V41    10.0   .     S
Er38     V10    10.0   1_556     S
Er38     Ti35    10.0   1_556     S
Er39     Ti35    10.0   1_566     S
Er39     V41    10.0   .     S
Er39     V60    10.0   1_556     S
Er39     V59    10.0   1_565     S
Er40     V11    10.0   1_565     S
Er40     Ti35    10.0   1_565     S
Er43     V45    10.0   .     S
V44     Er50    10.0   1_455     S
V44     Er51    10.0   .     S
V44     Er27    10.0   1_455     S
V45     Er48    10.0   .     S
V45     Er50    10.0   1_545     S
V45     Er36    10.0   1_545     S
V46     Er53    10.0   .     S
V46     Er48    10.0   .     S
V47     Er52    10.0   .     S
V47     Er51    10.0   .     S
Er48     V12    10.0   1_655     S
Er48     Ti49    10.0   1_655     S
Ti49     Er48    10.0   1_455     S
Ti49     Er50    10.0   1_445     S
Ti49     Er51    10.0   1_545     S
Ti49     Er52    10.0   1_545     S
Ti49     Er53    10.0   1_455     S
Ti49     Er54    10.0   1_445     S
Ti49     Er56    10.0   .     S
Ti49     Er57    10.0   .     S
Er50     V44    10.0   1_655     S
Er50     V45    10.0   1_565     S
Er50     Ti49    10.0   1_665     S
Er50     V55    10.0   .     S
Er51     V11    10.0   1_565     S
Er51     Ti49    10.0   1_565     S
Er52     Ti49    10.0   1_565     S
Er52     V58    10.0   .     S
Er52     V31    10.0   1_565     S
Er53     Ti49    10.0   1_655     S
Er53     V18    10.0   1_655     S
Er53     V59    10.0   .     S
Er54     Ti49    10.0   1_665     S
Er54     V55    10.0   .     S
Er54     V59    10.0   1_565     S
Er54     V58    10.0   1_655     S
V58     Er21    10.0   1_455     S
V58     Er54    10.0   1_455     S
V59     Er54    10.0   1_545     S
V59     Er39    10.0   1_545     S
V60     Er39    10.0   1_554     S
V60     Er21    10.0   1_554     S
