data_xbva
_audit_creation_date              2020-02-04
_audit_creation_method            'Pymatgen'
_symmetry_space_group_name_H-M    'P1'
_symmetry_Int_Tables_number       1
loop_
_symmetry_equiv_pos_as_xyz
  x,y,z
_cell_length_a                    108.6144
_cell_length_b                    108.6144
_cell_length_c                    108.6144
_cell_angle_alpha                 90.0
_cell_angle_beta                 90.0
_cell_angle_gamma                 90.0
loop_
_atom_site_label
_atom_site_type_symbol
_atom_site_fract_x
_atom_site_fract_y
_atom_site_fract_z
Ce1     Ce     0.546   0.454   0.546
Ce2     Ce     0.546   0.454   0.454
Ce3     Ce     0.546   0.546   0.454
Ce4     Ce     0.546   0.546   0.546
Ce5     Ce     0.454   0.454   0.546
Ce6     Ce     0.454   0.454   0.454
Ce7     Ce     0.454   0.546   0.454
Ce8     Ce     0.454   0.546   0.546
V9     V     0.454   0.7174   0.2826
V10     V     0.546   0.7174   0.2826
V11     V     0.546   0.7826   0.2174
V12     V     0.454   0.7826   0.2174
V13     V     0.546   0.2826   0.2826
V14     V     0.454   0.2826   0.2826
V15     V     0.454   0.2174   0.2174
V16     V     0.546   0.2174   0.2174
V17     V     0.546   0.7174   0.7174
V18     V     0.454   0.7174   0.7174
V19     V     0.454   0.7826   0.7826
V20     V     0.546   0.7826   0.7826
V21     V     0.7174   0.2826   0.454
V22     V     0.7174   0.2826   0.546
V23     V     0.7826   0.2174   0.454
V24     V     0.7826   0.2174   0.546
Er25     Er     0.5992   0.3357   0.3357
Ti26     Ti     0.5992   0.4008   0.4008
Er27     Er     0.6643   0.4008   0.3357
Er28     Er     0.6643   0.3357   0.4008
V29     V     0.7174   0.546   0.2826
V30     V     0.7174   0.454   0.2826
V31     V     0.7826   0.454   0.2174
V32     V     0.7826   0.546   0.2174
Er33     Er     0.5992   0.6643   0.3357
Er34     Er     0.6643   0.5992   0.3357
Ti35     Ti     0.5992   0.5992   0.4008
Er36     Er     0.6643   0.6643   0.4008
V37     V     0.7174   0.7174   0.546
V38     V     0.7174   0.7174   0.454
V39     V     0.7826   0.7826   0.454
V40     V     0.7826   0.7826   0.546
Ti41     Ti     0.5992   0.5992   0.5992
Er42     Er     0.6643   0.5992   0.6643
Er43     Er     0.6643   0.6643   0.5992
Er44     Er     0.5992   0.6643   0.6643
V45     V     0.7174   0.454   0.7174
V46     V     0.7174   0.546   0.7174
V47     V     0.7826   0.546   0.7826
V48     V     0.7826   0.454   0.7826
Er49     Er     0.6643   0.3357   0.5992
Er50     Er     0.5992   0.3357   0.6643
Ti51     Ti     0.5992   0.4008   0.5992
Er52     Er     0.6643   0.4008   0.6643
V53     V     0.454   0.2826   0.7174
V54     V     0.546   0.2826   0.7174
V55     V     0.546   0.2174   0.7826
V56     V     0.454   0.2174   0.7826
V57     V     0.2826   0.2826   0.546
V58     V     0.2826   0.2826   0.454
V59     V     0.2174   0.2174   0.454
V60     V     0.2174   0.2174   0.546
Er61     Er     0.3357   0.3357   0.5992
Ti62     Ti     0.4008   0.4008   0.5992
Er63     Er     0.3357   0.4008   0.6643
Er64     Er     0.4008   0.3357   0.6643
V65     V     0.2826   0.546   0.7174
V66     V     0.2826   0.454   0.7174
V67     V     0.2174   0.454   0.7826
V68     V     0.2174   0.546   0.7826
Er69     Er     0.3357   0.5992   0.6643
Er70     Er     0.3357   0.6643   0.5992
Ti71     Ti     0.4008   0.5992   0.5992
Er72     Er     0.4008   0.6643   0.6643
V73     V     0.2826   0.7174   0.454
V74     V     0.2826   0.7174   0.546
V75     V     0.2174   0.7826   0.546
V76     V     0.2174   0.7826   0.454
Er77     Er     0.3357   0.5992   0.3357
Ti78     Ti     0.4008   0.5992   0.4008
Er79     Er     0.3357   0.6643   0.4008
Er80     Er     0.4008   0.6643   0.3357
Er81     Er     0.4008   0.3357   0.3357
Er82     Er     0.3357   0.3357   0.4008
Er83     Er     0.3357   0.4008   0.3357
Ti84     Ti     0.4008   0.4008   0.4008
V85     V     0.2826   0.454   0.2826
V86     V     0.2826   0.546   0.2826
V87     V     0.2174   0.546   0.2174
V88     V     0.2174   0.454   0.2174
Er89     Er     0.0992   0.3357   0.1643
Er90     Er     0.1643   0.3357   0.0992
Ti91     Ti     0.0992   0.4008   0.0992
Er92     Er     0.1643   0.4008   0.1643
Er93     Er     0.3357   0.9008   0.8357
Er94     Er     0.3357   0.8357   0.9008
Ti95     Ti     0.4008   0.9008   0.9008
Er96     Er     0.4008   0.8357   0.8357
Ce97     Ce     0.454   0.954   0.046
Ce98     Ce     0.454   0.046   0.046
Ce99     Ce     0.454   0.046   0.954
Ce100     Ce     0.546   0.046   0.046
Ce101     Ce     0.546   0.046   0.954
Ce102     Ce     0.546   0.954   0.046
Ce103     Ce     0.546   0.954   0.954
Ce104     Ce     0.454   0.954   0.954
Er105     Er     0.9008   0.8357   0.3357
Er106     Er     0.8357   0.9008   0.3357
Ti107     Ti     0.9008   0.9008   0.4008
Er108     Er     0.8357   0.8357   0.4008
Ce109     Ce     0.046   0.954   0.454
Ce110     Ce     0.046   0.046   0.454
Ce111     Ce     0.954   0.046   0.454
Ce112     Ce     0.046   0.954   0.546
Ce113     Ce     0.046   0.046   0.546
Ce114     Ce     0.954   0.046   0.546
Ce115     Ce     0.954   0.954   0.546
Ce116     Ce     0.954   0.954   0.454
Ti117     Ti     0.5992   0.0992   0.0992
Er118     Er     0.5992   0.1643   0.1643
Er119     Er     0.6643   0.1643   0.0992
Er120     Er     0.6643   0.0992   0.1643
Ti121     Ti     0.0992   0.5992   0.0992
Er122     Er     0.1643   0.5992   0.1643
Er123     Er     0.0992   0.6643   0.1643
Er124     Er     0.1643   0.6643   0.0992
Ti125     Ti     0.0992   0.0992   0.5992
Er126     Er     0.1643   0.1643   0.5992
Er127     Er     0.1643   0.0992   0.6643
Er128     Er     0.0992   0.1643   0.6643
V129     V     0.7174   0.2174   0.046
V130     V     0.7174   0.2174   0.954
V131     V     0.7826   0.2826   0.046
V132     V     0.7826   0.2826   0.954
V133     V     0.7174   0.046   0.2174
V134     V     0.7174   0.954   0.2174
V135     V     0.7826   0.046   0.2826
V136     V     0.7826   0.954   0.2826
Ti137     Ti     0.5992   0.9008   0.0992
Er138     Er     0.5992   0.8357   0.1643
Er139     Er     0.6643   0.8357   0.0992
Er140     Er     0.6643   0.9008   0.1643
V141     V     0.046   0.7174   0.2174
V142     V     0.954   0.7174   0.2174
V143     V     0.046   0.7826   0.2826
V144     V     0.954   0.7826   0.2826
V145     V     0.2174   0.046   0.7174
V146     V     0.2174   0.954   0.7174
V147     V     0.2826   0.046   0.7826
V148     V     0.2826   0.954   0.7826
Ti149     Ti     0.9008   0.5992   0.0992
Er150     Er     0.8357   0.5992   0.1643
Er151     Er     0.8357   0.6643   0.0992
Er152     Er     0.9008   0.6643   0.1643
V153     V     0.2174   0.7174   0.046
V154     V     0.2174   0.7174   0.954
V155     V     0.2826   0.7826   0.046
V156     V     0.2826   0.7826   0.954
V157     V     0.046   0.2174   0.7174
V158     V     0.954   0.2174   0.7174
V159     V     0.046   0.2826   0.7826
V160     V     0.954   0.2826   0.7826
Ti161     Ti     0.0992   0.5992   0.9008
Er162     Er     0.1643   0.5992   0.8357
Er163     Er     0.0992   0.6643   0.8357
Er164     Er     0.1643   0.6643   0.9008
Ti165     Ti     0.9008   0.0992   0.5992
Er166     Er     0.8357   0.1643   0.5992
Er167     Er     0.8357   0.0992   0.6643
Er168     Er     0.9008   0.1643   0.6643
Ti169     Ti     0.5992   0.0992   0.9008
Er170     Er     0.5992   0.1643   0.8357
Er171     Er     0.6643   0.0992   0.8357
Er172     Er     0.6643   0.1643   0.9008
Ti173     Ti     0.0992   0.9008   0.5992
Er174     Er     0.1643   0.8357   0.5992
Er175     Er     0.0992   0.8357   0.6643
Er176     Er     0.1643   0.9008   0.6643
V177     V     0.7826   0.7174   0.046
V178     V     0.7826   0.7174   0.954
V179     V     0.7174   0.7826   0.046
V180     V     0.7174   0.7826   0.954
Ti181     Ti     0.5992   0.9008   0.9008
Er182     Er     0.5992   0.8357   0.8357
Er183     Er     0.6643   0.9008   0.8357
Er184     Er     0.6643   0.8357   0.9008
V185     V     0.7174   0.046   0.7826
V186     V     0.7174   0.954   0.7826
V187     V     0.7826   0.046   0.7174
V188     V     0.7826   0.954   0.7174
Ti189     Ti     0.9008   0.9008   0.5992
Er190     Er     0.8357   0.8357   0.5992
Er191     Er     0.9008   0.8357   0.6643
Er192     Er     0.8357   0.9008   0.6643
V193     V     0.046   0.7826   0.7174
V194     V     0.954   0.7826   0.7174
V195     V     0.046   0.7174   0.7826
V196     V     0.954   0.7174   0.7826
Ti197     Ti     0.9008   0.5992   0.9008
Er198     Er     0.8357   0.5992   0.8357
Er199     Er     0.9008   0.6643   0.8357
Er200     Er     0.8357   0.6643   0.9008
Er201     Er     0.8357   0.3357   0.9008
Er202     Er     0.9008   0.3357   0.8357
Ti203     Ti     0.9008   0.4008   0.9008
Er204     Er     0.8357   0.4008   0.8357
Ce205     Ce     0.954   0.546   0.046
Ce206     Ce     0.046   0.546   0.046
Ce207     Ce     0.046   0.546   0.954
Ce208     Ce     0.046   0.454   0.046
Ce209     Ce     0.954   0.454   0.046
Ce210     Ce     0.046   0.454   0.954
Ce211     Ce     0.954   0.454   0.954
Ce212     Ce     0.954   0.546   0.954
Er213     Er     0.0992   0.3357   0.8357
Er214     Er     0.1643   0.3357   0.9008
Ti215     Ti     0.0992   0.4008   0.9008
Er216     Er     0.1643   0.4008   0.8357
V217     V     0.2174   0.2826   0.046
V218     V     0.2174   0.2826   0.954
V219     V     0.2826   0.2174   0.046
V220     V     0.2826   0.2174   0.954
Er221     Er     0.3357   0.0992   0.8357
Er222     Er     0.3357   0.1643   0.9008
Ti223     Ti     0.4008   0.0992   0.9008
Er224     Er     0.4008   0.1643   0.8357
Er225     Er     0.3357   0.1643   0.0992
Er226     Er     0.3357   0.0992   0.1643
Ti227     Ti     0.4008   0.0992   0.0992
Er228     Er     0.4008   0.1643   0.1643
Er229     Er     0.3357   0.8357   0.0992
Er230     Er     0.3357   0.9008   0.1643
Ti231     Ti     0.4008   0.9008   0.0992
Er232     Er     0.4008   0.8357   0.1643
V233     V     0.2826   0.046   0.2174
V234     V     0.2826   0.954   0.2174
V235     V     0.2174   0.046   0.2826
V236     V     0.2174   0.954   0.2826
Er237     Er     0.0992   0.8357   0.3357
Er238     Er     0.1643   0.9008   0.3357
Ti239     Ti     0.0992   0.9008   0.4008
Er240     Er     0.1643   0.8357   0.4008
Er241     Er     0.8357   0.0992   0.3357
Er242     Er     0.9008   0.1643   0.3357
Ti243     Ti     0.9008   0.0992   0.4008
Er244     Er     0.8357   0.1643   0.4008
V245     V     0.046   0.2826   0.2174
V246     V     0.954   0.2826   0.2174
V247     V     0.046   0.2174   0.2826
V248     V     0.954   0.2174   0.2826
Er249     Er     0.8357   0.3357   0.0992
Er250     Er     0.9008   0.3357   0.1643
Ti251     Ti     0.9008   0.4008   0.0992
Er252     Er     0.8357   0.4008   0.1643
Er253     Er     0.1643   0.0992   0.3357
Er254     Er     0.0992   0.1643   0.3357
Ti255     Ti     0.0992   0.0992   0.4008
Er256     Er     0.1643   0.1643   0.4008
loop_
_geom_bond_atom_site_label_1
_geom_bond_atom_site_label_2
_geom_bond_distance
_geom_bond_site_symmetry_2
_ccdc_geom_bond_type
Ce1     Ce2    9.999   .     S
Ce1     Ce4    9.999   .     S
Ce1     Ce5    9.999   .     S
Ce1     Ti51    10.001   .     S
Ce2     Ce3    9.999   .     S
Ce2     Ce6    9.999   .     S
Ce2     Ti26    10.001   .     S
Ce3     Ce4    9.999   .     S
Ce3     Ce7    9.999   .     S
Ce3     Ti35    10.001   .     S
Ce4     Ce8    9.999   .     S
Ce4     Ti41    10.001   .     S
Ce5     Ce6    9.999   .     S
Ce5     Ce8    9.999   .     S
Ce5     Ti62    10.001   .     S
Ce6     Ce7    9.999   .     S
Ce6     Ti84    10.001   .     S
Ce7     Ce8    9.999   .     S
Ce7     Ti78    10.001   .     S
Ce8     Ti71    10.001   .     S
V9     V10    9.999   .     S
V9     V12    10.0   .     S
V9     Er80    10.001   .     S
V10     V11    10.0   .     S
V10     Er33    10.001   .     S
V11     V12    9.999   .     S
V11     Er138    10.001   .     S
V12     Er232    10.001   .     S
V13     V14    9.999   .     S
V13     V16    10.0   .     S
V13     Er25    10.001   .     S
V14     V15    10.0   .     S
V14     Er81    10.001   .     S
V15     V16    9.999   .     S
V15     Er228    10.001   .     S
V16     Er118    10.001   .     S
V17     V18    9.999   .     S
V17     V20    10.0   .     S
V17     Er44    10.001   .     S
V18     V19    10.0   .     S
V18     Er72    10.001   .     S
V19     V20    9.999   .     S
V19     Er96    10.001   .     S
V20     Er182    10.001   .     S
V21     V22    9.999   .     S
V21     V23    10.0   .     S
V21     Er28    10.001   .     S
V22     V24    10.0   .     S
V22     Er49    10.001   .     S
V23     V24    9.999   .     S
V23     Er244    10.001   .     S
V24     Er166    10.001   .     S
Er25     Ti26    10.0   .     S
Er25     Er28    10.0   .     S
Er25     Er27    10.0   .     S
Ti26     Er28    10.0   .     S
Ti26     Er27    10.0   .     S
Er27     Er28    10.0   .     S
Er27     V30    10.001   .     S
V29     V30    9.999   .     S
V29     V32    10.0   .     S
V29     Er34    10.001   .     S
V30     V31    10.0   .     S
V31     V32    9.999   .     S
V31     Er252    10.001   .     S
V32     Er150    10.001   .     S
Er33     Er36    10.0   .     S
Er33     Ti35    10.0   .     S
Er33     Er34    10.0   .     S
Er34     Er36    10.0   .     S
Er34     Ti35    10.0   .     S
Ti35     Er36    10.0   .     S
Er36     V38    10.001   .     S
V37     V38    9.999   .     S
V37     V40    10.0   .     S
V37     Er43    10.001   .     S
V38     V39    10.0   .     S
V39     V40    9.999   .     S
V39     Er108    10.001   .     S
V40     Er190    10.001   .     S
Ti41     Er43    10.0   .     S
Ti41     Er42    10.0   .     S
Ti41     Er44    10.0   .     S
Er42     Er43    10.0   .     S
Er42     Er44    10.0   .     S
Er42     V46    10.001   .     S
Er43     Er44    10.0   .     S
V45     V46    9.999   .     S
V45     V48    10.0   .     S
V45     Er52    10.001   .     S
V46     V47    10.0   .     S
V47     V48    9.999   .     S
V47     Er198    10.001   .     S
V48     Er204    10.001   .     S
Er49     Er52    10.0   .     S
Er49     Ti51    10.0   .     S
Er49     Er50    10.0   .     S
Er50     Er52    10.0   .     S
Er50     Ti51    10.0   .     S
Er50     V54    10.001   .     S
Ti51     Er52    10.0   .     S
V53     V54    9.999   .     S
V53     V56    10.0   .     S
V53     Er64    10.001   .     S
V54     V55    10.0   .     S
V55     V56    9.999   .     S
V55     Er170    10.001   .     S
V56     Er224    10.001   .     S
V57     V58    9.999   .     S
V57     V60    10.0   .     S
V57     Er61    10.001   .     S
V58     V59    10.0   .     S
V58     Er82    10.001   .     S
V59     V60    9.999   .     S
V59     Er256    10.001   .     S
V60     Er126    10.001   .     S
Er61     Ti62    10.0   .     S
Er61     Er63    10.0   .     S
Er61     Er64    10.0   .     S
Ti62     Er63    10.0   .     S
Ti62     Er64    10.0   .     S
Er63     Er64    10.0   .     S
Er63     V66    10.001   .     S
V65     V66    9.999   .     S
V65     V68    10.0   .     S
V65     Er69    10.001   .     S
V66     V67    10.0   .     S
V67     V68    9.999   .     S
V67     Er216    10.001   .     S
V68     Er162    10.001   .     S
Er69     Er72    10.0   .     S
Er69     Ti71    10.0   .     S
Er69     Er70    10.0   .     S
Er70     Er72    10.0   .     S
Er70     Ti71    10.0   .     S
Er70     V74    10.001   .     S
Ti71     Er72    10.0   .     S
V73     V74    9.999   .     S
V73     V76    10.0   .     S
V73     Er79    10.001   .     S
V74     V75    10.0   .     S
V75     V76    9.999   .     S
V75     Er174    10.001   .     S
V76     Er240    10.001   .     S
Er77     Er79    10.0   .     S
Er77     Ti78    10.0   .     S
Er77     Er80    10.0   .     S
Er77     V86    10.001   .     S
Ti78     Er79    10.0   .     S
Ti78     Er80    10.0   .     S
Er79     Er80    10.0   .     S
Er81     Ti84    10.0   .     S
Er81     Er82    10.0   .     S
Er81     Er83    10.0   .     S
Er82     Ti84    10.0   .     S
Er82     Er83    10.0   .     S
Er83     Ti84    10.0   .     S
Er83     V85    10.001   .     S
V85     V86    9.999   .     S
V85     V88    10.0   .     S
V86     V87    10.0   .     S
V87     V88    9.999   .     S
V87     Er122    10.001   .     S
V88     Er92    10.001   .     S
Er89     Er92    10.0   .     S
Er89     Er90    10.0   .     S
Er89     Ti91    10.0   .     S
Er89     V245    10.001   .     S
Er90     Er92    10.0   .     S
Er90     Ti91    10.0   .     S
Er90     V217    10.001   .     S
Ti91     Er92    10.0   .     S
Ti91     Ce208    10.001   .     S
Er93     Ti95    10.0   .     S
Er93     Er94    10.0   .     S
Er93     Er96    10.0   .     S
Er93     V148    10.001   .     S
Er94     Ti95    10.0   .     S
Er94     Er96    10.0   .     S
Er94     V156    10.001   .     S
Ti95     Er96    10.0   .     S
Ti95     Ce104    10.001   .     S
Ce97     Ce104    9.999   1_554     S
Ce97     Ce98    9.999   1_565     S
Ce97     Ce102    9.999   .     S
Ce97     Ti231    10.001   .     S
Ce98     Ce99    9.999   1_554     S
Ce98     Ce97    9.999   1_545     S
Ce98     Ce100    9.999   .     S
Ce98     Ti227    10.001   .     S
Ce99     Ce98    9.999   1_556     S
Ce99     Ce104    9.999   1_545     S
Ce99     Ce101    9.999   .     S
Ce99     Ti223    10.001   .     S
Ce100     Ce101    9.999   1_554     S
Ce100     Ce102    9.999   1_545     S
Ce100     Ti117    10.001   .     S
Ce101     Ce100    9.999   1_556     S
Ce101     Ce103    9.999   1_545     S
Ce101     Ti169    10.001   .     S
Ce102     Ce100    9.999   1_565     S
Ce102     Ce103    9.999   1_554     S
Ce102     Ti137    10.001   .     S
Ce103     Ce101    9.999   1_565     S
Ce103     Ce102    9.999   1_556     S
Ce103     Ce104    9.999   .     S
Ce103     Ti181    10.001   .     S
Ce104     Ce97    9.999   1_556     S
Ce104     Ce99    9.999   1_565     S
Er105     Ti107    10.0   .     S
Er105     Er106    10.0   .     S
Er105     Er108    10.0   .     S
Er105     V144    10.001   .     S
Er106     Ti107    10.0   .     S
Er106     Er108    10.0   .     S
Er106     V136    10.001   .     S
Ti107     Er108    10.0   .     S
Ti107     Ce116    10.001   .     S
Ce109     Ce116    9.999   1_455     S
Ce109     Ce110    9.999   1_565     S
Ce109     Ce112    9.999   .     S
Ce109     Ti239    10.001   .     S
Ce110     Ce111    9.999   1_455     S
Ce110     Ce109    9.999   1_545     S
Ce110     Ce113    9.999   .     S
Ce110     Ti255    10.001   .     S
Ce111     Ce110    9.999   1_655     S
Ce111     Ce116    9.999   1_545     S
Ce111     Ce114    9.999   .     S
Ce111     Ti243    10.001   .     S
Ce112     Ce115    9.999   1_455     S
Ce112     Ce113    9.999   1_565     S
Ce112     Ti173    10.001   .     S
Ce113     Ce114    9.999   1_455     S
Ce113     Ce112    9.999   1_545     S
Ce113     Ti125    10.001   .     S
Ce114     Ce113    9.999   1_655     S
Ce114     Ce115    9.999   1_545     S
Ce114     Ti165    10.001   .     S
Ce115     Ce112    9.999   1_655     S
Ce115     Ce114    9.999   1_565     S
Ce115     Ce116    9.999   .     S
Ce115     Ti189    10.001   .     S
Ce116     Ce109    9.999   1_655     S
Ce116     Ce111    9.999   1_565     S
Ti117     Er119    10.0   .     S
Ti117     Er120    10.0   .     S
Ti117     Er118    10.0   .     S
Er118     Er120    10.0   .     S
Er118     Er119    10.0   .     S
Er119     Er120    10.0   .     S
Er119     V129    10.001   .     S
Er120     V133    10.001   .     S
Ti121     Er123    10.0   .     S
Ti121     Er124    10.0   .     S
Ti121     Er122    10.0   .     S
Ti121     Ce206    10.001   .     S
Er122     Er123    10.0   .     S
Er122     Er124    10.0   .     S
Er123     Er124    10.0   .     S
Er123     V141    10.001   .     S
Er124     V153    10.001   .     S
Ti125     Er127    10.0   .     S
Ti125     Er128    10.0   .     S
Ti125     Er126    10.0   .     S
Er126     Er128    10.0   .     S
Er126     Er127    10.0   .     S
Er127     Er128    10.0   .     S
Er127     V145    10.001   .     S
Er128     V157    10.001   .     S
V129     V130    9.999   1_554     S
V129     V131    10.0   .     S
V130     V129    9.999   1_556     S
V130     V132    10.0   .     S
V130     Er172    10.001   .     S
V131     V132    9.999   1_554     S
V131     Er249    10.001   .     S
V132     V131    9.999   1_556     S
V132     Er201    10.001   .     S
V133     V134    9.999   1_545     S
V133     V135    10.0   .     S
V134     V133    9.999   1_565     S
V134     V136    10.0   .     S
V134     Er140    10.001   .     S
V135     V136    9.999   1_545     S
V135     Er241    10.001   .     S
V136     V135    9.999   1_565     S
Ti137     Er140    10.0   .     S
Ti137     Er139    10.0   .     S
Ti137     Er138    10.0   .     S
Er138     Er140    10.0   .     S
Er138     Er139    10.0   .     S
Er139     Er140    10.0   .     S
Er139     V179    10.001   .     S
V141     V142    9.999   1_455     S
V141     V143    10.0   .     S
V142     V141    9.999   1_655     S
V142     V144    10.0   .     S
V142     Er152    10.001   .     S
V143     V144    9.999   1_455     S
V143     Er237    10.001   .     S
V144     V143    9.999   1_655     S
V145     V146    9.999   1_545     S
V145     V147    10.0   .     S
V146     V145    9.999   1_565     S
V146     V148    10.0   .     S
V146     Er176    10.001   .     S
V147     V148    9.999   1_545     S
V147     Er221    10.001   .     S
V148     V147    9.999   1_565     S
Ti149     Er152    10.0   .     S
Ti149     Er151    10.0   .     S
Ti149     Er150    10.0   .     S
Ti149     Ce205    10.001   .     S
Er150     Er152    10.0   .     S
Er150     Er151    10.0   .     S
Er151     Er152    10.0   .     S
Er151     V177    10.001   .     S
V153     V154    9.999   1_554     S
V153     V155    10.0   .     S
V154     V153    9.999   1_556     S
V154     V156    10.0   .     S
V154     Er164    10.001   .     S
V155     V156    9.999   1_554     S
V155     Er229    10.001   .     S
V156     V155    9.999   1_556     S
V157     V158    9.999   1_455     S
V157     V159    10.0   .     S
V158     V157    9.999   1_655     S
V158     V160    10.0   .     S
V158     Er168    10.001   .     S
V159     V160    9.999   1_455     S
V159     Er213    10.001   .     S
V160     V159    9.999   1_655     S
V160     Er202    10.001   .     S
Ti161     Er164    10.0   .     S
Ti161     Er163    10.0   .     S
Ti161     Er162    10.0   .     S
Ti161     Ce207    10.001   .     S
Er162     Er164    10.0   .     S
Er162     Er163    10.0   .     S
Er163     Er164    10.0   .     S
Er163     V195    10.001   .     S
Ti165     Er168    10.0   .     S
Ti165     Er167    10.0   .     S
Ti165     Er166    10.0   .     S
Er166     Er168    10.0   .     S
Er166     Er167    10.0   .     S
Er167     Er168    10.0   .     S
Er167     V187    10.001   .     S
Ti169     Er172    10.0   .     S
Ti169     Er171    10.0   .     S
Ti169     Er170    10.0   .     S
Er170     Er172    10.0   .     S
Er170     Er171    10.0   .     S
Er171     Er172    10.0   .     S
Er171     V185    10.001   .     S
Ti173     Er176    10.0   .     S
Ti173     Er175    10.0   .     S
Ti173     Er174    10.0   .     S
Er174     Er176    10.0   .     S
Er174     Er175    10.0   .     S
Er175     Er176    10.0   .     S
Er175     V193    10.001   .     S
V177     V178    9.999   1_554     S
V177     V179    10.0   .     S
V178     V177    9.999   1_556     S
V178     V180    10.0   .     S
V178     Er200    10.001   .     S
V179     V180    9.999   1_554     S
V180     V179    9.999   1_556     S
V180     Er184    10.001   .     S
Ti181     Er184    10.0   .     S
Ti181     Er183    10.0   .     S
Ti181     Er182    10.0   .     S
Er182     Er183    10.0   .     S
Er182     Er184    10.0   .     S
Er183     Er184    10.0   .     S
Er183     V186    10.001   .     S
V185     V186    9.999   1_545     S
V185     V187    10.0   .     S
V186     V185    9.999   1_565     S
V186     V188    10.0   .     S
V187     V188    9.999   1_545     S
V188     V187    9.999   1_565     S
V188     Er192    10.001   .     S
Ti189     Er192    10.0   .     S
Ti189     Er191    10.0   .     S
Ti189     Er190    10.0   .     S
Er190     Er191    10.0   .     S
Er190     Er192    10.0   .     S
Er191     Er192    10.0   .     S
Er191     V194    10.001   .     S
V193     V194    9.999   1_455     S
V193     V195    10.0   .     S
V194     V193    9.999   1_655     S
V194     V196    10.0   .     S
V195     V196    9.999   1_455     S
V196     V195    9.999   1_655     S
V196     Er199    10.001   .     S
Ti197     Er199    10.0   .     S
Ti197     Er200    10.0   .     S
Ti197     Er198    10.0   .     S
Ti197     Ce212    10.001   .     S
Er198     Er199    10.0   .     S
Er198     Er200    10.0   .     S
Er199     Er200    10.0   .     S
Er201     Ti203    10.0   .     S
Er201     Er202    10.0   .     S
Er201     Er204    10.0   .     S
Er202     Ti203    10.0   .     S
Er202     Er204    10.0   .     S
Ti203     Er204    10.0   .     S
Ti203     Ce211    10.001   .     S
Ce205     Ce212    9.999   1_554     S
Ce205     Ce206    9.999   1_655     S
Ce205     Ce209    9.999   .     S
Ce206     Ce207    9.999   1_554     S
Ce206     Ce205    9.999   1_455     S
Ce206     Ce208    9.999   .     S
Ce207     Ce206    9.999   1_556     S
Ce207     Ce212    9.999   1_455     S
Ce207     Ce210    9.999   .     S
Ce208     Ce210    9.999   1_554     S
Ce208     Ce209    9.999   1_455     S
Ce209     Ce208    9.999   1_655     S
Ce209     Ce211    9.999   1_554     S
Ce209     Ti251    10.001   .     S
Ce210     Ce208    9.999   1_556     S
Ce210     Ce211    9.999   1_455     S
Ce210     Ti215    10.001   .     S
Ce211     Ce209    9.999   1_556     S
Ce211     Ce210    9.999   1_655     S
Ce211     Ce212    9.999   .     S
Ce212     Ce205    9.999   1_556     S
Ce212     Ce207    9.999   1_655     S
Er213     Er216    10.0   .     S
Er213     Ti215    10.0   .     S
Er213     Er214    10.0   .     S
Er214     Ti215    10.0   .     S
Er214     Er216    10.0   .     S
Er214     V218    10.001   .     S
Ti215     Er216    10.0   .     S
V217     V218    9.999   1_554     S
V217     V219    10.0   .     S
V218     V217    9.999   1_556     S
V218     V220    10.0   .     S
V219     V220    9.999   1_554     S
V219     Er225    10.001   .     S
V220     V219    9.999   1_556     S
V220     Er222    10.001   .     S
Er221     Er224    10.0   .     S
Er221     Ti223    10.0   .     S
Er221     Er222    10.0   .     S
Er222     Ti223    10.0   .     S
Er222     Er224    10.0   .     S
Ti223     Er224    10.0   .     S
Er225     Er228    10.0   .     S
Er225     Er226    10.0   .     S
Er225     Ti227    10.0   .     S
Er226     Er228    10.0   .     S
Er226     Ti227    10.0   .     S
Er226     V233    10.001   .     S
Ti227     Er228    10.0   .     S
Er229     Er232    10.0   .     S
Er229     Ti231    10.0   .     S
Er229     Er230    10.0   .     S
Er230     Ti231    10.0   .     S
Er230     Er232    10.0   .     S
Er230     V234    10.001   .     S
Ti231     Er232    10.0   .     S
V233     V234    9.999   1_545     S
V233     V235    10.0   .     S
V234     V233    9.999   1_565     S
V234     V236    10.0   .     S
V235     V236    9.999   1_545     S
V235     Er253    10.001   .     S
V236     V235    9.999   1_565     S
V236     Er238    10.001   .     S
Er237     Er240    10.0   .     S
Er237     Ti239    10.0   .     S
Er237     Er238    10.0   .     S
Er238     Ti239    10.0   .     S
Er238     Er240    10.0   .     S
Ti239     Er240    10.0   .     S
Er241     Er244    10.0   .     S
Er241     Ti243    10.0   .     S
Er241     Er242    10.0   .     S
Er242     Ti243    10.0   .     S
Er242     Er244    10.0   .     S
Er242     V248    10.001   .     S
Ti243     Er244    10.0   .     S
V245     V246    9.999   1_455     S
V245     V247    10.0   .     S
V246     V245    9.999   1_655     S
V246     V248    10.0   .     S
V246     Er250    10.001   .     S
V247     V248    9.999   1_455     S
V247     Er254    10.001   .     S
V248     V247    9.999   1_655     S
Er249     Er252    10.0   .     S
Er249     Ti251    10.0   .     S
Er249     Er250    10.0   .     S
Er250     Ti251    10.0   .     S
Er250     Er252    10.0   .     S
Ti251     Er252    10.0   .     S
Er253     Er256    10.0   .     S
Er253     Er254    10.0   .     S
Er253     Ti255    10.0   .     S
Er254     Er256    10.0   .     S
Er254     Ti255    10.0   .     S
Ti255     Er256    10.0   .     S
