data_xbza
_audit_creation_date              2020-02-04
_audit_creation_method            'Pymatgen'
_symmetry_space_group_name_H-M    'P1'
_symmetry_Int_Tables_number       1
loop_
_symmetry_equiv_pos_as_xyz
  x,y,z
_cell_length_a                    99.4142
_cell_length_b                    99.4142
_cell_length_c                    99.4142
_cell_angle_alpha                 90.0
_cell_angle_beta                 90.0
_cell_angle_gamma                 90.0
loop_
_atom_site_label
_atom_site_type_symbol
_atom_site_fract_x
_atom_site_fract_y
_atom_site_fract_z
Ce1     Ce     0.9823   0.0888   0.9112
Ce2     Ce     0.9112   0.0888   0.9823
Ce3     Ce     0.9112   0.0177   0.9112
Ce4     Ce     0.0888   0.9823   0.9112
Ce5     Ce     0.0888   0.9112   0.9823
Ce6     Ce     0.0177   0.9112   0.9112
Ce7     Ce     0.9112   0.9823   0.0888
Ce8     Ce     0.9823   0.9112   0.0888
Ce9     Ce     0.9112   0.9112   0.0177
Ce10     Ce     0.0177   0.0888   0.0888
Ce11     Ce     0.0888   0.0177   0.0888
Ce12     Ce     0.0888   0.0888   0.0177
Er13     Er     0.6564   0.6564   0.8436
Ti14     Ti     0.6326   0.6327   0.9385
Ti15     Ti     0.5615   0.6326   0.8674
Ti16     Ti     0.6326   0.5615   0.8674
Er17     Er     0.6564   0.8436   0.6564
Ti18     Ti     0.6326   0.9385   0.6327
Ti19     Ti     0.5615   0.8674   0.6326
Ti20     Ti     0.6326   0.8674   0.5615
Er21     Er     0.8436   0.6564   0.6564
Ti22     Ti     0.9385   0.6326   0.6327
Ti23     Ti     0.8674   0.6326   0.5615
Ti24     Ti     0.8674   0.5615   0.6326
Ti25     Ti     0.9385   0.8674   0.8674
Ti26     Ti     0.8674   0.9385   0.8674
Ti27     Ti     0.8674   0.8674   0.9385
Er28     Er     0.8436   0.8436   0.8436
V29     V     0.7856   0.7144   0.7144
V30     V     0.7144   0.7856   0.7144
V31     V     0.7144   0.7144   0.7856
V32     V     0.7856   0.7856   0.7856
Ce33     Ce     0.5888   0.4112   0.9823
Ce34     Ce     0.5177   0.4112   0.9112
Ce35     Ce     0.5888   0.4823   0.9112
Ce36     Ce     0.4112   0.5888   0.9823
Ce37     Ce     0.4112   0.5177   0.9112
Ce38     Ce     0.4823   0.5888   0.9112
Ce39     Ce     0.4112   0.9823   0.5888
Ce40     Ce     0.4112   0.9112   0.5177
Ce41     Ce     0.4823   0.9112   0.5888
Ce42     Ce     0.5888   0.9823   0.4112
Ce43     Ce     0.5177   0.9112   0.4112
Ce44     Ce     0.5888   0.9112   0.4823
Ce45     Ce     0.9823   0.4112   0.5888
Ce46     Ce     0.9112   0.4112   0.5177
Ce47     Ce     0.9112   0.4823   0.5888
Ce48     Ce     0.9823   0.5888   0.4112
Ce49     Ce     0.9112   0.5177   0.4112
Ce50     Ce     0.9112   0.5888   0.4823
Er51     Er     0.6564   0.3436   0.1564
Ti52     Ti     0.5615   0.3674   0.1326
Ti53     Ti     0.6326   0.3674   0.0615
Ti54     Ti     0.6326   0.4385   0.1326
Er55     Er     0.6564   0.1564   0.3436
Ti56     Ti     0.5615   0.1326   0.3674
Ti57     Ti     0.6326   0.0615   0.3674
Ti58     Ti     0.6326   0.1326   0.4385
Ti59     Ti     0.9385   0.1326   0.1326
Er60     Er     0.8436   0.1564   0.1564
Ti61     Ti     0.8674   0.0615   0.1326
Ti62     Ti     0.8674   0.1326   0.0615
Ti63     Ti     0.9385   0.3674   0.3674
Er64     Er     0.8436   0.3436   0.3436
Ti65     Ti     0.8674   0.4385   0.3674
Ti66     Ti     0.8674   0.3674   0.4385
V67     V     0.7856   0.2856   0.2856
V68     V     0.7856   0.2144   0.2144
V69     V     0.7144   0.2856   0.2144
V70     V     0.7144   0.2144   0.2856
Ce71     Ce     0.4112   0.4823   0.0888
Ce72     Ce     0.4823   0.4112   0.0888
Ce73     Ce     0.4112   0.4112   0.0177
Ce74     Ce     0.5177   0.5888   0.0888
Ce75     Ce     0.5888   0.5177   0.0888
Ce76     Ce     0.5888   0.5888   0.0177
Er77     Er     0.3436   0.6564   0.1564
Ti78     Ti     0.3674   0.6327   0.0615
Ti79     Ti     0.3674   0.5615   0.1326
Ti80     Ti     0.4385   0.6326   0.1326
Er81     Er     0.1564   0.6564   0.3436
Ti82     Ti     0.1326   0.5615   0.3674
Ti83     Ti     0.0615   0.6326   0.3674
Ti84     Ti     0.1326   0.6326   0.4385
Ti85     Ti     0.1326   0.9385   0.1326
Er86     Er     0.1564   0.8436   0.1564
Ti87     Ti     0.0615   0.8674   0.1326
Ti88     Ti     0.1326   0.8674   0.0615
Ti89     Ti     0.3674   0.9385   0.3674
Er90     Er     0.3436   0.8436   0.3436
Ti91     Ti     0.4385   0.8674   0.3674
Ti92     Ti     0.3674   0.8674   0.4385
V93     V     0.2856   0.7856   0.2856
V94     V     0.2144   0.7856   0.2144
V95     V     0.2856   0.7144   0.2144
V96     V     0.2144   0.7144   0.2856
Ce97     Ce     0.4112   0.0888   0.4823
Ce98     Ce     0.4823   0.0888   0.4112
Ce99     Ce     0.4112   0.0177   0.4112
Ce100     Ce     0.5177   0.0888   0.5888
Ce101     Ce     0.5888   0.0888   0.5177
Ce102     Ce     0.5888   0.0177   0.5888
Ce103     Ce     0.0888   0.4112   0.4823
Ce104     Ce     0.0888   0.4823   0.4112
Ce105     Ce     0.0177   0.4112   0.4112
Ce106     Ce     0.0888   0.5177   0.5888
Ce107     Ce     0.0888   0.5888   0.5177
Ce108     Ce     0.0177   0.5888   0.5888
Er109     Er     0.3436   0.1564   0.6564
Ti110     Ti     0.3674   0.0615   0.6327
Ti111     Ti     0.3674   0.1326   0.5615
Ti112     Ti     0.4385   0.1326   0.6326
Er113     Er     0.1564   0.3436   0.6564
Ti114     Ti     0.0615   0.3674   0.6327
Ti115     Ti     0.1326   0.3674   0.5615
Ti116     Ti     0.1326   0.4385   0.6326
Ti117     Ti     0.1326   0.1326   0.9385
Er118     Er     0.1564   0.1564   0.8436
Ti119     Ti     0.0615   0.1326   0.8674
Ti120     Ti     0.1326   0.0615   0.8674
V121     V     0.2144   0.2144   0.7856
V122     V     0.2856   0.2856   0.7856
V123     V     0.2144   0.2856   0.7144
V124     V     0.2856   0.2144   0.7144
Ti125     Ti     0.3674   0.3674   0.9385
Er126     Er     0.3436   0.3436   0.8436
Ti127     Ti     0.4385   0.3674   0.8674
Ti128     Ti     0.3674   0.4385   0.8674
loop_
_geom_bond_atom_site_label_1
_geom_bond_atom_site_label_2
_geom_bond_distance
_geom_bond_site_symmetry_2
_ccdc_geom_bond_type
Ce1     Ce3    9.999   .     S
Ce1     Ce2    9.999   .     S
Ce1     Ti119    10.0   1_655     S
Ce2     Ce3    9.999   .     S
Ce2     Ti62    10.0   1_556     S
Ce3     Ti26    10.0   1_545     S
Ce4     Ce6    9.999   .     S
Ce4     Ce5    9.999   .     S
Ce4     Ti120    10.0   1_565     S
Ce5     Ce6    9.999   .     S
Ce5     Ti88    10.0   1_556     S
Ce6     Ti25    10.0   1_455     S
Ce7     Ce9    9.999   .     S
Ce7     Ce8    9.999   .     S
Ce7     Ti61    10.0   1_565     S
Ce8     Ce9    9.999   .     S
Ce8     Ti87    10.0   1_655     S
Ce9     Ti27    10.0   1_554     S
Ce10     Ce11    9.999   .     S
Ce10     Ce12    9.999   .     S
Ce10     Ti59    10.0   1_455     S
Ce11     Ce12    9.999   .     S
Ce11     Ti85    10.0   1_545     S
Ce12     Ti117    10.0   1_554     S
Er13     Ti16    10.0   .     S
Er13     Ti15    10.0   .     S
Er13     Ti14    10.0   .     S
Er13     V31    10.001   .     S
Ti14     Ce76    10.0   1_556     S
Ti14     Ti16    10.0   .     S
Ti14     Ti15    10.0   .     S
Ti15     Ce38    10.0   .     S
Ti15     Ti16    10.0   .     S
Ti16     Ce35    10.0   .     S
Er17     Ti20    10.0   .     S
Er17     Ti19    10.0   .     S
Er17     Ti18    10.0   .     S
Er17     V30    10.001   .     S
Ti18     Ce102    10.0   1_565     S
Ti18     Ti20    10.0   .     S
Ti18     Ti19    10.0   .     S
Ti19     Ce41    10.0   .     S
Ti19     Ti20    10.0   .     S
Ti20     Ce44    10.0   .     S
Er21     Ti23    10.0   .     S
Er21     Ti24    10.0   .     S
Er21     Ti22    10.0   .     S
Er21     V29    10.001   .     S
Ti22     Ce108    10.0   1_655     S
Ti22     Ti23    10.0   .     S
Ti22     Ti24    10.0   .     S
Ti23     Ce50    10.0   .     S
Ti23     Ti24    10.0   .     S
Ti24     Ce47    10.0   .     S
Ti25     Ce6    10.0   1_655     S
Ti25     Ti27    10.0   .     S
Ti25     Ti26    10.0   .     S
Ti25     Er28    10.0   .     S
Ti26     Ce3    10.0   1_565     S
Ti26     Ti27    10.0   .     S
Ti26     Er28    10.0   .     S
Ti27     Ce9    10.0   1_556     S
Ti27     Er28    10.0   .     S
Er28     V32    10.001   .     S
V29     V30    9.999   .     S
V29     V31    9.999   .     S
V29     V32    9.999   .     S
V30     V31    9.999   .     S
V30     V32    9.999   .     S
V31     V32    9.999   .     S
Ce33     Ce34    9.999   .     S
Ce33     Ce35    9.999   .     S
Ce33     Ti53    10.0   1_556     S
Ce34     Ce35    9.999   .     S
Ce34     Ti127    10.0   .     S
Ce36     Ce37    9.999   .     S
Ce36     Ce38    9.999   .     S
Ce36     Ti78    10.0   1_556     S
Ce37     Ce38    9.999   .     S
Ce37     Ti128    10.0   .     S
Ce39     Ce40    9.999   .     S
Ce39     Ce41    9.999   .     S
Ce39     Ti110    10.0   1_565     S
Ce40     Ce41    9.999   .     S
Ce40     Ti92    10.0   .     S
Ce42     Ce43    9.999   .     S
Ce42     Ce44    9.999   .     S
Ce42     Ti57    10.0   1_565     S
Ce43     Ce44    9.999   .     S
Ce43     Ti91    10.0   .     S
Ce45     Ce46    9.999   .     S
Ce45     Ce47    9.999   .     S
Ce45     Ti114    10.0   1_655     S
Ce46     Ce47    9.999   .     S
Ce46     Ti66    10.0   .     S
Ce48     Ce49    9.999   .     S
Ce48     Ce50    9.999   .     S
Ce48     Ti83    10.0   1_655     S
Ce49     Ce50    9.999   .     S
Ce49     Ti65    10.0   .     S
Er51     Ti54    10.0   .     S
Er51     Ti53    10.0   .     S
Er51     Ti52    10.0   .     S
Er51     V69    10.001   .     S
Ti52     Ce72    10.0   .     S
Ti52     Ti53    10.0   .     S
Ti52     Ti54    10.0   .     S
Ti53     Ce33    10.0   1_554     S
Ti53     Ti54    10.0   .     S
Ti54     Ce75    10.0   .     S
Er55     Ti58    10.0   .     S
Er55     Ti57    10.0   .     S
Er55     Ti56    10.0   .     S
Er55     V70    10.001   .     S
Ti56     Ce98    10.0   .     S
Ti56     Ti57    10.0   .     S
Ti56     Ti58    10.0   .     S
Ti57     Ce42    10.0   1_545     S
Ti57     Ti58    10.0   .     S
Ti58     Ce101    10.0   .     S
Ti59     Ce10    10.0   1_655     S
Ti59     Er60    10.0   .     S
Ti59     Ti62    10.0   .     S
Ti59     Ti61    10.0   .     S
Er60     Ti61    10.0   .     S
Er60     Ti62    10.0   .     S
Er60     V68    10.001   .     S
Ti61     Ce7    10.0   1_545     S
Ti61     Ti62    10.0   .     S
Ti62     Ce2    10.0   1_554     S
Ti63     Ce105    10.0   1_655     S
Ti63     Er64    10.0   .     S
Ti63     Ti66    10.0   .     S
Ti63     Ti65    10.0   .     S
Er64     Ti66    10.0   .     S
Er64     Ti65    10.0   .     S
Er64     V67    10.001   .     S
Ti65     Ti66    10.0   .     S
V67     V68    9.999   .     S
V67     V70    9.999   .     S
V67     V69    9.999   .     S
V68     V69    9.999   .     S
V68     V70    9.999   .     S
V69     V70    9.999   .     S
Ce71     Ce72    9.999   .     S
Ce71     Ce73    9.999   .     S
Ce71     Ti79    10.0   .     S
Ce72     Ce73    9.999   .     S
Ce73     Ti125    10.0   1_554     S
Ce74     Ce75    9.999   .     S
Ce74     Ce76    9.999   .     S
Ce74     Ti80    10.0   .     S
Ce75     Ce76    9.999   .     S
Ce76     Ti14    10.0   1_554     S
Er77     Ti80    10.0   .     S
Er77     Ti78    10.0   .     S
Er77     Ti79    10.0   .     S
Er77     V95    10.001   .     S
Ti78     Ce36    10.0   1_554     S
Ti78     Ti79    10.0   .     S
Ti78     Ti80    10.0   .     S
Ti79     Ti80    10.0   .     S
Er81     Ti84    10.0   .     S
Er81     Ti83    10.0   .     S
Er81     Ti82    10.0   .     S
Er81     V96    10.001   .     S
Ti82     Ce104    10.0   .     S
Ti82     Ti83    10.0   .     S
Ti82     Ti84    10.0   .     S
Ti83     Ce48    10.0   1_455     S
Ti83     Ti84    10.0   .     S
Ti84     Ce107    10.0   .     S
Ti85     Ce11    10.0   1_565     S
Ti85     Er86    10.0   .     S
Ti85     Ti88    10.0   .     S
Ti85     Ti87    10.0   .     S
Er86     Ti87    10.0   .     S
Er86     Ti88    10.0   .     S
Er86     V94    10.001   .     S
Ti87     Ce8    10.0   1_455     S
Ti87     Ti88    10.0   .     S
Ti88     Ce5    10.0   1_554     S
Ti89     Ce99    10.0   1_565     S
Ti89     Er90    10.0   .     S
Ti89     Ti92    10.0   .     S
Ti89     Ti91    10.0   .     S
Er90     Ti92    10.0   .     S
Er90     Ti91    10.0   .     S
Er90     V93    10.001   .     S
Ti91     Ti92    10.0   .     S
V93     V94    9.999   .     S
V93     V96    9.999   .     S
V93     V95    9.999   .     S
V94     V95    9.999   .     S
V94     V96    9.999   .     S
V95     V96    9.999   .     S
Ce97     Ce98    9.999   .     S
Ce97     Ce99    9.999   .     S
Ce97     Ti111    10.0   .     S
Ce98     Ce99    9.999   .     S
Ce99     Ti89    10.0   1_545     S
Ce100     Ce101    9.999   .     S
Ce100     Ce102    9.999   .     S
Ce100     Ti112    10.0   .     S
Ce101     Ce102    9.999   .     S
Ce102     Ti18    10.0   1_545     S
Ce103     Ce104    9.999   .     S
Ce103     Ce105    9.999   .     S
Ce103     Ti115    10.0   .     S
Ce104     Ce105    9.999   .     S
Ce105     Ti63    10.0   1_455     S
Ce106     Ce107    9.999   .     S
Ce106     Ce108    9.999   .     S
Ce106     Ti116    10.0   .     S
Ce107     Ce108    9.999   .     S
Ce108     Ti22    10.0   1_455     S
Er109     Ti112    10.0   .     S
Er109     Ti110    10.0   .     S
Er109     Ti111    10.0   .     S
Er109     V124    10.001   .     S
Ti110     Ce39    10.0   1_545     S
Ti110     Ti111    10.0   .     S
Ti110     Ti112    10.0   .     S
Ti111     Ti112    10.0   .     S
Er113     Ti116    10.0   .     S
Er113     Ti114    10.0   .     S
Er113     Ti115    10.0   .     S
Er113     V123    10.001   .     S
Ti114     Ce45    10.0   1_455     S
Ti114     Ti115    10.0   .     S
Ti114     Ti116    10.0   .     S
Ti115     Ti116    10.0   .     S
Ti117     Ce12    10.0   1_556     S
Ti117     Er118    10.0   .     S
Ti117     Ti120    10.0   .     S
Ti117     Ti119    10.0   .     S
Er118     Ti120    10.0   .     S
Er118     Ti119    10.0   .     S
Er118     V121    10.001   .     S
Ti119     Ce1    10.0   1_455     S
Ti119     Ti120    10.0   .     S
Ti120     Ce4    10.0   1_545     S
V121     V122    9.999   .     S
V121     V124    9.999   .     S
V121     V123    9.999   .     S
V122     V123    9.999   .     S
V122     V124    9.999   .     S
V122     Er126    10.001   .     S
V123     V124    9.999   .     S
Ti125     Ce73    10.0   1_556     S
Ti125     Er126    10.0   .     S
Ti125     Ti128    10.0   .     S
Ti125     Ti127    10.0   .     S
Er126     Ti128    10.0   .     S
Er126     Ti127    10.0   .     S
Ti127     Ti128    10.0   .     S
