data_xcb
_audit_creation_date              2020-02-04
_audit_creation_method            'Pymatgen'
_symmetry_space_group_name_H-M    'P1'
_symmetry_Int_Tables_number       1
loop_
_symmetry_equiv_pos_as_xyz
  x,y,z
_cell_length_a                    48.9159
_cell_length_b                    48.9159
_cell_length_c                    26.7466
_cell_angle_alpha                 90.0
_cell_angle_beta                 90.0
_cell_angle_gamma                 120.0
loop_
_atom_site_label
_atom_site_type_symbol
_atom_site_fract_x
_atom_site_fract_y
_atom_site_fract_z
V1     V     0.1111   0.5556   0.4369
Er2     Er     0.3333   0.6667   0.5631
V3     V     0.4444   0.5556   0.4369
V4     V     0.8889   0.4444   0.5631
V5     V     0.5556   0.4444   0.5631
Er6     Er     0.6667   0.3333   0.4369
V7     V     0.4444   0.8889   0.4369
V8     V     0.5556   0.1111   0.5631
V9     V     0.5556   0.4444   0.9369
V10     V     0.4444   0.5556   0.0631
Er11     Er     0.3333   0.6667   0.9369
V12     V     0.1111   0.5556   0.0631
V13     V     0.4444   0.8889   0.0631
V14     V     0.5556   0.1111   0.9369
Er15     Er     0.6667   0.3333   0.0631
V16     V     0.8889   0.4444   0.9369
loop_
_geom_bond_atom_site_label_1
_geom_bond_atom_site_label_2
_geom_bond_distance
_geom_bond_site_symmetry_2
_ccdc_geom_bond_type
V1     V4    10.0   1_455     S
V1     Er2    10.0   .     S
V1     V12    10.0   .     S
Er2     Er11    10.0   .     S
Er2     V3    10.0   .     S
Er2     V7    10.0   .     S
V3     V10    10.0   .     S
V3     V5    10.0   .     S
V4     V16    10.0   .     S
V4     V1    10.0   1_655     S
V4     Er6    10.0   .     S
V5     V9    10.0   .     S
V5     Er6    10.0   .     S
Er6     Er15    10.0   .     S
Er6     V8    10.0   .     S
V7     V13    10.0   .     S
V7     V8    10.0   1_565     S
V8     V14    10.0   .     S
V8     V7    10.0   1_545     S
V9     V10    10.0   1_556     S
V9     Er15    10.0   1_556     S
V10     Er11    10.0   1_554     S
V10     V9    10.0   1_554     S
Er11     V10    10.0   1_556     S
Er11     V12    10.0   1_556     S
Er11     V13    10.0   1_556     S
V12     V16    10.0   1_454     S
V12     Er11    10.0   1_554     S
V13     V14    10.0   1_564     S
V13     Er11    10.0   1_554     S
V14     V13    10.0   1_546     S
V14     Er15    10.0   1_556     S
Er15     V14    10.0   1_554     S
Er15     V9    10.0   1_554     S
Er15     V16    10.0   1_554     S
V16     V12    10.0   1_656     S
V16     Er15    10.0   1_556     S
