data_xda
_audit_creation_date              2020-02-04
_audit_creation_method            'Pymatgen'
_symmetry_space_group_name_H-M    'P1'
_symmetry_Int_Tables_number       1
loop_
_symmetry_equiv_pos_as_xyz
  x,y,z
_cell_length_a                    18.1699
_cell_length_b                    22.1528
_cell_length_c                    39.8444
_cell_angle_alpha                 90.0
_cell_angle_beta                 90.0
_cell_angle_gamma                 90.0
loop_
_atom_site_label
_atom_site_type_symbol
_atom_site_fract_x
_atom_site_fract_y
_atom_site_fract_z
Er1     Er     0.5   0.5   0.0
V2     V     0.5   0.2257   0.1993
V3     V     0.5   0.7743   0.1993
V4     V     0.0   0.2743   0.3007
V5     V     0.0   0.7257   0.3007
Er6     Er     0.0   0.0   0.5
V7     V     0.5   0.2257   0.8007
V8     V     0.5   0.7743   0.8007
V9     V     0.0   0.2743   0.6993
V10     V     0.0   0.7257   0.6993
loop_
_geom_bond_atom_site_label_1
_geom_bond_atom_site_label_2
_geom_bond_distance
_geom_bond_site_symmetry_2
_ccdc_geom_bond_type
Er1     V8    10.0   1_554     S
Er1     V7    10.0   1_554     S
Er1     V3    10.0   .     S
Er1     V2    10.0   .     S
V2     V3    10.0   1_545     S
V2     V4    10.0   1_655     S
V2     V4    10.0   .     S
V3     V2    10.0   1_565     S
V3     V5    10.0   1_655     S
V3     V5    10.0   .     S
V4     V5    10.0   .     S
V4     V2    10.0   1_455     S
V4     Er6    10.0   .     S
V5     V3    10.0   1_455     S
V5     Er6    10.0   1_565     S
Er6     V5    10.0   1_545     S
Er6     V9    10.0   .     S
Er6     V10    10.0   1_545     S
V7     Er1    10.0   1_556     S
V7     V8    10.0   1_545     S
V7     V9    10.0   1_655     S
V7     V9    10.0   .     S
V8     Er1    10.0   1_556     S
V8     V7    10.0   1_565     S
V8     V10    10.0   1_655     S
V8     V10    10.0   .     S
V9     V10    10.0   .     S
V9     V7    10.0   1_455     S
V10     Er6    10.0   1_565     S
V10     V8    10.0   1_455     S
