data_xfk
_audit_creation_date              2020-02-04
_audit_creation_method            'Pymatgen'
_symmetry_space_group_name_H-M    'P1'
_symmetry_Int_Tables_number       1
loop_
_symmetry_equiv_pos_as_xyz
  x,y,z
_cell_length_a                    22.7679
_cell_length_b                    22.7679
_cell_length_c                    23.732
_cell_angle_alpha                 90.0
_cell_angle_beta                 90.0
_cell_angle_gamma                 90.0
loop_
_atom_site_label
_atom_site_type_symbol
_atom_site_fract_x
_atom_site_fract_y
_atom_site_fract_z
V1     V     0.4653   0.7832   0.4167
V2     V     0.5347   0.2168   0.4167
V3     V     0.7832   0.5347   0.5833
V4     V     0.2168   0.4653   0.5833
V5     V     0.7168   0.5347   0.1667
V6     V     0.2832   0.4653   0.1667
V7     V     0.0347   0.7832   0.3333
V8     V     0.9653   0.2168   0.3333
V9     V     0.4653   0.7168   0.8333
V10     V     0.5347   0.2832   0.8333
V11     V     0.7832   0.9653   0.6667
V12     V     0.2168   0.0347   0.6667
V13     V     0.7168   0.9653   0.0833
V14     V     0.2832   0.0347   0.0833
V15     V     0.0347   0.7168   0.9167
V16     V     0.9653   0.2832   0.9167
loop_
_geom_bond_atom_site_label_1
_geom_bond_atom_site_label_2
_geom_bond_distance
_geom_bond_site_symmetry_2
_ccdc_geom_bond_type
V1     V12    10.0   1_565     S
V1     V9    10.0   .     S
V1     V5    10.0   .     S
V1     V2    10.0   1_565     S
V1     V4    10.0   .     S
V1     V3    10.0   .     S
V1     V7    10.0   .     S
V2     V11    10.0   1_545     S
V2     V10    10.0   .     S
V2     V1    10.0   1_545     S
V2     V3    10.0   .     S
V2     V4    10.0   .     S
V2     V6    10.0   .     S
V2     V8    10.0   .     S
V3     V10    10.0   .     S
V3     V7    10.0   1_655     S
V3     V5    10.0   .     S
V3     V4    10.0   1_655     S
V3     V11    10.0   .     S
V4     V9    10.0   .     S
V4     V3    10.0   1_455     S
V4     V8    10.0   1_455     S
V4     V6    10.0   .     S
V4     V12    10.0   .     S
V5     V16    10.0   1_554     S
V5     V6    10.0   .     S
V5     V7    10.0   1_655     S
V5     V8    10.0   .     S
V5     V13    10.0   .     S
V6     V7    10.0   .     S
V6     V8    10.0   1_455     S
V6     V15    10.0   1_554     S
V6     V14    10.0   .     S
V7     V3    10.0   1_455     S
V7     V8    10.0   1_465     S
V7     V5    10.0   1_455     S
V7     V14    10.0   1_565     S
V7     V15    10.0   1_554     S
V8     V13    10.0   1_545     S
V8     V16    10.0   1_554     S
V8     V4    10.0   1_655     S
V8     V7    10.0   1_645     S
V8     V6    10.0   1_655     S
V9     V10    10.0   .     S
V9     V11    10.0   .     S
V9     V12    10.0   1_565     S
V9     V13    10.0   1_556     S
V9     V15    10.0   .     S
V10     V14    10.0   1_556     S
V10     V11    10.0   1_545     S
V10     V12    10.0   .     S
V10     V16    10.0   .     S
V11     V2    10.0   1_565     S
V11     V12    10.0   1_665     S
V11     V10    10.0   1_565     S
V11     V15    10.0   1_655     S
V11     V13    10.0   1_556     S
V12     V1    10.0   1_545     S
V12     V16    10.0   1_455     S
V12     V14    10.0   1_556     S
V12     V11    10.0   1_445     S
V12     V9    10.0   1_545     S
V13     V8    10.0   1_565     S
V13     V11    10.0   1_554     S
V13     V9    10.0   1_554     S
V13     V14    10.0   1_565     S
V13     V16    10.0   1_564     S
V13     V15    10.0   1_654     S
V14     V7    10.0   1_545     S
V14     V12    10.0   1_554     S
V14     V10    10.0   1_554     S
V14     V13    10.0   1_545     S
V14     V15    10.0   1_544     S
V14     V16    10.0   1_454     S
V15     V7    10.0   1_556     S
V15     V6    10.0   1_556     S
V15     V11    10.0   1_455     S
V15     V14    10.0   1_566     S
V15     V16    10.0   1_455     S
V15     V13    10.0   1_456     S
V16     V8    10.0   1_556     S
V16     V5    10.0   1_556     S
V16     V12    10.0   1_655     S
V16     V15    10.0   1_655     S
V16     V13    10.0   1_546     S
V16     V14    10.0   1_656     S
