data_xfl
_audit_creation_date              2020-02-04
_audit_creation_method            'Pymatgen'
_symmetry_space_group_name_H-M    'P1'
_symmetry_Int_Tables_number       1
loop_
_symmetry_equiv_pos_as_xyz
  x,y,z
_cell_length_a                    62.0274
_cell_length_b                    62.0274
_cell_length_c                    19.9998
_cell_angle_alpha                 90.0
_cell_angle_beta                 90.0
_cell_angle_gamma                 90.0
loop_
_atom_site_label
_atom_site_type_symbol
_atom_site_fract_x
_atom_site_fract_y
_atom_site_fract_z
V1     V     0.0698   0.4302   0.25
V2     V     0.0698   0.4302   0.75
V3     V     0.9302   0.4302   0.0
V4     V     0.9302   0.4302   0.5
V5     V     0.9302   0.5698   0.25
V6     V     0.9302   0.5698   0.75
V7     V     0.0698   0.5698   0.0
V8     V     0.0698   0.5698   0.5
V9     V     0.4302   0.4302   0.25
V10     V     0.4302   0.4302   0.75
V11     V     0.5698   0.4302   0.0
V12     V     0.5698   0.4302   0.5
V13     V     0.4302   0.5698   0.0
V14     V     0.4302   0.5698   0.5
V15     V     0.5698   0.5698   0.25
V16     V     0.5698   0.5698   0.75
V17     V     0.8198   0.1802   0.375
V18     V     0.8198   0.1802   0.875
V19     V     0.6802   0.1802   0.125
V20     V     0.6802   0.1802   0.625
V21     V     0.6802   0.3198   0.375
V22     V     0.6802   0.3198   0.875
V23     V     0.8198   0.3198   0.125
V24     V     0.8198   0.3198   0.625
V25     V     0.6802   0.6802   0.375
V26     V     0.6802   0.6802   0.875
V27     V     0.6802   0.8198   0.125
V28     V     0.6802   0.8198   0.625
V29     V     0.8198   0.6802   0.125
V30     V     0.8198   0.6802   0.625
V31     V     0.8198   0.8198   0.375
V32     V     0.8198   0.8198   0.875
V33     V     0.1802   0.3198   0.375
V34     V     0.1802   0.3198   0.875
V35     V     0.1802   0.1802   0.125
V36     V     0.1802   0.1802   0.625
V37     V     0.3198   0.3198   0.125
V38     V     0.3198   0.3198   0.625
V39     V     0.3198   0.1802   0.375
V40     V     0.3198   0.1802   0.875
V41     V     0.5698   0.0698   0.25
V42     V     0.5698   0.0698   0.75
V43     V     0.4302   0.0698   0.0
V44     V     0.4302   0.0698   0.5
V45     V     0.4302   0.9302   0.25
V46     V     0.4302   0.9302   0.75
V47     V     0.5698   0.9302   0.0
V48     V     0.5698   0.9302   0.5
V49     V     0.3198   0.6802   0.125
V50     V     0.3198   0.6802   0.625
V51     V     0.3198   0.8198   0.375
V52     V     0.3198   0.8198   0.875
V53     V     0.1802   0.8198   0.125
V54     V     0.1802   0.8198   0.625
V55     V     0.1802   0.6802   0.375
V56     V     0.1802   0.6802   0.875
V57     V     0.9302   0.0698   0.25
V58     V     0.9302   0.0698   0.75
V59     V     0.9302   0.9302   0.0
V60     V     0.9302   0.9302   0.5
V61     V     0.0698   0.0698   0.0
V62     V     0.0698   0.0698   0.5
V63     V     0.0698   0.9302   0.25
V64     V     0.0698   0.9302   0.75
loop_
_geom_bond_atom_site_label_1
_geom_bond_atom_site_label_2
_geom_bond_distance
_geom_bond_site_symmetry_2
_ccdc_geom_bond_type
V1     V7    10.0   .     S
V1     V8    10.0   .     S
V1     V4    10.0   1_455     S
V1     V3    10.0   1_455     S
V1     V2    10.0   1_554     S
V1     V2    10.0   .     S
V1     V33    10.0   .     S
V2     V8    10.0   .     S
V2     V7    10.0   1_556     S
V2     V3    10.0   1_456     S
V2     V4    10.0   1_455     S
V2     V1    10.0   1_556     S
V2     V34    10.0   .     S
V3     V2    10.0   1_654     S
V3     V1    10.0   1_655     S
V3     V4    10.0   .     S
V3     V4    10.0   1_554     S
V3     V6    10.0   1_554     S
V3     V5    10.0   .     S
V3     V23    10.0   .     S
V4     V1    10.0   1_655     S
V4     V2    10.0   1_655     S
V4     V3    10.0   1_556     S
V4     V5    10.0   .     S
V4     V6    10.0   .     S
V4     V24    10.0   .     S
V5     V6    10.0   1_554     S
V5     V6    10.0   .     S
V5     V8    10.0   1_655     S
V5     V7    10.0   1_655     S
V5     V29    10.0   .     S
V6     V3    10.0   1_556     S
V6     V5    10.0   1_556     S
V6     V7    10.0   1_656     S
V6     V8    10.0   1_655     S
V6     V30    10.0   .     S
V7     V2    10.0   1_554     S
V7     V6    10.0   1_454     S
V7     V5    10.0   1_455     S
V7     V8    10.0   .     S
V7     V8    10.0   1_554     S
V7     V56    10.0   1_554     S
V8     V5    10.0   1_455     S
V8     V6    10.0   1_455     S
V8     V7    10.0   1_556     S
V8     V55    10.0   .     S
V9     V14    10.0   .     S
V9     V13    10.0   .     S
V9     V10    10.0   1_554     S
V9     V10    10.0   .     S
V9     V11    10.0   .     S
V9     V12    10.0   .     S
V9     V37    10.0   .     S
V10     V13    10.0   1_556     S
V10     V14    10.0   .     S
V10     V9    10.0   1_556     S
V10     V12    10.0   .     S
V10     V11    10.0   1_556     S
V10     V38    10.0   .     S
V11     V10    10.0   1_554     S
V11     V12    10.0   .     S
V11     V12    10.0   1_554     S
V11     V15    10.0   .     S
V11     V16    10.0   1_554     S
V11     V22    10.0   1_554     S
V12     V11    10.0   1_556     S
V12     V16    10.0   .     S
V12     V15    10.0   .     S
V12     V21    10.0   .     S
V13     V10    10.0   1_554     S
V13     V14    10.0   .     S
V13     V14    10.0   1_554     S
V13     V15    10.0   .     S
V13     V16    10.0   1_554     S
V13     V49    10.0   .     S
V14     V13    10.0   1_556     S
V14     V16    10.0   .     S
V14     V15    10.0   .     S
V14     V50    10.0   .     S
V15     V16    10.0   1_554     S
V15     V16    10.0   .     S
V15     V25    10.0   .     S
V16     V11    10.0   1_556     S
V16     V15    10.0   1_556     S
V16     V13    10.0   1_556     S
V16     V26    10.0   .     S
V17     V18    10.0   1_554     S
V17     V18    10.0   .     S
V17     V20    10.0   .     S
V17     V19    10.0   .     S
V17     V24    10.0   .     S
V17     V23    10.0   .     S
V17     V57    10.0   .     S
V18     V17    10.0   1_556     S
V18     V19    10.0   1_556     S
V18     V20    10.0   .     S
V18     V23    10.0   1_556     S
V18     V24    10.0   .     S
V18     V58    10.0   .     S
V19     V18    10.0   1_554     S
V19     V20    10.0   .     S
V19     V20    10.0   1_554     S
V19     V22    10.0   1_554     S
V19     V21    10.0   .     S
V19     V41    10.0   .     S
V20     V19    10.0   1_556     S
V20     V21    10.0   .     S
V20     V22    10.0   .     S
V20     V42    10.0   .     S
V21     V22    10.0   1_554     S
V21     V22    10.0   .     S
V21     V23    10.0   .     S
V21     V24    10.0   .     S
V22     V21    10.0   1_556     S
V22     V19    10.0   1_556     S
V22     V24    10.0   .     S
V22     V23    10.0   1_556     S
V22     V11    10.0   1_556     S
V23     V22    10.0   1_554     S
V23     V18    10.0   1_554     S
V23     V24    10.0   .     S
V23     V24    10.0   1_554     S
V24     V23    10.0   1_556     S
V25     V30    10.0   .     S
V25     V29    10.0   .     S
V25     V26    10.0   1_554     S
V25     V26    10.0   .     S
V25     V27    10.0   .     S
V25     V28    10.0   .     S
V26     V29    10.0   1_556     S
V26     V30    10.0   .     S
V26     V25    10.0   1_556     S
V26     V28    10.0   .     S
V26     V27    10.0   1_556     S
V27     V26    10.0   1_554     S
V27     V31    10.0   .     S
V27     V32    10.0   1_554     S
V27     V28    10.0   .     S
V27     V28    10.0   1_554     S
V27     V47    10.0   .     S
V28     V32    10.0   .     S
V28     V31    10.0   .     S
V28     V27    10.0   1_556     S
V28     V48    10.0   .     S
V29     V26    10.0   1_554     S
V29     V30    10.0   .     S
V29     V30    10.0   1_554     S
V29     V31    10.0   .     S
V29     V32    10.0   1_554     S
V30     V29    10.0   1_556     S
V30     V32    10.0   .     S
V30     V31    10.0   .     S
V31     V32    10.0   1_554     S
V31     V32    10.0   .     S
V31     V60    10.0   .     S
V32     V27    10.0   1_556     S
V32     V31    10.0   1_556     S
V32     V29    10.0   1_556     S
V32     V59    10.0   1_556     S
V33     V38    10.0   .     S
V33     V37    10.0   .     S
V33     V34    10.0   1_554     S
V33     V34    10.0   .     S
V33     V35    10.0   .     S
V33     V36    10.0   .     S
V34     V37    10.0   1_556     S
V34     V38    10.0   .     S
V34     V33    10.0   1_556     S
V34     V36    10.0   .     S
V34     V35    10.0   1_556     S
V35     V34    10.0   1_554     S
V35     V36    10.0   .     S
V35     V36    10.0   1_554     S
V35     V39    10.0   .     S
V35     V40    10.0   1_554     S
V35     V61    10.0   .     S
V36     V35    10.0   1_556     S
V36     V40    10.0   .     S
V36     V39    10.0   .     S
V36     V62    10.0   .     S
V37     V34    10.0   1_554     S
V37     V38    10.0   .     S
V37     V38    10.0   1_554     S
V37     V39    10.0   .     S
V37     V40    10.0   1_554     S
V38     V37    10.0   1_556     S
V38     V40    10.0   .     S
V38     V39    10.0   .     S
V39     V40    10.0   1_554     S
V39     V40    10.0   .     S
V39     V44    10.0   .     S
V40     V35    10.0   1_556     S
V40     V39    10.0   1_556     S
V40     V37    10.0   1_556     S
V40     V43    10.0   1_556     S
V41     V48    10.0   1_545     S
V41     V47    10.0   1_545     S
V41     V43    10.0   .     S
V41     V44    10.0   .     S
V41     V42    10.0   1_554     S
V41     V42    10.0   .     S
V42     V47    10.0   1_546     S
V42     V48    10.0   1_545     S
V42     V44    10.0   .     S
V42     V43    10.0   1_556     S
V42     V41    10.0   1_556     S
V43     V42    10.0   1_554     S
V43     V45    10.0   1_545     S
V43     V46    10.0   1_544     S
V43     V44    10.0   .     S
V43     V44    10.0   1_554     S
V43     V40    10.0   1_554     S
V44     V46    10.0   1_545     S
V44     V45    10.0   1_545     S
V44     V43    10.0   1_556     S
V45     V43    10.0   1_565     S
V45     V44    10.0   1_565     S
V45     V46    10.0   1_554     S
V45     V46    10.0   .     S
V45     V47    10.0   .     S
V45     V48    10.0   .     S
V45     V51    10.0   .     S
V46     V44    10.0   1_565     S
V46     V43    10.0   1_566     S
V46     V45    10.0   1_556     S
V46     V48    10.0   .     S
V46     V47    10.0   1_556     S
V46     V52    10.0   .     S
V47     V42    10.0   1_564     S
V47     V41    10.0   1_565     S
V47     V46    10.0   1_554     S
V47     V48    10.0   .     S
V47     V48    10.0   1_554     S
V48     V41    10.0   1_565     S
V48     V42    10.0   1_565     S
V48     V47    10.0   1_556     S
V49     V55    10.0   .     S
V49     V56    10.0   1_554     S
V49     V52    10.0   1_554     S
V49     V51    10.0   .     S
V49     V50    10.0   .     S
V49     V50    10.0   1_554     S
V50     V56    10.0   .     S
V50     V55    10.0   .     S
V50     V51    10.0   .     S
V50     V52    10.0   .     S
V50     V49    10.0   1_556     S
V51     V52    10.0   1_554     S
V51     V52    10.0   .     S
V51     V54    10.0   .     S
V51     V53    10.0   .     S
V52     V49    10.0   1_556     S
V52     V51    10.0   1_556     S
V52     V53    10.0   1_556     S
V52     V54    10.0   .     S
V53     V52    10.0   1_554     S
V53     V54    10.0   .     S
V53     V54    10.0   1_554     S
V53     V56    10.0   1_554     S
V53     V55    10.0   .     S
V53     V63    10.0   .     S
V54     V53    10.0   1_556     S
V54     V55    10.0   .     S
V54     V56    10.0   .     S
V54     V64    10.0   .     S
V55     V56    10.0   1_554     S
V55     V56    10.0   .     S
V56     V49    10.0   1_556     S
V56     V53    10.0   1_556     S
V56     V55    10.0   1_556     S
V56     V7    10.0   1_556     S
V57     V58    10.0   1_554     S
V57     V58    10.0   .     S
V57     V59    10.0   1_545     S
V57     V60    10.0   1_545     S
V57     V62    10.0   1_655     S
V57     V61    10.0   1_655     S
V58     V57    10.0   1_556     S
V58     V60    10.0   1_545     S
V58     V59    10.0   1_546     S
V58     V61    10.0   1_656     S
V58     V62    10.0   1_655     S
V59     V57    10.0   1_565     S
V59     V58    10.0   1_564     S
V59     V60    10.0   .     S
V59     V60    10.0   1_554     S
V59     V64    10.0   1_654     S
V59     V63    10.0   1_655     S
V59     V32    10.0   1_554     S
V60     V58    10.0   1_565     S
V60     V57    10.0   1_565     S
V60     V59    10.0   1_556     S
V60     V63    10.0   1_655     S
V60     V64    10.0   1_655     S
V61     V64    10.0   1_544     S
V61     V63    10.0   1_545     S
V61     V62    10.0   .     S
V61     V62    10.0   1_554     S
V61     V58    10.0   1_454     S
V61     V57    10.0   1_455     S
V62     V63    10.0   1_545     S
V62     V64    10.0   1_545     S
V62     V61    10.0   1_556     S
V62     V57    10.0   1_455     S
V62     V58    10.0   1_455     S
V63     V62    10.0   1_565     S
V63     V61    10.0   1_565     S
V63     V64    10.0   1_554     S
V63     V64    10.0   .     S
V63     V60    10.0   1_455     S
V63     V59    10.0   1_455     S
V64     V61    10.0   1_566     S
V64     V62    10.0   1_565     S
V64     V63    10.0   1_556     S
V64     V59    10.0   1_456     S
V64     V60    10.0   1_455     S
