data_xfm
_audit_creation_date              2020-02-04
_audit_creation_method            'Pymatgen'
_symmetry_space_group_name_H-M    'P1'
_symmetry_Int_Tables_number       1
loop_
_symmetry_equiv_pos_as_xyz
  x,y,z
_cell_length_a                    61.1801
_cell_length_b                    61.1801
_cell_length_c                    20.0
_cell_angle_alpha                 90.0
_cell_angle_beta                 90.0
_cell_angle_gamma                 90.0
loop_
_atom_site_label
_atom_site_type_symbol
_atom_site_fract_x
_atom_site_fract_y
_atom_site_fract_z
V1     V     0.0708   0.5791   0.0625
V2     V     0.0708   0.5791   0.5625
V3     V     0.1709   0.6792   0.3125
V4     V     0.1709   0.6792   0.8125
V5     V     0.3291   0.6792   0.1875
V6     V     0.3291   0.6792   0.6875
V7     V     0.4292   0.5791   0.4375
V8     V     0.4292   0.5791   0.9375
V9     V     0.3291   0.3208   0.0625
V10     V     0.3291   0.3208   0.5625
V11     V     0.4292   0.4209   0.3125
V12     V     0.4292   0.4209   0.8125
V13     V     0.1709   0.3208   0.4375
V14     V     0.1709   0.3208   0.9375
V15     V     0.0708   0.4209   0.1875
V16     V     0.0708   0.4209   0.6875
V17     V     0.8291   0.3208   0.1875
V18     V     0.8291   0.3208   0.6875
V19     V     0.9292   0.4209   0.4375
V20     V     0.9292   0.4209   0.9375
V21     V     0.9292   0.5791   0.3125
V22     V     0.9292   0.5791   0.8125
V23     V     0.8291   0.6792   0.0625
V24     V     0.8291   0.6792   0.5625
V25     V     0.6709   0.6792   0.4375
V26     V     0.6709   0.6792   0.9375
V27     V     0.5708   0.5791   0.1875
V28     V     0.5708   0.5791   0.6875
V29     V     0.6709   0.3208   0.3125
V30     V     0.6709   0.3208   0.8125
V31     V     0.5708   0.4209   0.0625
V32     V     0.5708   0.4209   0.5625
V33     V     0.4292   0.9209   0.1875
V34     V     0.4292   0.9209   0.6875
V35     V     0.3291   0.8208   0.4375
V36     V     0.3291   0.8208   0.9375
V37     V     0.0708   0.9209   0.3125
V38     V     0.0708   0.9209   0.8125
V39     V     0.1709   0.8208   0.0625
V40     V     0.1709   0.8208   0.5625
V41     V     0.4292   0.0791   0.0625
V42     V     0.4292   0.0791   0.5625
V43     V     0.3291   0.1792   0.3125
V44     V     0.3291   0.1792   0.8125
V45     V     0.1709   0.1792   0.1875
V46     V     0.1709   0.1792   0.6875
V47     V     0.0708   0.0791   0.4375
V48     V     0.0708   0.0791   0.9375
V49     V     0.5708   0.9209   0.4375
V50     V     0.5708   0.9209   0.9375
V51     V     0.6709   0.8208   0.1875
V52     V     0.6709   0.8208   0.6875
V53     V     0.8291   0.8208   0.3125
V54     V     0.8291   0.8208   0.8125
V55     V     0.9292   0.9209   0.0625
V56     V     0.9292   0.9209   0.5625
V57     V     0.5708   0.0791   0.3125
V58     V     0.5708   0.0791   0.8125
V59     V     0.6709   0.1792   0.0625
V60     V     0.6709   0.1792   0.5625
V61     V     0.8291   0.1792   0.4375
V62     V     0.8291   0.1792   0.9375
V63     V     0.9292   0.0791   0.1875
V64     V     0.9292   0.0791   0.6875
loop_
_geom_bond_atom_site_label_1
_geom_bond_atom_site_label_2
_geom_bond_distance
_geom_bond_site_symmetry_2
_ccdc_geom_bond_type
V1     V4    10.0   1_554     S
V1     V2    10.0   .     S
V1     V2    10.0   1_554     S
V1     V3    10.0   .     S
V1     V15    10.0   .     S
V1     V21    10.0   1_455     S
V1     V22    10.0   1_454     S
V2     V3    10.0   .     S
V2     V1    10.0   1_556     S
V2     V4    10.0   .     S
V2     V16    10.0   .     S
V2     V22    10.0   1_455     S
V2     V21    10.0   1_455     S
V3     V39    10.0   .     S
V3     V40    10.0   .     S
V3     V4    10.0   1_554     S
V3     V4    10.0   .     S
V3     V5    10.0   .     S
V4     V40    10.0   .     S
V4     V39    10.0   1_556     S
V4     V1    10.0   1_556     S
V4     V3    10.0   1_556     S
V4     V6    10.0   .     S
V5     V35    10.0   .     S
V5     V36    10.0   1_554     S
V5     V8    10.0   1_554     S
V5     V6    10.0   .     S
V5     V6    10.0   1_554     S
V5     V7    10.0   .     S
V6     V36    10.0   .     S
V6     V35    10.0   .     S
V6     V7    10.0   .     S
V6     V5    10.0   1_556     S
V6     V8    10.0   .     S
V7     V8    10.0   1_554     S
V7     V8    10.0   .     S
V7     V11    10.0   .     S
V7     V27    10.0   .     S
V7     V28    10.0   .     S
V8     V5    10.0   1_556     S
V8     V7    10.0   1_556     S
V8     V12    10.0   .     S
V8     V28    10.0   .     S
V8     V27    10.0   1_556     S
V9     V44    10.0   1_554     S
V9     V43    10.0   .     S
V9     V11    10.0   .     S
V9     V10    10.0   .     S
V9     V10    10.0   1_554     S
V9     V12    10.0   1_554     S
V9     V14    10.0   1_554     S
V10     V43    10.0   .     S
V10     V44    10.0   .     S
V10     V12    10.0   .     S
V10     V9    10.0   1_556     S
V10     V11    10.0   .     S
V10     V13    10.0   .     S
V11     V12    10.0   1_554     S
V11     V12    10.0   .     S
V11     V32    10.0   .     S
V11     V31    10.0   .     S
V12     V11    10.0   1_556     S
V12     V9    10.0   1_556     S
V12     V31    10.0   1_556     S
V12     V32    10.0   .     S
V13     V15    10.0   .     S
V13     V14    10.0   1_554     S
V13     V14    10.0   .     S
V13     V16    10.0   .     S
V13     V46    10.0   .     S
V13     V45    10.0   .     S
V14     V16    10.0   .     S
V14     V13    10.0   1_556     S
V14     V15    10.0   1_556     S
V14     V9    10.0   1_556     S
V14     V45    10.0   1_556     S
V14     V46    10.0   .     S
V15     V14    10.0   1_554     S
V15     V16    10.0   .     S
V15     V16    10.0   1_554     S
V15     V20    10.0   1_454     S
V15     V19    10.0   1_455     S
V16     V15    10.0   1_556     S
V16     V19    10.0   1_455     S
V16     V20    10.0   1_455     S
V17     V61    10.0   .     S
V17     V62    10.0   1_554     S
V17     V20    10.0   1_554     S
V17     V18    10.0   .     S
V17     V18    10.0   1_554     S
V17     V19    10.0   .     S
V17     V29    10.0   .     S
V18     V62    10.0   .     S
V18     V61    10.0   .     S
V18     V19    10.0   .     S
V18     V17    10.0   1_556     S
V18     V20    10.0   .     S
V18     V30    10.0   .     S
V19     V16    10.0   1_655     S
V19     V15    10.0   1_655     S
V19     V20    10.0   1_554     S
V19     V20    10.0   .     S
V19     V21    10.0   .     S
V20     V15    10.0   1_656     S
V20     V16    10.0   1_655     S
V20     V17    10.0   1_556     S
V20     V19    10.0   1_556     S
V20     V22    10.0   .     S
V21     V23    10.0   .     S
V21     V22    10.0   1_554     S
V21     V22    10.0   .     S
V21     V24    10.0   .     S
V21     V1    10.0   1_655     S
V21     V2    10.0   1_655     S
V22     V24    10.0   .     S
V22     V21    10.0   1_556     S
V22     V23    10.0   1_556     S
V22     V2    10.0   1_655     S
V22     V1    10.0   1_656     S
V23     V54    10.0   1_554     S
V23     V53    10.0   .     S
V23     V24    10.0   .     S
V23     V24    10.0   1_554     S
V23     V22    10.0   1_554     S
V23     V26    10.0   1_554     S
V24     V53    10.0   .     S
V24     V54    10.0   .     S
V24     V23    10.0   1_556     S
V24     V25    10.0   .     S
V25     V52    10.0   .     S
V25     V51    10.0   .     S
V25     V27    10.0   .     S
V25     V26    10.0   1_554     S
V25     V26    10.0   .     S
V25     V28    10.0   .     S
V26     V51    10.0   1_556     S
V26     V52    10.0   .     S
V26     V23    10.0   1_556     S
V26     V28    10.0   .     S
V26     V25    10.0   1_556     S
V26     V27    10.0   1_556     S
V27     V8    10.0   1_554     S
V27     V28    10.0   .     S
V27     V28    10.0   1_554     S
V27     V26    10.0   1_554     S
V27     V31    10.0   .     S
V28     V27    10.0   1_556     S
V28     V32    10.0   .     S
V29     V59    10.0   .     S
V29     V60    10.0   .     S
V29     V32    10.0   .     S
V29     V30    10.0   1_554     S
V29     V30    10.0   .     S
V29     V31    10.0   .     S
V30     V60    10.0   .     S
V30     V59    10.0   1_556     S
V30     V31    10.0   1_556     S
V30     V29    10.0   1_556     S
V30     V32    10.0   .     S
V31     V12    10.0   1_554     S
V31     V30    10.0   1_554     S
V31     V32    10.0   .     S
V31     V32    10.0   1_554     S
V32     V31    10.0   1_556     S
V33     V49    10.0   .     S
V33     V50    10.0   1_554     S
V33     V35    10.0   .     S
V33     V34    10.0   .     S
V33     V34    10.0   1_554     S
V33     V36    10.0   1_554     S
V33     V41    10.0   1_565     S
V34     V50    10.0   .     S
V34     V49    10.0   .     S
V34     V36    10.0   .     S
V34     V33    10.0   1_556     S
V34     V35    10.0   .     S
V34     V42    10.0   1_565     S
V35     V36    10.0   1_554     S
V35     V36    10.0   .     S
V35     V40    10.0   .     S
V36     V5    10.0   1_556     S
V36     V33    10.0   1_556     S
V36     V35    10.0   1_556     S
V36     V39    10.0   1_556     S
V37     V39    10.0   .     S
V37     V38    10.0   1_554     S
V37     V38    10.0   .     S
V37     V40    10.0   .     S
V37     V47    10.0   1_565     S
V37     V55    10.0   1_455     S
V37     V56    10.0   1_455     S
V38     V40    10.0   .     S
V38     V37    10.0   1_556     S
V38     V39    10.0   1_556     S
V38     V48    10.0   1_565     S
V38     V56    10.0   1_455     S
V38     V55    10.0   1_456     S
V39     V4    10.0   1_554     S
V39     V38    10.0   1_554     S
V39     V40    10.0   .     S
V39     V40    10.0   1_554     S
V39     V36    10.0   1_554     S
V40     V39    10.0   1_556     S
V41     V58    10.0   1_554     S
V41     V57    10.0   .     S
V41     V44    10.0   1_554     S
V41     V42    10.0   .     S
V41     V42    10.0   1_554     S
V41     V43    10.0   .     S
V41     V33    10.0   1_545     S
V42     V57    10.0   .     S
V42     V58    10.0   .     S
V42     V43    10.0   .     S
V42     V41    10.0   1_556     S
V42     V44    10.0   .     S
V42     V34    10.0   1_545     S
V43     V44    10.0   1_554     S
V43     V44    10.0   .     S
V43     V45    10.0   .     S
V44     V9    10.0   1_556     S
V44     V41    10.0   1_556     S
V44     V43    10.0   1_556     S
V44     V46    10.0   .     S
V45     V14    10.0   1_554     S
V45     V48    10.0   1_554     S
V45     V46    10.0   .     S
V45     V46    10.0   1_554     S
V45     V47    10.0   .     S
V46     V47    10.0   .     S
V46     V45    10.0   1_556     S
V46     V48    10.0   .     S
V47     V48    10.0   1_554     S
V47     V48    10.0   .     S
V47     V37    10.0   1_545     S
V47     V64    10.0   1_455     S
V47     V63    10.0   1_455     S
V48     V45    10.0   1_556     S
V48     V47    10.0   1_556     S
V48     V38    10.0   1_545     S
V48     V63    10.0   1_456     S
V48     V64    10.0   1_455     S
V49     V52    10.0   .     S
V49     V50    10.0   1_554     S
V49     V50    10.0   .     S
V49     V51    10.0   .     S
V49     V57    10.0   1_565     S
V50     V33    10.0   1_556     S
V50     V51    10.0   1_556     S
V50     V49    10.0   1_556     S
V50     V52    10.0   .     S
V50     V58    10.0   1_565     S
V51     V26    10.0   1_554     S
V51     V50    10.0   1_554     S
V51     V52    10.0   .     S
V51     V52    10.0   1_554     S
V51     V53    10.0   .     S
V52     V51    10.0   1_556     S
V52     V54    10.0   .     S
V53     V56    10.0   .     S
V53     V54    10.0   1_554     S
V53     V54    10.0   .     S
V53     V55    10.0   .     S
V54     V23    10.0   1_556     S
V54     V55    10.0   1_556     S
V54     V53    10.0   1_556     S
V54     V56    10.0   .     S
V55     V54    10.0   1_554     S
V55     V56    10.0   .     S
V55     V56    10.0   1_554     S
V55     V63    10.0   1_565     S
V55     V37    10.0   1_655     S
V55     V38    10.0   1_654     S
V56     V55    10.0   1_556     S
V56     V64    10.0   1_565     S
V56     V38    10.0   1_655     S
V56     V37    10.0   1_655     S
V57     V49    10.0   1_545     S
V57     V59    10.0   .     S
V57     V58    10.0   1_554     S
V57     V58    10.0   .     S
V57     V60    10.0   .     S
V58     V41    10.0   1_556     S
V58     V50    10.0   1_545     S
V58     V60    10.0   .     S
V58     V57    10.0   1_556     S
V58     V59    10.0   1_556     S
V59     V30    10.0   1_554     S
V59     V58    10.0   1_554     S
V59     V60    10.0   .     S
V59     V60    10.0   1_554     S
V59     V62    10.0   1_554     S
V60     V59    10.0   1_556     S
V60     V61    10.0   .     S
V61     V63    10.0   .     S
V61     V62    10.0   1_554     S
V61     V62    10.0   .     S
V61     V64    10.0   .     S
V62     V17    10.0   1_556     S
V62     V64    10.0   .     S
V62     V61    10.0   1_556     S
V62     V63    10.0   1_556     S
V62     V59    10.0   1_556     S
V63     V48    10.0   1_654     S
V63     V47    10.0   1_655     S
V63     V55    10.0   1_545     S
V63     V62    10.0   1_554     S
V63     V64    10.0   .     S
V63     V64    10.0   1_554     S
V64     V47    10.0   1_655     S
V64     V48    10.0   1_655     S
V64     V56    10.0   1_545     S
V64     V63    10.0   1_556     S
