data_xfr
_audit_creation_date              2020-02-04
_audit_creation_method            'Pymatgen'
_symmetry_space_group_name_H-M    'P1'
_symmetry_Int_Tables_number       1
loop_
_symmetry_equiv_pos_as_xyz
  x,y,z
_cell_length_a                    19.3185
_cell_length_b                    19.3185
_cell_length_c                    75.8614
_cell_angle_alpha                 90.0
_cell_angle_beta                 90.0
_cell_angle_gamma                 90.0
loop_
_atom_site_label
_atom_site_type_symbol
_atom_site_fract_x
_atom_site_fract_y
_atom_site_fract_z
V1     V     0.683   0.067   0.6863
V2     V     0.683   0.933   0.8137
V3     V     0.817   0.433   0.8137
V4     V     0.817   0.567   0.6863
V5     V     0.183   0.933   0.6863
V6     V     0.183   0.067   0.8137
V7     V     0.317   0.433   0.6863
V8     V     0.317   0.567   0.8137
V9     V     0.683   0.933   0.4363
V10     V     0.817   0.933   0.5637
V11     V     0.183   0.067   0.4363
V12     V     0.317   0.067   0.5637
V13     V     0.183   0.567   0.5637
V14     V     0.317   0.567   0.4363
V15     V     0.817   0.433   0.4363
V16     V     0.683   0.433   0.5637
V17     V     0.317   0.433   0.0637
V18     V     0.183   0.433   0.9363
V19     V     0.683   0.567   0.9363
V20     V     0.817   0.567   0.0637
V21     V     0.817   0.067   0.9363
V22     V     0.683   0.067   0.0637
V23     V     0.317   0.933   0.9363
V24     V     0.183   0.933   0.0637
V25     V     0.183   0.567   0.1863
V26     V     0.183   0.433   0.3137
V27     V     0.317   0.067   0.1863
V28     V     0.317   0.933   0.3137
V29     V     0.817   0.933   0.1863
V30     V     0.817   0.067   0.3137
V31     V     0.683   0.567   0.3137
V32     V     0.683   0.433   0.1863
loop_
_geom_bond_atom_site_label_1
_geom_bond_atom_site_label_2
_geom_bond_distance
_geom_bond_site_symmetry_2
_ccdc_geom_bond_type
V1     V5    10.0   1_545     S
V1     V7    10.0   .     S
V1     V2    9.999   1_545     S
V1     V4    10.0   1_545     S
V1     V4    10.0   .     S
V1     V5    10.0   1_645     S
V1     V10    10.001   1_545     S
V2     V6    10.0   1_565     S
V2     V8    10.0   .     S
V2     V6    10.0   1_665     S
V2     V1    9.999   1_565     S
V2     V3    10.0   1_565     S
V2     V3    10.0   .     S
V2     V21    10.001   1_565     S
V3     V8    10.0   .     S
V3     V6    10.0   1_655     S
V3     V8    10.0   1_655     S
V3     V4    9.999   .     S
V3     V2    10.0   1_545     S
V3     V19    10.001   .     S
V4     V7    10.0   .     S
V4     V1    10.0   1_565     S
V4     V7    10.0   1_655     S
V4     V5    10.0   1_655     S
V4     V16    10.001   .     S
V5     V1    10.0   1_565     S
V5     V6    9.999   1_565     S
V5     V7    10.0   1_565     S
V5     V7    10.0   .     S
V5     V4    10.0   1_455     S
V5     V1    10.0   1_465     S
V5     V12    10.001   1_565     S
V6     V2    10.0   1_545     S
V6     V2    10.0   1_445     S
V6     V3    10.0   1_455     S
V6     V5    9.999   1_545     S
V6     V8    10.0   1_545     S
V6     V8    10.0   .     S
V6     V23    10.001   1_545     S
V7     V8    9.999   .     S
V7     V5    10.0   1_545     S
V7     V4    10.0   1_455     S
V7     V13    10.001   .     S
V8     V3    10.0   1_455     S
V8     V6    10.0   1_565     S
V8     V18    10.001   .     S
V9     V15    10.0   .     S
V9     V14    10.0   .     S
V9     V10    9.999   .     S
V9     V11    10.0   1_565     S
V9     V11    10.0   1_665     S
V9     V15    10.0   1_565     S
V9     V30    10.001   1_565     S
V10     V16    10.0   .     S
V10     V13    10.0   1_655     S
V10     V12    10.0   1_665     S
V10     V12    10.0   1_565     S
V10     V16    10.0   1_565     S
V10     V1    10.001   1_565     S
V11     V14    10.0   1_545     S
V11     V12    9.999   .     S
V11     V9    10.0   1_545     S
V11     V9    10.0   1_445     S
V11     V15    10.0   1_455     S
V11     V14    10.0   .     S
V11     V28    10.001   1_545     S
V12     V13    10.0   1_545     S
V12     V10    10.0   1_445     S
V12     V10    10.0   1_545     S
V12     V16    10.0   .     S
V12     V13    10.0   .     S
V12     V5    10.001   1_545     S
V13     V10    10.0   1_455     S
V13     V12    10.0   1_565     S
V13     V14    9.999   .     S
V13     V16    10.0   .     S
V13     V16    10.0   1_455     S
V14     V11    10.0   1_565     S
V14     V15    10.0   .     S
V14     V15    10.0   1_455     S
V14     V26    10.001   .     S
V15     V16    9.999   .     S
V15     V14    10.0   1_655     S
V15     V9    10.0   1_545     S
V15     V11    10.0   1_655     S
V15     V31    10.001   .     S
V16     V10    10.0   1_545     S
V16     V13    10.0   1_655     S
V17     V18    9.999   1_554     S
V17     V20    10.0   .     S
V17     V20    10.0   1_455     S
V17     V22    10.0   .     S
V17     V24    10.0   1_545     S
V17     V24    10.0   .     S
V17     V25    10.001   .     S
V18     V17    9.999   1_556     S
V18     V19    10.0   .     S
V18     V19    10.0   1_455     S
V18     V21    10.0   1_455     S
V18     V23    10.0   1_545     S
V18     V23    10.0   .     S
V19     V20    9.999   1_556     S
V19     V18    10.0   1_655     S
V19     V21    10.0   .     S
V19     V23    10.0   .     S
V19     V21    10.0   1_565     S
V20     V19    9.999   1_554     S
V20     V17    10.0   1_655     S
V20     V22    10.0   .     S
V20     V24    10.0   1_655     S
V20     V22    10.0   1_565     S
V20     V32    10.001   .     S
V21     V18    10.0   1_655     S
V21     V19    10.0   1_545     S
V21     V22    9.999   1_556     S
V21     V23    10.0   1_645     S
V21     V23    10.0   1_545     S
V21     V2    10.001   1_545     S
V22     V20    10.0   1_545     S
V22     V21    9.999   1_554     S
V22     V24    10.0   1_545     S
V22     V24    10.0   1_645     S
V22     V29    10.001   1_545     S
V23     V18    10.0   1_565     S
V23     V24    9.999   1_556     S
V23     V21    10.0   1_465     S
V23     V21    10.0   1_565     S
V23     V6    10.001   1_565     S
V24     V17    10.0   1_565     S
V24     V20    10.0   1_455     S
V24     V23    9.999   1_554     S
V24     V22    10.0   1_565     S
V24     V22    10.0   1_465     S
V24     V27    10.001   1_565     S
V25     V32    10.0   .     S
V25     V26    9.999   .     S
V25     V27    10.0   1_565     S
V25     V27    10.0   .     S
V25     V29    10.0   1_455     S
V25     V32    10.0   1_455     S
V26     V31    10.0   .     S
V26     V28    10.0   1_545     S
V26     V28    10.0   .     S
V26     V30    10.0   1_455     S
V26     V31    10.0   1_455     S
V27     V29    10.0   1_545     S
V27     V32    10.0   .     S
V27     V28    9.999   1_545     S
V27     V25    10.0   1_545     S
V27     V29    10.0   1_445     S
V27     V24    10.001   1_545     S
V28     V30    10.0   1_565     S
V28     V31    10.0   .     S
V28     V26    10.0   1_565     S
V28     V27    9.999   1_565     S
V28     V30    10.0   1_465     S
V28     V11    10.001   1_565     S
V29     V27    10.0   1_565     S
V29     V27    10.0   1_665     S
V29     V25    10.0   1_655     S
V29     V30    9.999   1_565     S
V29     V32    10.0   1_565     S
V29     V32    10.0   .     S
V29     V22    10.001   1_565     S
V30     V28    10.0   1_545     S
V30     V29    9.999   1_545     S
V30     V31    10.0   1_545     S
V30     V31    10.0   .     S
V30     V28    10.0   1_645     S
V30     V26    10.0   1_655     S
V30     V9    10.001   1_545     S
V31     V32    9.999   .     S
V31     V30    10.0   1_565     S
V31     V26    10.0   1_655     S
V32     V25    10.0   1_655     S
V32     V29    10.0   1_545     S
