data_xfs
_audit_creation_date              2020-02-04
_audit_creation_method            'Pymatgen'
_symmetry_space_group_name_H-M    'P1'
_symmetry_Int_Tables_number       1
loop_
_symmetry_equiv_pos_as_xyz
  x,y,z
_cell_length_a                    19.3185
_cell_length_b                    19.3185
_cell_length_c                    78.6371
_cell_angle_alpha                 90.0
_cell_angle_beta                 90.0
_cell_angle_gamma                 90.0
loop_
_atom_site_label
_atom_site_type_symbol
_atom_site_fract_x
_atom_site_fract_y
_atom_site_fract_z
V1     V     0.683   0.567   0.6886
V2     V     0.683   0.567   0.5614
V3     V     0.183   0.433   0.6886
V4     V     0.183   0.433   0.5614
V5     V     0.317   0.933   0.6886
V6     V     0.317   0.933   0.5614
V7     V     0.817   0.067   0.6886
V8     V     0.817   0.067   0.5614
V9     V     0.317   0.433   0.4386
V10     V     0.317   0.433   0.3114
V11     V     0.817   0.567   0.3114
V12     V     0.817   0.567   0.4386
V13     V     0.683   0.067   0.4386
V14     V     0.683   0.067   0.3114
V15     V     0.183   0.933   0.3114
V16     V     0.183   0.933   0.4386
V17     V     0.683   0.933   0.1886
V18     V     0.683   0.933   0.0614
V19     V     0.817   0.433   0.0614
V20     V     0.817   0.433   0.1886
V21     V     0.317   0.567   0.1886
V22     V     0.317   0.567   0.0614
V23     V     0.183   0.067   0.0614
V24     V     0.183   0.067   0.1886
V25     V     0.817   0.933   0.8114
V26     V     0.817   0.933   0.9386
V27     V     0.683   0.433   0.8114
V28     V     0.683   0.433   0.9386
V29     V     0.183   0.567   0.8114
V30     V     0.183   0.567   0.9386
V31     V     0.317   0.067   0.8114
V32     V     0.317   0.067   0.9386
loop_
_geom_bond_atom_site_label_1
_geom_bond_atom_site_label_2
_geom_bond_distance
_geom_bond_site_symmetry_2
_ccdc_geom_bond_type
V1     V5    10.0   .     S
V1     V3    10.0   .     S
V1     V3    10.0   1_655     S
V1     V2    9.999   .     S
V1     V7    10.0   1_565     S
V1     V7    10.0   .     S
V1     V27    10.001   .     S
V2     V8    10.0   .     S
V2     V6    10.0   .     S
V2     V8    10.0   1_565     S
V2     V4    10.0   .     S
V2     V4    10.0   1_655     S
V2     V12    10.001   .     S
V3     V7    10.0   1_455     S
V3     V1    10.0   1_455     S
V3     V4    9.999   .     S
V3     V5    10.0   .     S
V3     V5    10.0   1_545     S
V3     V29    10.001   .     S
V4     V8    10.0   1_455     S
V4     V6    10.0   1_545     S
V4     V6    10.0   .     S
V4     V2    10.0   1_455     S
V4     V9    10.001   .     S
V5     V7    10.0   1_565     S
V5     V7    10.0   1_465     S
V5     V6    9.999   .     S
V5     V3    10.0   1_565     S
V5     V31    10.001   1_565     S
V6     V4    10.0   1_565     S
V6     V8    10.0   1_465     S
V6     V8    10.0   1_565     S
V6     V16    10.001   .     S
V7     V5    10.0   1_545     S
V7     V5    10.0   1_645     S
V7     V3    10.0   1_655     S
V7     V8    9.999   .     S
V7     V1    10.0   1_545     S
V7     V25    10.001   1_545     S
V8     V4    10.0   1_655     S
V8     V2    10.0   1_545     S
V8     V6    10.0   1_645     S
V8     V6    10.0   1_545     S
V8     V13    10.001   .     S
V9     V13    10.0   .     S
V9     V16    10.0   1_545     S
V9     V16    10.0   .     S
V9     V10    9.999   .     S
V9     V12    10.0   .     S
V9     V12    10.0   1_455     S
V10     V14    10.0   .     S
V10     V11    10.0   .     S
V10     V11    10.0   1_455     S
V10     V15    10.0   .     S
V10     V15    10.0   1_545     S
V10     V21    10.001   .     S
V11     V10    10.0   1_655     S
V11     V15    10.0   1_655     S
V11     V12    9.999   .     S
V11     V14    10.0   1_565     S
V11     V14    10.0   .     S
V11     V20    10.001   .     S
V12     V13    10.0   .     S
V12     V16    10.0   1_655     S
V12     V13    10.0   1_565     S
V12     V9    10.0   1_655     S
V13     V12    10.0   1_545     S
V13     V14    9.999   .     S
V13     V16    10.0   1_545     S
V13     V16    10.0   1_645     S
V14     V15    10.0   1_545     S
V14     V15    10.0   1_645     S
V14     V11    10.0   1_545     S
V14     V17    10.001   1_545     S
V15     V14    10.0   1_565     S
V15     V11    10.0   1_455     S
V15     V14    10.0   1_465     S
V15     V16    9.999   .     S
V15     V10    10.0   1_565     S
V15     V24    10.001   1_565     S
V16     V9    10.0   1_565     S
V16     V12    10.0   1_455     S
V16     V13    10.0   1_565     S
V16     V13    10.0   1_465     S
V17     V24    10.0   1_565     S
V17     V21    10.0   .     S
V17     V18    9.999   .     S
V17     V20    10.0   1_565     S
V17     V20    10.0   .     S
V17     V24    10.0   1_665     S
V17     V14    10.001   1_565     S
V18     V19    10.0   1_565     S
V18     V19    10.0   .     S
V18     V22    10.0   .     S
V18     V23    10.0   1_565     S
V18     V23    10.0   1_665     S
V18     V26    10.001   1_554     S
V19     V23    10.0   1_655     S
V19     V18    10.0   1_545     S
V19     V20    9.999   .     S
V19     V22    10.0   1_655     S
V19     V22    10.0   .     S
V19     V28    10.001   1_554     S
V20     V21    10.0   .     S
V20     V17    10.0   1_545     S
V20     V21    10.0   1_655     S
V20     V24    10.0   1_655     S
V21     V22    9.999   .     S
V21     V24    10.0   1_565     S
V21     V24    10.0   .     S
V21     V20    10.0   1_455     S
V22     V23    10.0   .     S
V22     V23    10.0   1_565     S
V22     V19    10.0   1_455     S
V22     V30    10.001   1_554     S
V23     V19    10.0   1_455     S
V23     V22    10.0   1_545     S
V23     V24    9.999   .     S
V23     V18    10.0   1_545     S
V23     V18    10.0   1_445     S
V23     V32    10.001   1_554     S
V24     V15    10.001   1_545     S
V24     V17    10.0   1_545     S
V24     V21    10.0   1_545     S
V24     V20    10.0   1_455     S
V24     V17    10.0   1_445     S
V25     V31    10.0   1_565     S
V25     V31    10.0   1_665     S
V25     V29    10.0   1_655     S
V25     V26    9.999   .     S
V25     V27    10.0   1_565     S
V25     V27    10.0   .     S
V25     V7    10.001   1_565     S
V26     V28    10.0   1_565     S
V26     V28    10.0   .     S
V26     V30    10.0   1_655     S
V26     V32    10.0   1_665     S
V26     V32    10.0   1_565     S
V26     V18    10.001   1_556     S
V27     V31    10.0   .     S
V27     V29    10.0   .     S
V27     V29    10.0   1_655     S
V27     V28    9.999   .     S
V27     V25    10.0   1_545     S
V28     V32    10.0   .     S
V28     V26    10.0   1_545     S
V28     V30    10.0   .     S
V28     V30    10.0   1_655     S
V28     V19    10.001   1_556     S
V29     V25    10.0   1_455     S
V29     V27    10.0   1_455     S
V29     V30    9.999   .     S
V29     V31    10.0   1_565     S
V29     V31    10.0   .     S
V30     V32    10.0   .     S
V30     V26    10.0   1_455     S
V30     V32    10.0   1_565     S
V30     V28    10.0   1_455     S
V30     V22    10.001   1_556     S
V31     V25    10.0   1_545     S
V31     V25    10.0   1_445     S
V31     V32    9.999   .     S
V31     V29    10.0   1_545     S
V31     V5    10.001   1_545     S
V32     V30    10.0   1_545     S
V32     V26    10.0   1_445     S
V32     V26    10.0   1_545     S
V32     V23    10.001   1_556     S
