data_xii
_audit_creation_date              2020-02-04
_audit_creation_method            'Pymatgen'
_symmetry_space_group_name_H-M    'P1'
_symmetry_Int_Tables_number       1
loop_
_symmetry_equiv_pos_as_xyz
  x,y,z
_cell_length_a                    18.871
_cell_length_b                    18.871
_cell_length_c                    18.871
_cell_angle_alpha                 90.0
_cell_angle_beta                 90.0
_cell_angle_gamma                 90.0
loop_
_atom_site_label
_atom_site_type_symbol
_atom_site_fract_x
_atom_site_fract_y
_atom_site_fract_z
V1     V     0.8723   0.5   0.5
V2     V     0.1277   0.5   0.5
V3     V     0.5   0.8723   0.5
V4     V     0.5   0.1277   0.5
V5     V     0.5   0.5   0.8723
V6     V     0.5   0.5   0.1277
V7     V     0.3723   0.0   0.0
V8     V     0.6277   0.0   0.0
V9     V     0.0   0.3723   0.0
V10     V     0.0   0.6277   0.0
V11     V     0.0   0.0   0.3723
V12     V     0.0   0.0   0.6277
loop_
_geom_bond_atom_site_label_1
_geom_bond_atom_site_label_2
_geom_bond_distance
_geom_bond_site_symmetry_2
_ccdc_geom_bond_type
V1     V6    9.936   .     S
V1     V4    9.936   .     S
V1     V5    9.936   .     S
V1     V3    9.936   .     S
V1     V10    10.032   1_656     S
V1     V9    10.032   1_656     S
V1     V11    10.032   1_665     S
V1     V12    10.032   1_665     S
V1     V9    10.032   1_655     S
V1     V10    10.032   1_655     S
V1     V12    10.032   1_655     S
V1     V11    10.032   1_655     S
V2     V3    9.936   .     S
V2     V5    9.936   .     S
V2     V6    9.936   .     S
V2     V4    9.936   .     S
V2     V9    10.032   1_556     S
V2     V10    10.032   1_556     S
V2     V12    10.032   1_565     S
V2     V11    10.032   1_565     S
V2     V10    10.032   .     S
V2     V9    10.032   .     S
V2     V11    10.032   .     S
V2     V12    10.032   .     S
V3     V6    9.936   .     S
V3     V5    9.936   .     S
V3     V7    10.032   1_566     S
V3     V8    10.032   1_566     S
V3     V12    10.032   1_665     S
V3     V11    10.032   1_665     S
V3     V8    10.032   1_565     S
V3     V7    10.032   1_565     S
V3     V11    10.032   1_565     S
V3     V12    10.032   1_565     S
V4     V5    9.936   .     S
V4     V6    9.936   .     S
V4     V8    10.032   1_556     S
V4     V7    10.032   1_556     S
V4     V11    10.032   1_655     S
V4     V12    10.032   1_655     S
V4     V7    10.032   .     S
V4     V8    10.032   .     S
V4     V12    10.032   .     S
V4     V11    10.032   .     S
V5     V8    10.032   1_566     S
V5     V7    10.032   1_566     S
V5     V9    10.032   1_656     S
V5     V10    10.032   1_656     S
V5     V7    10.032   1_556     S
V5     V8    10.032   1_556     S
V5     V10    10.032   1_556     S
V5     V9    10.032   1_556     S
V6     V7    10.032   1_565     S
V6     V8    10.032   1_565     S
V6     V10    10.032   1_655     S
V6     V9    10.032   1_655     S
V6     V7    10.032   .     S
V6     V8    10.032   .     S
V6     V9    10.032   .     S
V6     V10    10.032   .     S
V7     V11    9.936   .     S
V7     V12    9.936   1_554     S
V7     V9    9.936   .     S
V7     V10    9.936   1_545     S
V7     V6    10.032   1_545     S
V7     V5    10.032   1_544     S
V7     V3    10.032   1_544     S
V7     V4    10.032   1_554     S
V7     V5    10.032   1_554     S
V7     V3    10.032   1_545     S
V8     V11    9.936   1_655     S
V8     V12    9.936   1_654     S
V8     V9    9.936   1_655     S
V8     V10    9.936   1_645     S
V8     V6    10.032   1_545     S
V8     V5    10.032   1_544     S
V8     V3    10.032   1_544     S
V8     V4    10.032   1_554     S
V8     V5    10.032   1_554     S
V8     V3    10.032   1_545     S
V9     V11    9.936   .     S
V9     V12    9.936   1_554     S
V9     V8    9.936   1_455     S
V9     V5    10.032   1_454     S
V9     V6    10.032   1_455     S
V9     V2    10.032   1_554     S
V9     V1    10.032   1_454     S
V9     V5    10.032   1_554     S
V9     V1    10.032   1_455     S
V10     V11    9.936   1_565     S
V10     V12    9.936   1_564     S
V10     V7    9.936   1_565     S
V10     V8    9.936   1_465     S
V10     V5    10.032   1_454     S
V10     V6    10.032   1_455     S
V10     V2    10.032   1_554     S
V10     V1    10.032   1_454     S
V10     V5    10.032   1_554     S
V10     V1    10.032   1_455     S
V11     V8    9.936   1_455     S
V11     V10    9.936   1_545     S
V11     V4    10.032   1_455     S
V11     V3    10.032   1_445     S
V11     V1    10.032   1_445     S
V11     V2    10.032   1_545     S
V11     V3    10.032   1_545     S
V11     V1    10.032   1_455     S
V12     V10    9.936   1_546     S
V12     V7    9.936   1_556     S
V12     V9    9.936   1_556     S
V12     V8    9.936   1_456     S
V12     V4    10.032   1_455     S
V12     V3    10.032   1_445     S
V12     V1    10.032   1_445     S
V12     V2    10.032   1_545     S
V12     V3    10.032   1_545     S
V12     V1    10.032   1_455     S
