data_xll
_audit_creation_date              2020-02-04
_audit_creation_method            'Pymatgen'
_symmetry_space_group_name_H-M    'P1'
_symmetry_Int_Tables_number       1
loop_
_symmetry_equiv_pos_as_xyz
  x,y,z
_cell_length_a                    35.752
_cell_length_b                    35.752
_cell_length_c                    38.2928
_cell_angle_alpha                 90.0
_cell_angle_beta                 90.0
_cell_angle_gamma                 90.0
loop_
_atom_site_label
_atom_site_type_symbol
_atom_site_fract_x
_atom_site_fract_y
_atom_site_fract_z
Ti1     Ti     0.7499   0.5   0.6309
Ti2     Ti     0.7499   0.5   0.3691
Ti3     Ti     0.5   0.2501   0.6309
Ti4     Ti     0.5   0.2501   0.3691
Ti5     Ti     0.2501   0.5   0.6309
Ti6     Ti     0.2501   0.5   0.3691
Ti7     Ti     0.5   0.7499   0.6309
Ti8     Ti     0.5   0.7499   0.3691
Ti9     Ti     0.2499   0.0   0.8691
Ti10     Ti     0.2499   0.0   0.1309
Ti11     Ti     0.0   0.7501   0.8691
Ti12     Ti     0.0   0.7501   0.1309
Ti13     Ti     0.7501   0.0   0.1309
Ti14     Ti     0.7501   0.0   0.8691
Ti15     Ti     0.0   0.2499   0.1309
Ti16     Ti     0.0   0.2499   0.8691
Ce17     Ce     0.25   0.25   0.75
Ce18     Ce     0.25   0.25   0.25
V19     V     0.3032   0.3032   0.0
V20     V     0.1968   0.1968   0.5
Er21     Er     0.5   0.5   0.0
Ce22     Ce     0.75   0.25   0.25
Ce23     Ce     0.75   0.25   0.75
V24     V     0.8032   0.1968   0.5
V25     V     0.6968   0.3032   0.0
Ce26     Ce     0.25   0.75   0.75
Ce27     Ce     0.25   0.75   0.25
V28     V     0.3032   0.6968   0.0
V29     V     0.1968   0.8032   0.5
Ce30     Ce     0.75   0.75   0.25
Ce31     Ce     0.75   0.75   0.75
V32     V     0.8032   0.8032   0.5
V33     V     0.6968   0.6968   0.0
Er34     Er     0.0   0.0   0.5
loop_
_geom_bond_atom_site_label_1
_geom_bond_atom_site_label_2
_geom_bond_distance
_geom_bond_site_symmetry_2
_ccdc_geom_bond_type
Ti1     Ti2    10.027   .     S
Ti1     Ce31    10.034   .     S
Ti1     Ce23    10.034   .     S
Ti2     Ce30    10.034   .     S
Ti2     Ce22    10.034   .     S
Ti3     Ti4    10.027   .     S
Ti3     Ce23    10.034   .     S
Ti3     Ce17    10.034   .     S
Ti4     Ce22    10.034   .     S
Ti4     Ce18    10.034   .     S
Ti5     Ti6    10.027   .     S
Ti5     Ce26    10.034   .     S
Ti5     Ce17    10.034   .     S
Ti6     Ce27    10.034   .     S
Ti6     Ce18    10.034   .     S
Ti7     Ti8    10.027   .     S
Ti7     Ce31    10.034   .     S
Ti7     Ce26    10.034   .     S
Ti8     Ce30    10.034   .     S
Ti8     Ce27    10.034   .     S
Ti9     Ti10    10.027   1_556     S
Ti9     Ce17    10.034   .     S
Ti9     Ce26    10.034   1_545     S
Ti10     Ti9    10.027   1_554     S
Ti10     Ce18    10.034   .     S
Ti10     Ce27    10.034   1_545     S
Ti11     Ti12    10.027   1_556     S
Ti11     Ce26    10.034   .     S
Ti11     Ce31    10.034   1_455     S
Ti12     Ti11    10.027   1_554     S
Ti12     Ce27    10.034   .     S
Ti12     Ce30    10.034   1_455     S
Ti13     Ti14    10.027   1_554     S
Ti13     Ce22    10.034   .     S
Ti13     Ce30    10.034   1_545     S
Ti14     Ti13    10.027   1_556     S
Ti14     Ce23    10.034   .     S
Ti14     Ce31    10.034   1_545     S
Ti15     Ti16    10.027   1_554     S
Ti15     Ce18    10.034   .     S
Ti15     Ce22    10.034   1_455     S
Ti16     Ti15    10.027   1_556     S
Ti16     Ce17    10.034   .     S
Ti16     Ce23    10.034   1_455     S
Ce17     V19    9.944   1_556     S
Ce17     V20    9.944   .     S
Ce18     V19    9.944   .     S
Ce18     V20    9.944   .     S
V19     Ce17    9.944   1_554     S
V19     Er21    9.949   .     S
V20     Er34    9.949   .     S
Er21     V25    9.949   .     S
Er21     V28    9.949   .     S
Er21     V33    9.949   .     S
Ce22     V25    9.944   .     S
Ce22     V24    9.944   .     S
Ce22     Ti15    10.034   1_655     S
Ce23     V25    9.944   1_556     S
Ce23     V24    9.944   .     S
Ce23     Ti16    10.034   1_655     S
V24     Er34    9.949   1_655     S
V25     Ce23    9.944   1_554     S
Ce26     V28    9.944   1_556     S
Ce26     V29    9.944   .     S
Ce26     Ti9    10.034   1_565     S
Ce27     V28    9.944   .     S
Ce27     V29    9.944   .     S
Ce27     Ti10    10.034   1_565     S
V28     Ce26    9.944   1_554     S
V29     Er34    9.949   1_565     S
Ce30     V33    9.944   .     S
Ce30     V32    9.944   .     S
Ce30     Ti12    10.034   1_655     S
Ce30     Ti13    10.034   1_565     S
Ce31     V33    9.944   1_556     S
Ce31     V32    9.944   .     S
Ce31     Ti14    10.034   1_565     S
Ce31     Ti11    10.034   1_655     S
V32     Er34    9.949   1_665     S
V33     Ce31    9.944   1_554     S
Er34     V24    9.949   1_455     S
Er34     V29    9.949   1_545     S
Er34     V32    9.949   1_445     S
