data_xlza
_audit_creation_date              2020-02-04
_audit_creation_method            'Pymatgen'
_symmetry_space_group_name_H-M    'P1'
_symmetry_Int_Tables_number       1
loop_
_symmetry_equiv_pos_as_xyz
  x,y,z
_cell_length_a                    112.3721
_cell_length_b                    112.3721
_cell_length_c                    32.9914
_cell_angle_alpha                 90.0
_cell_angle_beta                 90.0
_cell_angle_gamma                 120.0
loop_
_atom_site_label
_atom_site_type_symbol
_atom_site_fract_x
_atom_site_fract_y
_atom_site_fract_z
Er1     Er     0.362   0.481   0.1516
Er2     Er     0.362   0.481   0.8484
V3     V     0.1964   0.4817   0.0
V4     V     0.2854   0.4817   0.0
Er5     Er     0.1189   0.481   0.1516
Er6     Er     0.1189   0.481   0.8484
Ti7     Ti     0.0514   0.5702   0.6516
Ti8     Ti     0.9486   0.5188   0.6516
Ti9     Ti     0.9486   0.5188   0.3484
Ti10     Ti     0.0514   0.5702   0.3484
Ti11     Ti     0.9486   0.4298   0.3484
Ti12     Ti     0.0514   0.4812   0.3484
Ti13     Ti     0.9486   0.4298   0.6516
Ti14     Ti     0.0514   0.4812   0.6516
Er15     Er     0.8811   0.519   0.1516
Er16     Er     0.8811   0.519   0.8484
V17     V     0.8036   0.5183   0.0
V18     V     0.7146   0.5183   0.0
Er19     Er     0.638   0.519   0.1516
Er20     Er     0.638   0.519   0.8484
Ti21     Ti     0.5188   0.5702   0.6516
Ti22     Ti     0.5702   0.5188   0.6516
Ti23     Ti     0.5188   0.5702   0.3484
Ti24     Ti     0.5702   0.5188   0.3484
Ti25     Ti     0.4298   0.4812   0.3484
Ti26     Ti     0.4812   0.4298   0.3484
Ti27     Ti     0.4812   0.4298   0.6516
Ti28     Ti     0.4298   0.4812   0.6516
Er29     Er     0.481   0.1189   0.1516
Er30     Er     0.481   0.1189   0.8484
V31     V     0.4817   0.1964   0.0
V32     V     0.4817   0.2854   0.0
Er33     Er     0.481   0.362   0.1516
Er34     Er     0.481   0.362   0.8484
Er35     Er     0.8811   0.362   0.1516
Er36     Er     0.8811   0.362   0.8484
V37     V     0.7146   0.1964   0.0
V38     V     0.8036   0.2854   0.0
Er39     Er     0.638   0.1189   0.1516
Er40     Er     0.638   0.1189   0.8484
Er41     Er     0.362   0.8811   0.1516
Er42     Er     0.362   0.8811   0.8484
V43     V     0.2854   0.8036   0.0
V44     V     0.1964   0.7146   0.0
Er45     Er     0.1189   0.638   0.1516
Er46     Er     0.1189   0.638   0.8484
Er47     Er     0.519   0.8811   0.1516
Er48     Er     0.519   0.8811   0.8484
V49     V     0.5183   0.8036   0.0
V50     V     0.5183   0.7146   0.0
Er51     Er     0.519   0.638   0.1516
Er52     Er     0.519   0.638   0.8484
Ti53     Ti     0.4298   0.9486   0.3484
Ti54     Ti     0.4812   0.0514   0.3484
Ti55     Ti     0.4298   0.9486   0.6516
Ti56     Ti     0.4812   0.0514   0.6516
Ti57     Ti     0.5188   0.9486   0.3484
Ti58     Ti     0.5702   0.0514   0.3484
Ti59     Ti     0.5188   0.9486   0.6516
Ti60     Ti     0.5702   0.0514   0.6516
loop_
_geom_bond_atom_site_label_1
_geom_bond_atom_site_label_2
_geom_bond_distance
_geom_bond_site_symmetry_2
_ccdc_geom_bond_type
Er1     Er2    10.0   1_554     S
Er1     V4    10.0   .     S
Er1     Ti25    10.0   .     S
Er2     Er1    10.0   1_556     S
Er2     V4    10.0   1_556     S
Er2     Ti28    10.0   .     S
V3     V4    10.0   .     S
V3     Er6    10.0   1_554     S
V3     Er5    10.0   .     S
V4     Er2    10.0   1_554     S
Er5     Er6    10.0   1_554     S
Er5     Ti12    10.0   .     S
Er6     V3    10.0   1_556     S
Er6     Er5    10.0   1_556     S
Er6     Ti14    10.0   .     S
Ti7     Er46    10.0   .     S
Ti7     Ti8    10.0   1_455     S
Ti7     Ti10    10.0   .     S
Ti7     Ti14    10.001   .     S
Ti8     Er16    10.0   .     S
Ti8     Ti7    10.0   1_655     S
Ti8     Ti9    10.0   .     S
Ti8     Ti13    10.001   .     S
Ti9     Er15    10.0   .     S
Ti9     Ti10    10.0   1_655     S
Ti9     Ti11    10.001   .     S
Ti10     Er45    10.0   .     S
Ti10     Ti9    10.0   1_455     S
Ti10     Ti12    10.001   .     S
Ti11     Er35    10.0   .     S
Ti11     Ti12    10.0   1_655     S
Ti11     Ti13    10.0   .     S
Ti12     Ti11    10.0   1_455     S
Ti12     Ti14    10.0   .     S
Ti13     Er36    10.0   .     S
Ti13     Ti14    10.0   1_655     S
Ti14     Ti13    10.0   1_455     S
Er15     Er16    10.0   1_554     S
Er15     V17    10.0   .     S
Er16     Er15    10.0   1_556     S
Er16     V17    10.0   1_556     S
V17     V18    10.0   .     S
V17     Er16    10.0   1_554     S
V18     Er20    10.0   1_554     S
V18     Er19    10.0   .     S
Er19     Er20    10.0   1_554     S
Er19     Ti24    10.0   .     S
Er20     V18    10.0   1_556     S
Er20     Er19    10.0   1_556     S
Er20     Ti22    10.0   .     S
Ti21     Er52    10.0   .     S
Ti21     Ti22    10.0   .     S
Ti21     Ti23    10.0   .     S
Ti21     Ti28    10.001   .     S
Ti22     Ti24    10.0   .     S
Ti22     Ti27    10.001   .     S
Ti23     Er51    10.0   .     S
Ti23     Ti24    10.0   .     S
Ti23     Ti25    10.001   .     S
Ti24     Ti26    10.001   .     S
Ti25     Ti26    10.0   .     S
Ti25     Ti28    10.0   .     S
Ti26     Er33    10.0   .     S
Ti26     Ti27    10.0   .     S
Ti27     Er34    10.0   .     S
Ti27     Ti28    10.0   .     S
Er29     Er30    10.0   1_554     S
Er29     V31    10.0   .     S
Er29     Ti54    10.0   .     S
Er30     Er29    10.0   1_556     S
Er30     V31    10.0   1_556     S
Er30     Ti56    10.0   .     S
V31     V32    10.0   .     S
V31     Er30    10.0   1_554     S
V32     Er34    10.0   1_554     S
V32     Er33    10.0   .     S
Er33     Er34    10.0   1_554     S
Er34     V32    10.0   1_556     S
Er34     Er33    10.0   1_556     S
Er35     Er36    10.0   1_554     S
Er35     V38    10.0   .     S
Er36     Er35    10.0   1_556     S
Er36     V38    10.0   1_556     S
V37     V38    10.0   .     S
V37     Er40    10.0   1_554     S
V37     Er39    10.0   .     S
V38     Er36    10.0   1_554     S
Er39     Er40    10.0   1_554     S
Er39     Ti58    10.0   .     S
Er40     V37    10.0   1_556     S
Er40     Er39    10.0   1_556     S
Er40     Ti60    10.0   .     S
Er41     Er42    10.0   1_554     S
Er41     V43    10.0   .     S
Er41     Ti53    10.0   .     S
Er42     Er41    10.0   1_556     S
Er42     V43    10.0   1_556     S
Er42     Ti55    10.0   .     S
V43     V44    10.0   .     S
V43     Er42    10.0   1_554     S
V44     Er46    10.0   1_554     S
V44     Er45    10.0   .     S
Er45     Er46    10.0   1_554     S
Er46     V44    10.0   1_556     S
Er46     Er45    10.0   1_556     S
Er47     Er48    10.0   1_554     S
Er47     V49    10.0   .     S
Er47     Ti57    10.0   .     S
Er48     Er47    10.0   1_556     S
Er48     V49    10.0   1_556     S
Er48     Ti59    10.0   .     S
V49     V50    10.0   .     S
V49     Er48    10.0   1_554     S
V50     Er52    10.0   1_554     S
V50     Er51    10.0   .     S
Er51     Er52    10.0   1_554     S
Er52     V50    10.0   1_556     S
Er52     Er51    10.0   1_556     S
Ti53     Ti54    10.0   1_565     S
Ti53     Ti55    10.0   .     S
Ti53     Ti57    10.001   .     S
Ti54     Ti53    10.0   1_545     S
Ti54     Ti56    10.0   .     S
Ti54     Ti58    10.001   .     S
Ti55     Ti56    10.0   1_565     S
Ti55     Ti59    10.001   .     S
Ti56     Ti55    10.0   1_545     S
Ti56     Ti60    10.001   .     S
Ti57     Ti58    10.0   1_565     S
Ti57     Ti59    10.0   .     S
Ti58     Ti57    10.0   1_545     S
Ti58     Ti60    10.0   .     S
Ti59     Ti60    10.0   1_565     S
Ti60     Ti59    10.0   1_545     S
