data_xmza
_audit_creation_date              2020-02-04
_audit_creation_method            'Pymatgen'
_symmetry_space_group_name_H-M    'P1'
_symmetry_Int_Tables_number       1
loop_
_symmetry_equiv_pos_as_xyz
  x,y,z
_cell_length_a                    61.9401
_cell_length_b                    61.9401
_cell_length_c                    75.9382
_cell_angle_alpha                 90.0
_cell_angle_beta                 90.0
_cell_angle_gamma                 120.0
loop_
_atom_site_label
_atom_site_type_symbol
_atom_site_fract_x
_atom_site_fract_y
_atom_site_fract_z
Er1     Er     0.3333   0.9889   0.4167
Ti2     Ti     0.3333   0.8274   0.4167
Ti3     Ti     0.0   0.1608   0.75
Er4     Er     0.0   0.3222   0.75
Ti5     Ti     0.1608   0.0   0.75
Er6     Er     0.3222   0.0   0.75
Ti7     Ti     0.1726   0.5059   0.4167
Er8     Er     0.0111   0.3445   0.4167
Er9     Er     0.6667   0.6555   0.0833
Ti10     Ti     0.6667   0.4941   0.0833
Ti11     Ti     0.4941   0.6667   0.4167
Er12     Er     0.6555   0.6667   0.4167
Er13     Er     0.9889   0.3333   0.0833
Ti14     Ti     0.8274   0.3333   0.0833
Er15     Er     0.6778   0.6778   0.75
Ti16     Ti     0.8392   0.8392   0.75
Ti17     Ti     0.5059   0.1726   0.0833
Er18     Er     0.3445   0.0111   0.0833
V19     V     0.1683   0.7557   0.5486
V20     V     0.0891   0.835   0.618
V21     V     0.2443   0.4126   0.5486
V22     V     0.165   0.2541   0.618
V23     V     0.5016   0.4224   0.2153
V24     V     0.4224   0.5016   0.2847
V25     V     0.4984   0.9208   0.2847
V26     V     0.5776   0.0792   0.2153
V27     V     0.9208   0.4984   0.2153
V28     V     0.0792   0.5776   0.2847
V29     V     0.9109   0.7459   0.882
V30     V     0.8317   0.5874   0.9514
Ce31     Ce     0.7599   0.4265   0.1492
Ce32     Ce     0.7599   0.4265   0.0175
Ce33     Ce     0.5735   0.3333   0.1492
Ce34     Ce     0.5735   0.3333   0.0175
Ce35     Ce     0.6667   0.2401   0.1492
Ce36     Ce     0.6667   0.2401   0.0175
V37     V     0.4126   0.2443   0.9514
V38     V     0.2541   0.165   0.882
Ce39     Ce     0.3333   0.5735   0.4825
Ce40     Ce     0.3333   0.5735   0.3508
Ce41     Ce     0.2401   0.6667   0.4825
Ce42     Ce     0.2401   0.6667   0.3508
Ce43     Ce     0.4265   0.7599   0.4825
Ce44     Ce     0.4265   0.7599   0.3508
V45     V     0.7459   0.9109   0.618
V46     V     0.5874   0.8317   0.5486
Ce47     Ce     0.0932   0.0932   0.8158
Ce48     Ce     0.0932   0.0932   0.6842
Ce49     Ce     0.0   0.9068   0.8158
Ce50     Ce     0.0   0.9068   0.6842
Ce51     Ce     0.9068   0.0   0.8158
Ce52     Ce     0.9068   0.0   0.6842
V53     V     0.7557   0.1683   0.9514
V54     V     0.835   0.0891   0.882
Ti55     Ti     0.8392   0.0   0.25
Er56     Er     0.6778   0.0   0.25
Er57     Er     0.9889   0.6555   0.5833
Ti58     Ti     0.8274   0.4941   0.5833
Er59     Er     0.6555   0.9889   0.9167
Ti60     Ti     0.4941   0.8274   0.9167
Ti61     Ti     0.1608   0.1608   0.25
Er62     Er     0.3222   0.3222   0.25
Ti63     Ti     0.3333   0.5059   0.9167
Er64     Er     0.3333   0.3445   0.9167
Er65     Er     0.0   0.6778   0.25
Ti66     Ti     0.0   0.8392   0.25
Ti67     Ti     0.5059   0.3333   0.5833
Er68     Er     0.3445   0.3333   0.5833
Er69     Er     0.0111   0.6667   0.9167
Ti70     Ti     0.1726   0.6667   0.9167
Er71     Er     0.6667   0.0111   0.5833
Ti72     Ti     0.6667   0.1726   0.5833
V73     V     0.7557   0.5874   0.4514
V74     V     0.835   0.7459   0.382
V75     V     0.2541   0.0891   0.382
V76     V     0.4126   0.1683   0.4514
V77     V     0.8317   0.2443   0.4514
V78     V     0.9109   0.165   0.382
Ce79     Ce     0.0   0.0932   0.3158
Ce80     Ce     0.0   0.0932   0.1842
Ce81     Ce     0.9068   0.9068   0.3158
Ce82     Ce     0.9068   0.9068   0.1842
Ce83     Ce     0.0932   0.0   0.3158
Ce84     Ce     0.0932   0.0   0.1842
V85     V     0.2443   0.8317   0.0486
V86     V     0.165   0.9109   0.118
V87     V     0.0891   0.2541   0.118
V88     V     0.1683   0.4126   0.0486
V89     V     0.5874   0.7557   0.0486
V90     V     0.7459   0.835   0.118
V91     V     0.5016   0.0792   0.7153
V92     V     0.4224   0.9208   0.7847
V93     V     0.0792   0.5016   0.7847
V94     V     0.9208   0.4224   0.7153
Ce95     Ce     0.6667   0.4265   0.6492
Ce96     Ce     0.6667   0.4265   0.5175
Ce97     Ce     0.5735   0.2401   0.5175
Ce98     Ce     0.5735   0.2401   0.6492
Ce99     Ce     0.7599   0.3333   0.5175
Ce100     Ce     0.7599   0.3333   0.6492
Ce101     Ce     0.4265   0.6667   0.9825
Ce102     Ce     0.4265   0.6667   0.8508
Ce103     Ce     0.2401   0.5735   0.9825
Ce104     Ce     0.2401   0.5735   0.8508
Ce105     Ce     0.3333   0.7599   0.9825
Ce106     Ce     0.3333   0.7599   0.8508
V107     V     0.5776   0.4984   0.7153
V108     V     0.4984   0.5776   0.7847
loop_
_geom_bond_atom_site_label_1
_geom_bond_atom_site_label_2
_geom_bond_distance
_geom_bond_site_symmetry_2
_ccdc_geom_bond_type
Er1     Ti2    10.0   .     S
Er1     V75    10.0   1_565     S
Er1     V76    10.0   1_565     S
Ti2     Ce41    10.0   .     S
Ti2     Ce42    10.0   .     S
Ti2     Ce44    10.0   .     S
Ti2     Ce43    10.0   .     S
Ti3     Er4    10.0   .     S
Ti3     Ce48    10.0   .     S
Ti3     Ce47    10.0   .     S
Ti3     Ce51    10.0   1_455     S
Ti3     Ce52    10.0   1_455     S
Er4     V93    10.0   .     S
Er4     V94    10.0   1_455     S
Ti5     Er6    10.0   .     S
Ti5     Ce47    10.0   .     S
Ti5     Ce48    10.0   .     S
Ti5     Ce50    10.0   1_545     S
Ti5     Ce49    10.0   1_545     S
Er6     V91    10.0   .     S
Er6     V92    10.0   1_545     S
Ti7     Er8    10.0   .     S
Ti7     Ce39    10.0   .     S
Ti7     Ce40    10.0   .     S
Ti7     Ce42    10.0   .     S
Ti7     Ce41    10.0   .     S
Er8     V77    10.0   1_455     S
Er8     V78    10.0   1_455     S
Er9     Ti10    10.0   .     S
Er9     V89    10.0   .     S
Er9     V90    10.0   .     S
Ti10     Ce32    10.0   .     S
Ti10     Ce31    10.0   .     S
Ti10     Ce33    10.0   .     S
Ti10     Ce34    10.0   .     S
Ti11     Er12    10.0   .     S
Ti11     Ce40    10.0   .     S
Ti11     Ce39    10.0   .     S
Ti11     Ce43    10.0   .     S
Ti11     Ce44    10.0   .     S
Er12     V73    10.0   .     S
Er12     V74    10.0   .     S
Er13     Ti14    10.0   .     S
Er13     V87    10.0   1_655     S
Er13     V88    10.0   1_655     S
Ti14     Ce31    10.0   .     S
Ti14     Ce32    10.0   .     S
Ti14     Ce36    10.0   .     S
Ti14     Ce35    10.0   .     S
Er15     Ti16    10.0   .     S
Er15     V107    10.0   .     S
Er15     V108    10.0   .     S
Ti16     Ce49    10.0   1_655     S
Ti16     Ce50    10.0   1_655     S
Ti16     Ce52    10.0   1_565     S
Ti16     Ce51    10.0   1_565     S
Ti17     Er18    10.0   .     S
Ti17     Ce34    10.0   .     S
Ti17     Ce33    10.0   .     S
Ti17     Ce35    10.0   .     S
Ti17     Ce36    10.0   .     S
Er18     V85    10.0   1_545     S
Er18     V86    10.0   1_545     S
V19     Er57    10.0   1_455     S
V19     Ce41    10.0   .     S
V19     V20    10.0   .     S
V20     Er57    10.0   1_455     S
V20     Ce50    10.0   .     S
V21     Er68    10.0   .     S
V21     Ce39    10.0   .     S
V21     V22    10.0   .     S
V22     Er68    10.0   .     S
V22     Ce48    10.0   .     S
V23     Er62    10.0   .     S
V23     Ce33    10.0   .     S
V23     V24    10.0   .     S
V24     Er62    10.0   .     S
V24     Ce40    10.0   .     S
V25     Er56    10.0   1_565     S
V25     Ce44    10.0   .     S
V25     V26    10.0   1_565     S
V26     V25    10.0   1_545     S
V26     Er56    10.0   .     S
V26     Ce35    10.0   .     S
V27     Er65    10.0   1_655     S
V27     Ce31    10.0   .     S
V27     V28    10.0   1_655     S
V28     V27    10.0   1_455     S
V28     Er65    10.0   .     S
V28     Ce42    10.0   .     S
V29     Er69    10.0   1_655     S
V29     Ce49    10.0   1_655     S
V29     V30    10.0   .     S
V30     Er69    10.0   1_655     S
V30     Ce32    10.0   1_556     S
Ce31     Ce32    10.0   .     S
Ce31     Ce33    10.0   .     S
Ce31     Ce35    10.0   .     S
Ce32     V30    10.0   1_554     S
Ce32     Ce34    10.0   .     S
Ce32     Ce36    10.0   .     S
Ce33     Ce34    10.0   .     S
Ce33     Ce35    10.0   .     S
Ce34     Ce36    10.0   .     S
Ce34     V37    10.0   1_554     S
Ce35     Ce36    10.0   .     S
Ce36     V53    10.0   1_554     S
V37     Er64    10.0   .     S
V37     Ce34    10.0   1_556     S
V37     V38    10.0   .     S
V38     Er64    10.0   .     S
V38     Ce47    10.0   .     S
Ce39     Ce40    10.0   .     S
Ce39     Ce43    10.0   .     S
Ce39     Ce41    10.0   .     S
Ce40     Ce44    10.0   .     S
Ce40     Ce42    10.0   .     S
Ce41     Ce42    10.0   .     S
Ce41     Ce43    10.0   .     S
Ce42     Ce44    10.0   .     S
Ce43     Ce44    10.0   .     S
Ce43     V46    10.0   .     S
V45     Er71    10.0   1_565     S
V45     Ce52    10.0   1_565     S
V45     V46    10.0   .     S
V46     Er71    10.0   1_565     S
Ce47     Ce48    10.0   .     S
Ce47     Ce51    10.0   1_455     S
Ce47     Ce49    10.0   1_545     S
Ce48     Ce52    10.0   1_455     S
Ce48     Ce50    10.0   1_545     S
Ce49     V29    10.0   1_455     S
Ce49     Ti5    10.0   1_565     S
Ce49     Ti16    10.0   1_455     S
Ce49     Ce50    10.0   .     S
Ce49     Ce51    10.0   1_465     S
Ce49     Ce47    10.0   1_565     S
Ce50     Ti5    10.0   1_565     S
Ce50     Ti16    10.0   1_455     S
Ce50     Ce52    10.0   1_465     S
Ce50     Ce48    10.0   1_565     S
Ce51     Ce47    10.0   1_655     S
Ce51     Ti16    10.0   1_545     S
Ce51     Ti3    10.0   1_655     S
Ce51     Ce52    10.0   .     S
Ce51     Ce49    10.0   1_645     S
Ce51     V54    10.0   .     S
Ce52     V45    10.0   1_545     S
Ce52     Ce48    10.0   1_655     S
Ce52     Ti16    10.0   1_545     S
Ce52     Ti3    10.0   1_655     S
Ce52     Ce50    10.0   1_645     S
V53     Er59    10.0   1_545     S
V53     Ce36    10.0   1_556     S
V53     V54    10.0   .     S
V54     Er59    10.0   1_545     S
Ti55     Er56    10.0   .     S
Ti55     Ce79    10.0   1_655     S
Ti55     Ce80    10.0   1_655     S
Ti55     Ce82    10.0   1_545     S
Ti55     Ce81    10.0   1_545     S
Er56     V25    10.0   1_545     S
Er57     V19    10.0   1_655     S
Er57     V20    10.0   1_655     S
Er57     Ti58    10.0   .     S
Ti58     Ce96    10.0   .     S
Ti58     Ce95    10.0   .     S
Ti58     Ce100    10.0   .     S
Ti58     Ce99    10.0   .     S
Er59     V53    10.0   1_565     S
Er59     V54    10.0   1_565     S
Er59     Ti60    10.0   .     S
Ti60     Ce101    10.0   .     S
Ti60     Ce102    10.0   .     S
Ti60     Ce106    10.0   .     S
Ti60     Ce105    10.0   .     S
Ti61     Er62    10.0   .     S
Ti61     Ce80    10.0   .     S
Ti61     Ce79    10.0   .     S
Ti61     Ce83    10.0   .     S
Ti61     Ce84    10.0   .     S
Ti63     Er64    10.0   .     S
Ti63     Ce102    10.0   .     S
Ti63     Ce101    10.0   .     S
Ti63     Ce103    10.0   .     S
Ti63     Ce104    10.0   .     S
Er65     V27    10.0   1_455     S
Er65     Ti66    10.0   .     S
Ti66     Ce81    10.0   1_455     S
Ti66     Ce82    10.0   1_455     S
Ti66     Ce84    10.0   1_565     S
Ti66     Ce83    10.0   1_565     S
Ti67     Er68    10.0   .     S
Ti67     Ce95    10.0   .     S
Ti67     Ce96    10.0   .     S
Ti67     Ce97    10.0   .     S
Ti67     Ce98    10.0   .     S
Er69     V29    10.0   1_455     S
Er69     V30    10.0   1_455     S
Er69     Ti70    10.0   .     S
Ti70     Ce104    10.0   .     S
Ti70     Ce103    10.0   .     S
Ti70     Ce105    10.0   .     S
Ti70     Ce106    10.0   .     S
Er71     V45    10.0   1_545     S
Er71     V46    10.0   1_545     S
Er71     Ti72    10.0   .     S
Ti72     Ce98    10.0   .     S
Ti72     Ce97    10.0   .     S
Ti72     Ce99    10.0   .     S
Ti72     Ce100    10.0   .     S
V73     Ce96    10.0   .     S
V73     V74    10.0   .     S
V74     Ce81    10.0   .     S
V75     Er1    10.0   1_545     S
V75     Ce83    10.0   .     S
V75     V76    10.0   .     S
V76     Er1    10.0   1_545     S
V76     Ce97    10.0   .     S
V77     Er8    10.0   1_655     S
V77     Ce99    10.0   .     S
V77     V78    10.0   .     S
V78     Er8    10.0   1_655     S
V78     Ce79    10.0   1_655     S
Ce79     V78    10.0   1_455     S
Ce79     Ti55    10.0   1_455     S
Ce79     Ce80    10.0   .     S
Ce79     Ce81    10.0   1_445     S
Ce79     Ce83    10.0   .     S
Ce80     Ti55    10.0   1_455     S
Ce80     Ce82    10.0   1_445     S
Ce80     Ce84    10.0   .     S
Ce80     V87    10.0   .     S
Ce81     Ce79    10.0   1_665     S
Ce81     Ti66    10.0   1_655     S
Ce81     Ti55    10.0   1_565     S
Ce81     Ce82    10.0   .     S
Ce81     Ce83    10.0   1_665     S
Ce82     Ce80    10.0   1_665     S
Ce82     Ti66    10.0   1_655     S
Ce82     Ti55    10.0   1_565     S
Ce82     Ce84    10.0   1_665     S
Ce82     V90    10.0   .     S
Ce83     Ti66    10.0   1_545     S
Ce83     Ce84    10.0   .     S
Ce83     Ce81    10.0   1_445     S
Ce84     Ti66    10.0   1_545     S
Ce84     Ce82    10.0   1_445     S
Ce84     V86    10.0   1_545     S
V85     Er18    10.0   1_565     S
V85     Ce105    10.0   1_554     S
V85     V86    10.0   .     S
V86     Er18    10.0   1_565     S
V86     Ce84    10.0   1_565     S
V87     Er13    10.0   1_455     S
V87     V88    10.0   .     S
V88     Er13    10.0   1_455     S
V88     Ce103    10.0   1_554     S
V89     Ce101    10.0   1_554     S
V89     V90    10.0   .     S
V91     Ce98    10.0   .     S
V91     V92    10.0   1_545     S
V92     V91    10.0   1_565     S
V92     Er6    10.0   1_565     S
V92     Ce106    10.0   .     S
V93     Ce104    10.0   .     S
V93     V94    10.0   1_455     S
V94     V93    10.0   1_655     S
V94     Er4    10.0   1_655     S
V94     Ce100    10.0   .     S
Ce95     Ce96    10.0   .     S
Ce95     Ce100    10.0   .     S
Ce95     Ce98    10.0   .     S
Ce95     V107    10.0   .     S
Ce96     Ce99    10.0   .     S
Ce96     Ce97    10.0   .     S
Ce97     Ce98    10.0   .     S
Ce97     Ce99    10.0   .     S
Ce98     Ce100    10.0   .     S
Ce99     Ce100    10.0   .     S
Ce101     V89    10.0   1_556     S
Ce101     Ce102    10.0   .     S
Ce101     Ce105    10.0   .     S
Ce101     Ce103    10.0   .     S
Ce102     Ce106    10.0   .     S
Ce102     Ce104    10.0   .     S
Ce102     V108    10.0   .     S
Ce103     V88    10.0   1_556     S
Ce103     Ce104    10.0   .     S
Ce103     Ce105    10.0   .     S
Ce104     Ce106    10.0   .     S
Ce105     V85    10.0   1_556     S
Ce105     Ce106    10.0   .     S
V107     V108    10.0   .     S
