data_xux
_audit_creation_date              2020-02-04
_audit_creation_method            'Pymatgen'
_symmetry_space_group_name_H-M    'P1'
_symmetry_Int_Tables_number       1
loop_
_symmetry_equiv_pos_as_xyz
  x,y,z
_cell_length_a                    27.8944
_cell_length_b                    27.8944
_cell_length_c                    34.9151
_cell_angle_alpha                 90.0
_cell_angle_beta                 90.0
_cell_angle_gamma                 90.0
loop_
_atom_site_label
_atom_site_type_symbol
_atom_site_fract_x
_atom_site_fract_y
_atom_site_fract_z
V1     V     0.5   0.2794   0.9295
V2     V     0.2794   0.5   0.0705
V3     V     0.5   0.7206   0.9295
V4     V     0.7206   0.5   0.0705
V5     V     0.2206   0.0   0.5705
V6     V     0.0   0.2206   0.4295
V7     V     0.7794   0.0   0.5705
V8     V     0.0   0.7794   0.4295
Er9     Er     0.5   0.0   0.75
Er10     Er     0.0   0.5   0.25
loop_
_geom_bond_atom_site_label_1
_geom_bond_atom_site_label_2
_geom_bond_distance
_geom_bond_site_symmetry_2
_ccdc_geom_bond_type
V1     Er9    10.0   .     S
V1     V4    10.0   1_556     S
V1     V2    10.0   1_556     S
V2     Er10    10.0   .     S
V2     V3    10.0   1_554     S
V2     V1    10.0   1_554     S
V3     V2    10.0   1_556     S
V3     Er9    10.0   1_565     S
V3     V4    10.0   1_556     S
V4     V1    10.0   1_554     S
V4     Er10    10.0   1_655     S
V4     V3    10.0   1_554     S
V5     Er9    10.0   .     S
V5     V8    10.0   1_545     S
V5     V6    10.0   .     S
V6     Er10    10.0   .     S
V6     V7    10.0   1_455     S
V7     V6    10.0   1_655     S
V7     Er9    10.0   .     S
V7     V8    10.0   1_645     S
V8     V5    10.0   1_565     S
V8     Er10    10.0   .     S
V8     V7    10.0   1_465     S
Er9     V3    10.0   1_545     S
Er10     V4    10.0   1_455     S
