data_yan
_audit_creation_date              2020-02-04
_audit_creation_method            'Pymatgen'
_symmetry_space_group_name_H-M    'P1'
_symmetry_Int_Tables_number       1
loop_
_symmetry_equiv_pos_as_xyz
  x,y,z
_cell_length_a                    31.7735
_cell_length_b                    31.7735
_cell_length_c                    19.2342
_cell_angle_alpha                 90.0
_cell_angle_beta                 90.0
_cell_angle_gamma                 90.0
loop_
_atom_site_label
_atom_site_type_symbol
_atom_site_fract_x
_atom_site_fract_y
_atom_site_fract_z
V1     V     0.6135   0.1135   0.375
V2     V     0.6135   0.1135   0.875
V3     V     0.6135   0.3865   0.25
V4     V     0.6135   0.3865   0.75
V5     V     0.8865   0.3865   0.125
V6     V     0.8865   0.3865   0.625
V7     V     0.8865   0.1135   0.0
V8     V     0.8865   0.1135   0.5
V9     V     0.3865   0.8865   0.375
V10     V     0.3865   0.8865   0.875
V11     V     0.1135   0.8865   0.0
V12     V     0.1135   0.8865   0.5
V13     V     0.1135   0.6135   0.125
V14     V     0.1135   0.6135   0.625
V15     V     0.3865   0.6135   0.25
V16     V     0.3865   0.6135   0.75
loop_
_geom_bond_atom_site_label_1
_geom_bond_atom_site_label_2
_geom_bond_distance
_geom_bond_site_symmetry_2
_ccdc_geom_bond_type
V1     V9    10.199   1_545     S
V1     V3    9.002   .     S
V1     V8    9.002   .     S
V1     V2    9.617   1_554     S
V1     V2    9.617   .     S
V1     V4    11.282   .     S
V1     V7    11.282   .     S
V2     V10    10.199   1_545     S
V2     V4    9.002   .     S
V2     V7    9.002   1_556     S
V2     V1    9.617   1_556     S
V2     V3    11.282   1_556     S
V2     V8    11.282   .     S
V3     V15    10.199   .     S
V3     V5    9.002   .     S
V3     V4    9.617   1_554     S
V3     V4    9.617   .     S
V3     V2    11.282   1_554     S
V3     V6    11.282   .     S
V4     V16    10.199   .     S
V4     V6    9.002   .     S
V4     V3    9.617   1_556     S
V4     V5    11.282   1_556     S
V5     V13    10.199   1_655     S
V5     V7    9.002   .     S
V5     V6    9.617   .     S
V5     V6    9.617   1_554     S
V5     V4    11.282   1_554     S
V5     V8    11.282   .     S
V6     V14    10.199   1_655     S
V6     V8    9.002   .     S
V6     V5    9.617   1_556     S
V6     V7    11.282   1_556     S
V7     V11    10.199   1_645     S
V7     V2    9.002   1_554     S
V7     V8    9.617   .     S
V7     V8    9.617   1_554     S
V7     V6    11.282   1_554     S
V8     V12    10.199   1_645     S
V8     V7    9.617   1_556     S
V9     V1    10.199   1_565     S
V9     V12    9.002   .     S
V9     V15    9.002   .     S
V9     V10    9.617   1_554     S
V9     V10    9.617   .     S
V9     V11    11.282   .     S
V9     V16    11.282   .     S
V10     V2    10.199   1_565     S
V10     V11    9.002   1_556     S
V10     V16    9.002   .     S
V10     V9    9.617   1_556     S
V10     V12    11.282   .     S
V10     V15    11.282   1_556     S
V11     V7    10.199   1_465     S
V11     V10    9.002   1_554     S
V11     V13    9.002   .     S
V11     V12    9.617   .     S
V11     V12    9.617   1_554     S
V11     V14    11.282   1_554     S
V12     V8    10.199   1_465     S
V12     V14    9.002   .     S
V12     V11    9.617   1_556     S
V12     V13    11.282   .     S
V13     V5    10.199   1_455     S
V13     V15    9.002   .     S
V13     V14    9.617   .     S
V13     V14    9.617   1_554     S
V13     V16    11.282   1_554     S
V14     V6    10.199   1_455     S
V14     V16    9.002   .     S
V14     V13    9.617   1_556     S
V14     V11    11.282   1_556     S
V14     V15    11.282   .     S
V15     V16    9.617   1_554     S
V15     V16    9.617   .     S
V15     V10    11.282   1_554     S
V16     V15    9.617   1_556     S
V16     V13    11.282   1_556     S
