data_ycr
_audit_creation_date              2020-02-04
_audit_creation_method            'Pymatgen'
_symmetry_space_group_name_H-M    'P1'
_symmetry_Int_Tables_number       1
loop_
_symmetry_equiv_pos_as_xyz
  x,y,z
_cell_length_a                    78.4624
_cell_length_b                    78.4624
_cell_length_c                    78.4624
_cell_angle_alpha                 90.0
_cell_angle_beta                 90.0
_cell_angle_gamma                 90.0
loop_
_atom_site_label
_atom_site_type_symbol
_atom_site_fract_x
_atom_site_fract_y
_atom_site_fract_z
V1     V     0.7854   0.197   0.4375
V2     V     0.7146   0.303   0.4375
V3     V     0.697   0.2854   0.5625
V4     V     0.803   0.2146   0.5625
V5     V     0.697   0.2146   0.9375
V6     V     0.803   0.2854   0.9375
V7     V     0.7146   0.197   0.0625
V8     V     0.7854   0.303   0.0625
V9     V     0.803   0.9375   0.2854
V10     V     0.697   0.9375   0.2146
V11     V     0.7854   0.0625   0.303
V12     V     0.7146   0.0625   0.197
Er13     Er     0.7621   0.3126   0.1874
Er14     Er     0.7379   0.3126   0.3126
Er15     Er     0.7379   0.1874   0.1874
Er16     Er     0.7621   0.1874   0.3126
V17     V     0.7854   0.4375   0.197
V18     V     0.7146   0.4375   0.303
V19     V     0.803   0.5625   0.2146
V20     V     0.697   0.5625   0.2854
Er21     Er     0.6874   0.8126   0.2379
Er22     Er     0.8126   0.6874   0.2379
Er23     Er     0.6874   0.6874   0.2621
Er24     Er     0.8126   0.8126   0.2621
V25     V     0.4375   0.7854   0.197
V26     V     0.4375   0.7146   0.303
V27     V     0.5625   0.697   0.2854
V28     V     0.5625   0.803   0.2146
V29     V     0.9375   0.697   0.2146
V30     V     0.9375   0.803   0.2854
V31     V     0.0625   0.7146   0.197
V32     V     0.0625   0.7854   0.303
V33     V     0.2854   0.803   0.9375
V34     V     0.2146   0.697   0.9375
V35     V     0.303   0.7854   0.0625
V36     V     0.197   0.7146   0.0625
Er37     Er     0.1874   0.7379   0.1874
Er38     Er     0.3126   0.7621   0.1874
Er39     Er     0.1874   0.7621   0.3126
Er40     Er     0.3126   0.7379   0.3126
V41     V     0.2146   0.803   0.5625
V42     V     0.2854   0.697   0.5625
V43     V     0.303   0.7146   0.4375
V44     V     0.197   0.7854   0.4375
Er45     Er     0.2379   0.8126   0.6874
Er46     Er     0.2379   0.6874   0.8126
Er47     Er     0.2621   0.8126   0.8126
Er48     Er     0.2621   0.6874   0.6874
Er49     Er     0.8126   0.2379   0.6874
Er50     Er     0.6874   0.2379   0.8126
Er51     Er     0.6874   0.2621   0.6874
Er52     Er     0.8126   0.2621   0.8126
V53     V     0.197   0.4375   0.7854
V54     V     0.303   0.4375   0.7146
V55     V     0.2854   0.5625   0.697
V56     V     0.2146   0.5625   0.803
V57     V     0.2146   0.9375   0.697
V58     V     0.2854   0.9375   0.803
V59     V     0.197   0.0625   0.7146
V60     V     0.303   0.0625   0.7854
V61     V     0.9375   0.2854   0.803
V62     V     0.9375   0.2146   0.697
V63     V     0.0625   0.303   0.7854
V64     V     0.0625   0.197   0.7146
Er65     Er     0.1874   0.1874   0.7379
Er66     Er     0.1874   0.3126   0.7621
Er67     Er     0.3126   0.3126   0.7379
Er68     Er     0.3126   0.1874   0.7621
V69     V     0.5625   0.2146   0.803
V70     V     0.5625   0.2854   0.697
V71     V     0.4375   0.197   0.7854
V72     V     0.4375   0.303   0.7146
loop_
_geom_bond_atom_site_label_1
_geom_bond_atom_site_label_2
_geom_bond_distance
_geom_bond_site_symmetry_2
_ccdc_geom_bond_type
V1     Er16    10.0   .     S
V1     V2    10.0   .     S
V1     V4    10.0   .     S
V2     Er14    10.0   .     S
V2     V3    10.0   .     S
V3     Er51    10.0   .     S
V3     V4    10.0   .     S
V4     Er49    10.0   .     S
V5     Er50    10.0   .     S
V5     V6    10.0   .     S
V5     V7    10.0   1_556     S
V6     Er52    10.0   .     S
V6     V8    10.0   1_556     S
V7     Er15    10.0   .     S
V7     V8    10.0   .     S
V7     V5    10.0   1_554     S
V8     Er13    10.0   .     S
V8     V6    10.0   1_554     S
V9     Er24    10.0   .     S
V9     V10    10.0   .     S
V9     V11    10.0   1_565     S
V10     Er21    10.0   .     S
V10     V12    10.0   1_565     S
V11     Er16    10.0   .     S
V11     V12    10.0   .     S
V11     V9    10.0   1_545     S
V12     Er15    10.0   .     S
V12     V10    10.0   1_545     S
Er13     Er14    10.0   .     S
Er13     Er15    10.0   .     S
Er13     V17    10.0   .     S
Er14     Er16    10.0   .     S
Er14     V18    10.0   .     S
Er15     Er16    10.0   .     S
V17     V18    10.0   .     S
V17     V19    10.0   .     S
V18     V20    10.0   .     S
V19     Er22    10.0   .     S
V19     V20    10.0   .     S
V20     Er23    10.0   .     S
Er21     Er24    10.0   .     S
Er21     Er23    10.0   .     S
Er21     V28    10.0   .     S
Er22     Er23    10.0   .     S
Er22     Er24    10.0   .     S
Er22     V29    10.0   .     S
Er23     V27    10.0   .     S
Er24     V30    10.0   .     S
V25     Er38    10.0   .     S
V25     V26    10.0   .     S
V25     V28    10.0   .     S
V26     Er40    10.0   .     S
V26     V27    10.0   .     S
V27     V28    10.0   .     S
V29     V30    10.0   .     S
V29     V31    10.0   1_655     S
V30     V32    10.0   1_655     S
V31     Er37    10.0   .     S
V31     V32    10.0   .     S
V31     V29    10.0   1_455     S
V32     Er39    10.0   .     S
V32     V30    10.0   1_455     S
V33     Er47    10.0   .     S
V33     V34    10.0   .     S
V33     V35    10.0   1_556     S
V34     Er46    10.0   .     S
V34     V36    10.0   1_556     S
V35     Er38    10.0   .     S
V35     V36    10.0   .     S
V35     V33    10.0   1_554     S
V36     Er37    10.0   .     S
V36     V34    10.0   1_554     S
Er37     Er38    10.0   .     S
Er37     Er39    10.0   .     S
Er38     Er40    10.0   .     S
Er39     Er40    10.0   .     S
Er39     V44    10.0   .     S
Er40     V43    10.0   .     S
V41     Er45    10.0   .     S
V41     V42    10.0   .     S
V41     V44    10.0   .     S
V42     Er48    10.0   .     S
V42     V43    10.0   .     S
V43     V44    10.0   .     S
Er45     Er48    10.0   .     S
Er45     Er47    10.0   .     S
Er45     V57    10.0   .     S
Er46     Er47    10.0   .     S
Er46     Er48    10.0   .     S
Er46     V56    10.0   .     S
Er47     V58    10.0   .     S
Er48     V55    10.0   .     S
Er49     Er52    10.0   .     S
Er49     Er51    10.0   .     S
Er49     V62    10.0   .     S
Er50     Er51    10.0   .     S
Er50     Er52    10.0   .     S
Er50     V69    10.0   .     S
Er51     V70    10.0   .     S
Er52     V61    10.0   .     S
V53     Er66    10.0   .     S
V53     V54    10.0   .     S
V53     V56    10.0   .     S
V54     Er67    10.0   .     S
V54     V55    10.0   .     S
V55     V56    10.0   .     S
V57     V58    10.0   .     S
V57     V59    10.0   1_565     S
V58     V60    10.0   1_565     S
V59     Er65    10.0   .     S
V59     V60    10.0   .     S
V59     V57    10.0   1_545     S
V60     Er68    10.0   .     S
V60     V58    10.0   1_545     S
V61     V62    10.0   .     S
V61     V63    10.0   1_655     S
V62     V64    10.0   1_655     S
V63     Er66    10.0   .     S
V63     V64    10.0   .     S
V63     V61    10.0   1_455     S
V64     Er65    10.0   .     S
V64     V62    10.0   1_455     S
Er65     Er66    10.0   .     S
Er65     Er68    10.0   .     S
Er66     Er67    10.0   .     S
Er67     Er68    10.0   .     S
Er67     V72    10.0   .     S
Er68     V71    10.0   .     S
V69     V70    10.0   .     S
V69     V71    10.0   .     S
V70     V72    10.0   .     S
V71     V72    10.0   .     S
