data_yct
_audit_creation_date              2020-02-04
_audit_creation_method            'Pymatgen'
_symmetry_space_group_name_H-M    'P1'
_symmetry_Int_Tables_number       1
loop_
_symmetry_equiv_pos_as_xyz
  x,y,z
_cell_length_a                    119.0832
_cell_length_b                    119.0832
_cell_length_c                    119.0832
_cell_angle_alpha                 90.0
_cell_angle_beta                 90.0
_cell_angle_gamma                 90.0
loop_
_atom_site_label
_atom_site_type_symbol
_atom_site_fract_x
_atom_site_fract_y
_atom_site_fract_z
Er1     Er     0.2083   0.7448   0.2083
Er2     Er     0.2083   0.7552   0.2917
Er3     Er     0.2917   0.7448   0.2917
Er4     Er     0.2917   0.7552   0.2083
V5     V     0.211   0.1249   0.7346
V6     V     0.289   0.1249   0.7654
Ti7     Ti     0.2164   0.0416   0.725
Ti8     Ti     0.2836   0.0416   0.775
Ti9     Ti     0.225   0.9584   0.7164
Ti10     Ti     0.275   0.9584   0.7836
V11     V     0.2346   0.8751   0.711
V12     V     0.2654   0.8751   0.789
V13     V     0.211   0.7346   0.1249
V14     V     0.289   0.7654   0.1249
Ti15     Ti     0.2164   0.725   0.0416
Ti16     Ti     0.2836   0.775   0.0416
Ti17     Ti     0.225   0.7164   0.9584
Ti18     Ti     0.275   0.7836   0.9584
V19     V     0.2346   0.711   0.8751
V20     V     0.2654   0.789   0.8751
V21     V     0.2654   0.711   0.6249
V22     V     0.2346   0.789   0.6249
Ti23     Ti     0.2836   0.725   0.4584
Ti24     Ti     0.2164   0.775   0.4584
Ti25     Ti     0.275   0.7164   0.5416
Ti26     Ti     0.225   0.7836   0.5416
V27     V     0.289   0.7346   0.3751
V28     V     0.211   0.7654   0.3751
Er29     Er     0.2552   0.7083   0.7083
Er30     Er     0.2448   0.7083   0.7917
Er31     Er     0.2448   0.7917   0.7083
Er32     Er     0.2552   0.7917   0.7917
V33     V     0.2654   0.6249   0.711
V34     V     0.2346   0.6249   0.789
Ti35     Ti     0.2836   0.4584   0.725
Ti36     Ti     0.2164   0.4584   0.775
Ti37     Ti     0.275   0.5416   0.7164
Ti38     Ti     0.225   0.5416   0.7836
V39     V     0.211   0.3751   0.7654
V40     V     0.289   0.3751   0.7346
Er41     Er     0.2083   0.2083   0.7448
Er42     Er     0.2917   0.2083   0.7552
Er43     Er     0.2917   0.2917   0.7448
Er44     Er     0.2083   0.2917   0.7552
V45     V     0.7346   0.211   0.1249
V46     V     0.7654   0.289   0.1249
Ti47     Ti     0.725   0.2164   0.0416
Ti48     Ti     0.775   0.2836   0.0416
Ti49     Ti     0.7164   0.225   0.9584
Ti50     Ti     0.7836   0.275   0.9584
V51     V     0.711   0.2346   0.8751
V52     V     0.789   0.2654   0.8751
V53     V     0.6249   0.2654   0.711
V54     V     0.6249   0.2346   0.789
Ti55     Ti     0.4584   0.2836   0.725
Ti56     Ti     0.4584   0.2164   0.775
Ti57     Ti     0.5416   0.275   0.7164
Ti58     Ti     0.5416   0.225   0.7836
V59     V     0.3751   0.289   0.7346
V60     V     0.3751   0.211   0.7654
V61     V     0.1249   0.211   0.7346
V62     V     0.1249   0.289   0.7654
Ti63     Ti     0.0416   0.2164   0.725
Ti64     Ti     0.0416   0.2836   0.775
Ti65     Ti     0.9584   0.225   0.7164
Ti66     Ti     0.9584   0.275   0.7836
V67     V     0.8751   0.2346   0.711
V68     V     0.8751   0.2654   0.789
Er69     Er     0.7083   0.2552   0.7083
Er70     Er     0.7083   0.2448   0.7917
Er71     Er     0.7917   0.2448   0.7083
Er72     Er     0.7917   0.2552   0.7917
V73     V     0.711   0.2654   0.6249
V74     V     0.789   0.2346   0.6249
Ti75     Ti     0.725   0.2836   0.4584
Ti76     Ti     0.775   0.2164   0.4584
Ti77     Ti     0.7164   0.275   0.5416
Ti78     Ti     0.7836   0.225   0.5416
V79     V     0.7654   0.211   0.3751
V80     V     0.7346   0.289   0.3751
Er81     Er     0.7448   0.2083   0.2083
Er82     Er     0.7552   0.2917   0.2083
Er83     Er     0.7448   0.2917   0.2917
Er84     Er     0.7552   0.2083   0.2917
V85     V     0.1249   0.7346   0.211
V86     V     0.1249   0.7654   0.289
Ti87     Ti     0.0416   0.725   0.2164
Ti88     Ti     0.0416   0.775   0.2836
Ti89     Ti     0.9584   0.7164   0.225
Ti90     Ti     0.9584   0.7836   0.275
V91     V     0.8751   0.711   0.2346
V92     V     0.8751   0.789   0.2654
V93     V     0.7346   0.1249   0.211
V94     V     0.7654   0.1249   0.289
Ti95     Ti     0.725   0.0416   0.2164
Ti96     Ti     0.775   0.0416   0.2836
Ti97     Ti     0.7164   0.9584   0.225
Ti98     Ti     0.7836   0.9584   0.275
V99     V     0.711   0.8751   0.2346
V100     V     0.789   0.8751   0.2654
V101     V     0.711   0.6249   0.2654
V102     V     0.789   0.6249   0.2346
Ti103     Ti     0.725   0.4584   0.2836
Ti104     Ti     0.775   0.4584   0.2164
Ti105     Ti     0.7164   0.5416   0.275
Ti106     Ti     0.7836   0.5416   0.225
V107     V     0.7346   0.3751   0.289
V108     V     0.7654   0.3751   0.211
Er109     Er     0.7083   0.7083   0.2552
Er110     Er     0.7083   0.7917   0.2448
Er111     Er     0.7917   0.7083   0.2448
Er112     Er     0.7917   0.7917   0.2552
V113     V     0.6249   0.711   0.2654
V114     V     0.6249   0.789   0.2346
Ti115     Ti     0.4584   0.725   0.2836
Ti116     Ti     0.4584   0.775   0.2164
Ti117     Ti     0.5416   0.7164   0.275
Ti118     Ti     0.5416   0.7836   0.225
V119     V     0.3751   0.7654   0.211
V120     V     0.3751   0.7346   0.289
loop_
_geom_bond_atom_site_label_1
_geom_bond_atom_site_label_2
_geom_bond_distance
_geom_bond_site_symmetry_2
_ccdc_geom_bond_type
Er1     Er4    10.007   .     S
Er1     Er2    10.007   .     S
Er1     V13    10.011   .     S
Er1     V85    10.011   .     S
Er2     Er3    10.007   .     S
Er2     V28    10.011   .     S
Er2     V86    10.011   .     S
Er3     Er4    10.007   .     S
Er3     V27    10.011   .     S
Er3     V120    10.011   .     S
Er4     V14    10.011   .     S
Er4     V119    10.011   .     S
V5     Er41    10.011   .     S
V5     Ti7    10.009   .     S
V5     V6    9.972   .     S
V6     Er42    10.011   .     S
V6     Ti8    10.009   .     S
Ti7     Ti9    10.008   1_545     S
Ti7     Ti8    9.975   .     S
Ti8     Ti10    10.008   1_545     S
Ti9     Ti7    10.008   1_565     S
Ti9     V11    10.009   .     S
Ti9     Ti10    9.975   .     S
Ti10     Ti8    10.008   1_565     S
Ti10     V12    10.009   .     S
V11     Er31    10.011   .     S
V11     V12    9.972   .     S
V12     Er32    10.011   .     S
V13     Ti15    10.009   .     S
V13     V14    9.972   .     S
V14     Ti16    10.009   .     S
Ti15     Ti17    10.008   1_554     S
Ti15     Ti16    9.975   .     S
Ti16     Ti18    10.008   1_554     S
Ti17     Ti15    10.008   1_556     S
Ti17     V19    10.009   .     S
Ti17     Ti18    9.975   .     S
Ti18     Ti16    10.008   1_556     S
Ti18     V20    10.009   .     S
V19     Er30    10.011   .     S
V19     V20    9.972   .     S
V20     Er32    10.011   .     S
V21     Er29    10.011   .     S
V21     Ti25    10.009   .     S
V21     V22    9.972   .     S
V22     Er31    10.011   .     S
V22     Ti26    10.009   .     S
Ti23     Ti25    10.008   .     S
Ti23     V27    10.009   .     S
Ti23     Ti24    9.975   .     S
Ti24     Ti26    10.008   .     S
Ti24     V28    10.009   .     S
Ti25     Ti26    9.975   .     S
V27     V28    9.972   .     S
Er29     Er31    10.007   .     S
Er29     Er30    10.007   .     S
Er29     V33    10.011   .     S
Er30     Er32    10.007   .     S
Er30     V34    10.011   .     S
Er31     Er32    10.007   .     S
V33     Ti37    10.009   .     S
V33     V34    9.972   .     S
V34     Ti38    10.009   .     S
Ti35     Ti37    10.008   .     S
Ti35     V40    10.009   .     S
Ti35     Ti36    9.975   .     S
Ti36     Ti38    10.008   .     S
Ti36     V39    10.009   .     S
Ti37     Ti38    9.975   .     S
V39     Er44    10.011   .     S
V39     V40    9.972   .     S
V40     Er43    10.011   .     S
Er41     Er44    10.007   .     S
Er41     Er42    10.007   .     S
Er41     V61    10.011   .     S
Er42     Er43    10.007   .     S
Er42     V60    10.011   .     S
Er43     Er44    10.007   .     S
Er43     V59    10.011   .     S
Er44     V62    10.011   .     S
V45     Er81    10.011   .     S
V45     Ti47    10.009   .     S
V45     V46    9.972   .     S
V46     Er82    10.011   .     S
V46     Ti48    10.009   .     S
Ti47     Ti49    10.008   1_554     S
Ti47     Ti48    9.975   .     S
Ti48     Ti50    10.008   1_554     S
Ti49     Ti47    10.008   1_556     S
Ti49     V51    10.009   .     S
Ti49     Ti50    9.975   .     S
Ti50     Ti48    10.008   1_556     S
Ti50     V52    10.009   .     S
V51     Er70    10.011   .     S
V51     V52    9.972   .     S
V52     Er72    10.011   .     S
V53     Er69    10.011   .     S
V53     Ti57    10.009   .     S
V53     V54    9.972   .     S
V54     Er70    10.011   .     S
V54     Ti58    10.009   .     S
Ti55     Ti57    10.008   .     S
Ti55     V59    10.009   .     S
Ti55     Ti56    9.975   .     S
Ti56     Ti58    10.008   .     S
Ti56     V60    10.009   .     S
Ti57     Ti58    9.975   .     S
V59     V60    9.972   .     S
V61     Ti63    10.009   .     S
V61     V62    9.972   .     S
V62     Ti64    10.009   .     S
Ti63     Ti65    10.008   1_455     S
Ti63     Ti64    9.975   .     S
Ti64     Ti66    10.008   1_455     S
Ti65     Ti63    10.008   1_655     S
Ti65     V67    10.009   .     S
Ti65     Ti66    9.975   .     S
Ti66     Ti64    10.008   1_655     S
Ti66     V68    10.009   .     S
V67     Er71    10.011   .     S
V67     V68    9.972   .     S
V68     Er72    10.011   .     S
Er69     Er70    10.007   .     S
Er69     Er71    10.007   .     S
Er69     V73    10.011   .     S
Er70     Er72    10.007   .     S
Er71     Er72    10.007   .     S
Er71     V74    10.011   .     S
V73     Ti77    10.009   .     S
V73     V74    9.972   .     S
V74     Ti78    10.009   .     S
Ti75     Ti77    10.008   .     S
Ti75     V80    10.009   .     S
Ti75     Ti76    9.975   .     S
Ti76     Ti78    10.008   .     S
Ti76     V79    10.009   .     S
Ti77     Ti78    9.975   .     S
V79     Er84    10.011   .     S
V79     V80    9.972   .     S
V80     Er83    10.011   .     S
Er81     Er84    10.007   .     S
Er81     Er82    10.007   .     S
Er81     V93    10.011   .     S
Er82     Er83    10.007   .     S
Er82     V108    10.011   .     S
Er83     Er84    10.007   .     S
Er83     V107    10.011   .     S
Er84     V94    10.011   .     S
V85     Ti87    10.009   .     S
V85     V86    9.972   .     S
V86     Ti88    10.009   .     S
Ti87     Ti89    10.008   1_455     S
Ti87     Ti88    9.975   .     S
Ti88     Ti90    10.008   1_455     S
Ti89     Ti87    10.008   1_655     S
Ti89     V91    10.009   .     S
Ti89     Ti90    9.975   .     S
Ti90     Ti88    10.008   1_655     S
Ti90     V92    10.009   .     S
V91     Er111    10.011   .     S
V91     V92    9.972   .     S
V92     Er112    10.011   .     S
V93     Ti95    10.009   .     S
V93     V94    9.972   .     S
V94     Ti96    10.009   .     S
Ti95     Ti97    10.008   1_545     S
Ti95     Ti96    9.975   .     S
Ti96     Ti98    10.008   1_545     S
Ti97     Ti95    10.008   1_565     S
Ti97     V99    10.009   .     S
Ti97     Ti98    9.975   .     S
Ti98     Ti96    10.008   1_565     S
Ti98     V100    10.009   .     S
V99     Er110    10.011   .     S
V99     V100    9.972   .     S
V100     Er112    10.011   .     S
V101     Er109    10.011   .     S
V101     Ti105    10.009   .     S
V101     V102    9.972   .     S
V102     Er111    10.011   .     S
V102     Ti106    10.009   .     S
Ti103     Ti105    10.008   .     S
Ti103     V107    10.009   .     S
Ti103     Ti104    9.975   .     S
Ti104     Ti106    10.008   .     S
Ti104     V108    10.009   .     S
Ti105     Ti106    9.975   .     S
V107     V108    9.972   .     S
Er109     Er111    10.007   .     S
Er109     Er110    10.007   .     S
Er109     V113    10.011   .     S
Er110     Er112    10.007   .     S
Er110     V114    10.011   .     S
Er111     Er112    10.007   .     S
V113     Ti117    10.009   .     S
V113     V114    9.972   .     S
V114     Ti118    10.009   .     S
Ti115     Ti117    10.008   .     S
Ti115     V120    10.009   .     S
Ti115     Ti116    9.975   .     S
Ti116     Ti118    10.008   .     S
Ti116     V119    10.009   .     S
Ti117     Ti118    9.975   .     S
V119     V120    9.972   .     S
