data_ydq
_audit_creation_date              2020-02-04
_audit_creation_method            'Pymatgen'
_symmetry_space_group_name_H-M    'P1'
_symmetry_Int_Tables_number       1
loop_
_symmetry_equiv_pos_as_xyz
  x,y,z
_cell_length_a                    65.554
_cell_length_b                    65.554
_cell_length_c                    65.554
_cell_angle_alpha                 90.0
_cell_angle_beta                 90.0
_cell_angle_gamma                 90.0
loop_
_atom_site_label
_atom_site_type_symbol
_atom_site_fract_x
_atom_site_fract_y
_atom_site_fract_z
V1     V     0.875   0.875   0.6989
V2     V     0.875   0.6989   0.875
V3     V     0.6989   0.875   0.875
V4     V     0.875   0.875   0.0511
V5     V     0.0511   0.875   0.875
V6     V     0.875   0.0511   0.875
Er7     Er     0.9028   0.0222   0.0222
Er8     Er     0.0222   0.0222   0.9028
Er9     Er     0.0222   0.7278   0.8472
Er10     Er     0.7278   0.8472   0.0222
Er11     Er     0.0222   0.9028   0.0222
Er12     Er     0.7278   0.9028   0.7278
Er13     Er     0.7278   0.7278   0.9028
Er14     Er     0.9028   0.7278   0.7278
Er15     Er     0.0222   0.8472   0.7278
Er16     Er     0.8472   0.0222   0.7278
Er17     Er     0.7278   0.0222   0.8472
Er18     Er     0.8472   0.7278   0.0222
V19     V     0.375   0.5511   0.875
Er20     Er     0.4028   0.5222   0.0222
Er21     Er     0.3472   0.5222   0.7278
Er22     Er     0.2278   0.5222   0.8472
V23     V     0.375   0.1989   0.875
Er24     Er     0.4028   0.2278   0.7278
V25     V     0.1989   0.375   0.875
V26     V     0.375   0.375   0.6989
Er27     Er     0.2278   0.4028   0.7278
V28     V     0.5511   0.375   0.875
Er29     Er     0.5222   0.2278   0.8472
V30     V     0.375   0.375   0.0511
Er31     Er     0.2278   0.3472   0.0222
Er32     Er     0.5222   0.4028   0.0222
Er33     Er     0.5222   0.5222   0.9028
Er34     Er     0.5222   0.3472   0.7278
Er35     Er     0.3472   0.2278   0.0222
Er36     Er     0.2278   0.2278   0.9028
V37     V     0.625   0.8011   0.125
Er38     Er     0.6528   0.7722   0.9778
Er39     Er     0.5972   0.7722   0.2722
V40     V     0.625   0.625   0.3011
V41     V     0.625   0.4489   0.125
Er42     Er     0.6528   0.4778   0.2722
Er43     Er     0.5972   0.4778   0.9778
V44     V     0.8011   0.625   0.125
Er45     Er     0.7722   0.6527   0.9778
Er46     Er     0.7722   0.7722   0.0972
Er47     Er     0.7722   0.4778   0.1528
Er48     Er     0.7722   0.5972   0.2722
V49     V     0.625   0.625   0.9489
V50     V     0.4489   0.625   0.125
Er51     Er     0.4778   0.6528   0.2722
Er52     Er     0.4778   0.5972   0.9778
Er53     Er     0.4778   0.7722   0.1528
Er54     Er     0.4778   0.4778   0.0972
V55     V     0.375   0.0511   0.375
V56     V     0.5511   0.875   0.375
V57     V     0.375   0.875   0.5511
Er58     Er     0.2278   0.8472   0.5222
Er59     Er     0.4028   0.0222   0.5222
Er60     Er     0.5222   0.9028   0.5222
Er61     Er     0.5222   0.0222   0.4028
Er62     Er     0.5222   0.7278   0.3472
V63     V     0.1989   0.875   0.375
Er64     Er     0.2278   0.0222   0.3473
Er65     Er     0.2278   0.7278   0.4028
V66     V     0.375   0.6989   0.375
Er67     Er     0.4028   0.7278   0.2278
V68     V     0.375   0.875   0.1989
Er69     Er     0.2278   0.9028   0.2278
Er70     Er     0.5222   0.8472   0.2278
Er71     Er     0.3472   0.0222   0.2278
Er72     Er     0.3472   0.7278   0.5222
V73     V     0.9489   0.625   0.625
V74     V     0.125   0.625   0.8011
Er75     Er     0.9778   0.6527   0.7722
Er76     Er     0.2722   0.5972   0.7722
V77     V     0.3011   0.625   0.625
Er78     Er     0.2722   0.7722   0.5973
V79     V     0.125   0.8011   0.625
Er80     Er     0.9778   0.7722   0.6528
V81     V     0.125   0.625   0.4489
Er82     Er     0.2722   0.6527   0.4778
Er83     Er     0.9778   0.5972   0.4778
V84     V     0.125   0.4489   0.625
Er85     Er     0.9778   0.4778   0.5972
Er86     Er     0.2722   0.4778   0.6528
Er87     Er     0.1528   0.4778   0.7722
Er88     Er     0.0972   0.4778   0.4778
Er89     Er     0.0972   0.7722   0.7722
Er90     Er     0.1528   0.7722   0.4778
V91     V     0.3011   0.125   0.125
Er92     Er     0.2722   0.1528   0.9778
V93     V     0.125   0.3011   0.125
V94     V     0.125   0.125   0.3011
V95     V     0.9489   0.125   0.125
Er96     Er     0.9778   0.0972   0.9778
Er97     Er     0.9778   0.2722   0.1527
Er98     Er     0.9778   0.1528   0.2722
V99     V     0.125   0.125   0.9489
V100     V     0.125   0.9489   0.125
Er101     Er     0.9778   0.9778   0.0972
Er102     Er     0.2722   0.9778   0.1528
Er103     Er     0.0972   0.9778   0.9778
Er104     Er     0.1528   0.9778   0.2722
Er105     Er     0.1528   0.2722   0.9778
Er106     Er     0.0972   0.2722   0.2722
Er107     Er     0.2722   0.0972   0.2722
Er108     Er     0.2722   0.2722   0.0972
V109     V     0.875   0.5511   0.375
Er110     Er     0.0222   0.5222   0.4028
Er111     Er     0.8472   0.5222   0.2278
V112     V     0.875   0.375   0.1989
Er113     Er     0.0222   0.3472   0.2278
Er114     Er     0.7278   0.4028   0.2278
V115     V     0.6989   0.375   0.375
V116     V     0.0511   0.375   0.375
Er117     Er     0.0222   0.2278   0.3472
V118     V     0.875   0.1989   0.375
Er119     Er     0.9028   0.2278   0.2278
Er120     Er     0.7278   0.2278   0.4028
V121     V     0.875   0.375   0.5511
Er122     Er     0.7278   0.3472   0.5222
Er123     Er     0.0222   0.4028   0.5222
Er124     Er     0.8472   0.2278   0.5222
Er125     Er     0.9028   0.5222   0.5222
Er126     Er     0.7278   0.5222   0.3473
V127     V     0.625   0.9489   0.625
V128     V     0.625   0.3011   0.625
V129     V     0.4489   0.125   0.625
Er130     Er     0.4778   0.9778   0.5973
Er131     Er     0.4778   0.2722   0.6527
V132     V     0.625   0.125   0.4489
Er133     Er     0.5972   0.9778   0.4778
Er134     Er     0.6528   0.2722   0.4778
Er135     Er     0.4778   0.0972   0.4778
V136     V     0.8011   0.125   0.625
Er137     Er     0.7722   0.9778   0.6528
Er138     Er     0.7722   0.1528   0.4778
Er139     Er     0.7722   0.2722   0.5972
V140     V     0.625   0.125   0.8011
Er141     Er     0.6528   0.9778   0.7722
Er142     Er     0.4778   0.1528   0.7722
Er143     Er     0.5972   0.2722   0.7722
Er144     Er     0.7722   0.0972   0.7722
loop_
_geom_bond_atom_site_label_1
_geom_bond_atom_site_label_2
_geom_bond_distance
_geom_bond_site_symmetry_2
_ccdc_geom_bond_type
V1     Er80    10.0   .     S
V1     Er15    10.0   1_655     S
V1     Er14    10.0   .     S
V1     Er137    10.0   .     S
V1     Er12    10.0   .     S
V1     Er16    10.0   1_565     S
V2     Er45    10.0   .     S
V2     Er18    10.0   1_556     S
V2     Er13    10.0   .     S
V2     Er75    10.0   .     S
V2     Er9    10.0   1_655     S
V2     Er14    10.0   .     S
V3     Er141    10.0   .     S
V3     Er12    10.0   .     S
V3     Er17    10.0   1_565     S
V3     Er38    10.0   .     S
V3     Er10    10.0   1_556     S
V3     Er13    10.0   .     S
V4     Er46    10.0   .     S
V4     Er10    10.0   .     S
V4     Er18    10.0   .     S
V4     Er101    10.0   .     S
V4     Er11    10.0   1_655     S
V4     Er7    10.0   1_565     S
V5     Er89    10.0   .     S
V5     Er9    10.0   .     S
V5     Er15    10.0   .     S
V5     Er103    10.0   .     S
V5     Er8    10.0   1_565     S
V5     Er11    10.0   1_556     S
V6     Er144    10.0   .     S
V6     Er16    10.0   .     S
V6     Er17    10.0   .     S
V6     Er96    10.0   .     S
V6     Er7    10.0   1_556     S
V6     Er8    10.0   1_655     S
Er7     V4    10.0   1_545     S
Er7     V6    10.0   1_554     S
Er7     V95    10.0   .     S
Er8     V5    10.0   1_545     S
Er8     V6    10.0   1_455     S
Er8     V99    10.0   .     S
Er9     V2    10.0   1_455     S
Er9     V74    10.0   .     S
Er10     V3    10.0   1_554     S
Er10     V37    10.0   .     S
Er11     V4    10.0   1_455     S
Er11     V5    10.0   1_554     S
Er11     V100    10.0   .     S
Er12     V127    10.0   .     S
Er13     V49    10.0   .     S
Er14     V73    10.0   .     S
Er15     V1    10.0   1_455     S
Er15     V79    10.0   .     S
Er16     V1    10.0   1_545     S
Er16     V136    10.0   .     S
Er17     V3    10.0   1_545     S
Er17     V140    10.0   .     S
Er18     V2    10.0   1_554     S
Er18     V44    10.0   .     S
V19     Er76    10.0   .     S
V19     Er22    10.0   .     S
V19     Er21    10.0   .     S
V19     Er52    10.0   .     S
V19     Er33    10.0   .     S
V19     Er20    10.0   1_556     S
Er20     V19    10.0   1_554     S
Er20     V30    10.0   .     S
Er20     V50    10.0   .     S
Er21     V26    10.0   .     S
Er21     V77    10.0   .     S
Er22     V25    10.0   .     S
Er22     V74    10.0   .     S
V23     Er142    10.0   .     S
V23     Er29    10.0   .     S
V23     Er24    10.0   .     S
V23     Er92    10.0   .     S
V23     Er35    10.0   1_556     S
V23     Er36    10.0   .     S
Er24     V26    10.0   .     S
Er24     V129    10.0   .     S
V25     Er87    10.0   .     S
V25     Er27    10.0   .     S
V25     Er105    10.0   .     S
V25     Er36    10.0   .     S
V25     Er31    10.0   1_556     S
V26     Er86    10.0   .     S
V26     Er27    10.0   .     S
V26     Er131    10.0   .     S
V26     Er34    10.0   .     S
Er27     V84    10.0   .     S
V28     Er143    10.0   .     S
V28     Er29    10.0   .     S
V28     Er34    10.0   .     S
V28     Er43    10.0   .     S
V28     Er32    10.0   1_556     S
V28     Er33    10.0   .     S
Er29     V140    10.0   .     S
V30     Er108    10.0   .     S
V30     Er35    10.0   .     S
V30     Er31    10.0   .     S
V30     Er54    10.0   .     S
V30     Er32    10.0   .     S
Er31     V25    10.0   1_554     S
Er31     V93    10.0   .     S
Er32     V28    10.0   1_554     S
Er32     V41    10.0   .     S
Er33     V49    10.0   .     S
Er34     V128    10.0   .     S
Er35     V23    10.0   1_554     S
Er35     V91    10.0   .     S
Er36     V99    10.0   .     S
V37     Er46    10.0   .     S
V37     Er38    10.0   1_554     S
V37     Er70    10.0   .     S
V37     Er53    10.0   .     S
V37     Er39    10.0   .     S
Er38     V37    10.0   1_556     S
Er38     V49    10.0   .     S
Er39     V40    10.0   .     S
Er39     V56    10.0   .     S
V40     Er126    10.0   .     S
V40     Er42    10.0   .     S
V40     Er48    10.0   .     S
V40     Er62    10.0   .     S
V40     Er51    10.0   .     S
V41     Er114    10.0   .     S
V41     Er42    10.0   .     S
V41     Er47    10.0   .     S
V41     Er43    10.0   1_554     S
V41     Er54    10.0   .     S
Er42     V115    10.0   .     S
Er43     V41    10.0   1_556     S
Er43     V49    10.0   .     S
V44     Er45    10.0   1_554     S
V44     Er46    10.0   .     S
V44     Er111    10.0   .     S
V44     Er48    10.0   .     S
V44     Er47    10.0   .     S
Er45     V44    10.0   1_556     S
Er45     V49    10.0   .     S
Er47     V112    10.0   .     S
Er48     V109    10.0   .     S
V49     Er52    10.0   .     S
V50     Er67    10.0   .     S
V50     Er53    10.0   .     S
V50     Er51    10.0   .     S
V50     Er54    10.0   .     S
V50     Er52    10.0   1_554     S
Er51     V66    10.0   .     S
Er52     V50    10.0   1_556     S
Er53     V68    10.0   .     S
V55     Er135    10.0   .     S
V55     Er59    10.0   .     S
V55     Er61    10.0   .     S
V55     Er107    10.0   .     S
V55     Er71    10.0   .     S
V55     Er64    10.0   .     S
V56     Er70    10.0   .     S
V56     Er62    10.0   .     S
V56     Er133    10.0   .     S
V56     Er60    10.0   .     S
V56     Er61    10.0   1_565     S
V57     Er78    10.0   .     S
V57     Er58    10.0   .     S
V57     Er72    10.0   .     S
V57     Er130    10.0   .     S
V57     Er59    10.0   1_565     S
V57     Er60    10.0   .     S
Er58     V63    10.0   .     S
Er58     V79    10.0   .     S
Er59     V57    10.0   1_545     S
Er59     V129    10.0   .     S
Er60     V127    10.0   .     S
Er61     V56    10.0   1_545     S
Er61     V132    10.0   .     S
Er62     V66    10.0   .     S
V63     Er90    10.0   .     S
V63     Er65    10.0   .     S
V63     Er104    10.0   .     S
V63     Er64    10.0   1_565     S
V63     Er69    10.0   .     S
Er64     V63    10.0   1_545     S
Er64     V94    10.0   .     S
Er65     V66    10.0   .     S
Er65     V81    10.0   .     S
V66     Er67    10.0   .     S
V66     Er82    10.0   .     S
V66     Er72    10.0   .     S
Er67     V68    10.0   .     S
V68     Er70    10.0   .     S
V68     Er102    10.0   .     S
V68     Er69    10.0   .     S
V68     Er71    10.0   1_565     S
Er69     V100    10.0   .     S
Er71     V68    10.0   1_545     S
Er71     V91    10.0   .     S
Er72     V77    10.0   .     S
V73     Er75    10.0   .     S
V73     Er80    10.0   .     S
V73     Er125    10.0   .     S
V73     Er83    10.0   .     S
V73     Er85    10.0   .     S
V74     Er75    10.0   1_455     S
V74     Er89    10.0   .     S
V74     Er76    10.0   .     S
V74     Er87    10.0   .     S
Er75     V74    10.0   1_655     S
Er76     V77    10.0   .     S
V77     Er86    10.0   .     S
V77     Er82    10.0   .     S
V77     Er78    10.0   .     S
Er78     V79    10.0   .     S
V79     Er80    10.0   1_455     S
V79     Er89    10.0   .     S
V79     Er90    10.0   .     S
Er80     V79    10.0   1_655     S
V81     Er82    10.0   .     S
V81     Er90    10.0   .     S
V81     Er110    10.0   .     S
V81     Er83    10.0   1_455     S
V81     Er88    10.0   .     S
Er83     V81    10.0   1_655     S
Er83     V109    10.0   .     S
V84     Er86    10.0   .     S
V84     Er87    10.0   .     S
V84     Er123    10.0   .     S
V84     Er88    10.0   .     S
V84     Er85    10.0   1_455     S
Er85     V84    10.0   1_655     S
Er85     V121    10.0   .     S
Er88     V116    10.0   .     S
V91     Er108    10.0   .     S
V91     Er92    10.0   1_554     S
V91     Er102    10.0   1_545     S
V91     Er107    10.0   .     S
Er92     V91    10.0   1_556     S
Er92     V99    10.0   .     S
V93     Er108    10.0   .     S
V93     Er105    10.0   1_554     S
V93     Er113    10.0   .     S
V93     Er106    10.0   .     S
V93     Er97    10.0   1_455     S
V94     Er104    10.0   1_545     S
V94     Er107    10.0   .     S
V94     Er117    10.0   .     S
V94     Er106    10.0   .     S
V94     Er98    10.0   1_455     S
V95     Er101    10.0   1_545     S
V95     Er96    10.0   1_554     S
V95     Er119    10.0   .     S
V95     Er97    10.0   .     S
V95     Er98    10.0   .     S
Er96     V95    10.0   1_556     S
Er96     V99    10.0   1_655     S
Er97     V93    10.0   1_655     S
Er97     V112    10.0   .     S
Er98     V94    10.0   1_655     S
Er98     V118    10.0   .     S
V99     Er103    10.0   1_545     S
V99     Er96    10.0   1_455     S
V99     Er105    10.0   .     S
V100     Er103    10.0   1_554     S
V100     Er101    10.0   1_455     S
V100     Er102    10.0   .     S
V100     Er104    10.0   .     S
Er101     V95    10.0   1_565     S
Er101     V100    10.0   1_655     S
Er102     V91    10.0   1_565     S
Er103     V99    10.0   1_565     S
Er103     V100    10.0   1_556     S
Er104     V94    10.0   1_565     S
Er105     V93    10.0   1_556     S
Er106     V116    10.0   .     S
V109     Er111    10.0   .     S
V109     Er126    10.0   .     S
V109     Er125    10.0   .     S
V109     Er110    10.0   1_655     S
Er110     V109    10.0   1_455     S
Er110     V116    10.0   .     S
Er111     V112    10.0   .     S
V112     Er114    10.0   .     S
V112     Er119    10.0   .     S
V112     Er113    10.0   1_655     S
Er113     V112    10.0   1_455     S
Er113     V116    10.0   .     S
Er114     V115    10.0   .     S
V115     Er126    10.0   .     S
V115     Er134    10.0   .     S
V115     Er120    10.0   .     S
V115     Er122    10.0   .     S
V116     Er117    10.0   .     S
V116     Er123    10.0   .     S
Er117     V118    10.0   1_455     S
V118     Er138    10.0   .     S
V118     Er120    10.0   .     S
V118     Er124    10.0   .     S
V118     Er119    10.0   .     S
V118     Er117    10.0   1_655     S
Er120     V132    10.0   .     S
V121     Er139    10.0   .     S
V121     Er124    10.0   .     S
V121     Er122    10.0   .     S
V121     Er125    10.0   .     S
V121     Er123    10.0   1_655     S
Er122     V128    10.0   .     S
Er123     V121    10.0   1_455     S
Er124     V136    10.0   .     S
V127     Er137    10.0   .     S
V127     Er141    10.0   .     S
V127     Er133    10.0   .     S
V127     Er130    10.0   .     S
V128     Er131    10.0   .     S
V128     Er143    10.0   .     S
V128     Er134    10.0   .     S
V128     Er139    10.0   .     S
V129     Er131    10.0   .     S
V129     Er142    10.0   .     S
V129     Er130    10.0   1_545     S
V129     Er135    10.0   .     S
Er130     V129    10.0   1_565     S
V132     Er134    10.0   .     S
V132     Er138    10.0   .     S
V132     Er133    10.0   1_545     S
V132     Er135    10.0   .     S
Er133     V132    10.0   1_565     S
V136     Er137    10.0   1_545     S
V136     Er144    10.0   .     S
V136     Er139    10.0   .     S
V136     Er138    10.0   .     S
Er137     V136    10.0   1_565     S
V140     Er141    10.0   1_545     S
V140     Er144    10.0   .     S
V140     Er143    10.0   .     S
V140     Er142    10.0   .     S
Er141     V140    10.0   1_565     S
