data_yfg
_audit_creation_date              2020-02-04
_audit_creation_method            'Pymatgen'
_symmetry_space_group_name_H-M    'P1'
_symmetry_Int_Tables_number       1
loop_
_symmetry_equiv_pos_as_xyz
  x,y,z
_cell_length_a                    21.0954
_cell_length_b                    21.0954
_cell_length_c                    23.6111
_cell_angle_alpha                 90.0
_cell_angle_beta                 90.0
_cell_angle_gamma                 90.0
loop_
_atom_site_label
_atom_site_type_symbol
_atom_site_fract_x
_atom_site_fract_y
_atom_site_fract_z
V1     V     0.4596   0.2325   0.7087
V2     V     0.7675   0.5404   0.5413
V3     V     0.7675   0.4596   0.9587
V4     V     0.4596   0.7675   0.7913
V5     V     0.2325   0.5404   0.4587
V6     V     0.5404   0.2325   0.2913
V7     V     0.2325   0.4596   0.0413
V8     V     0.5404   0.7675   0.2087
loop_
_geom_bond_atom_site_label_1
_geom_bond_atom_site_label_2
_geom_bond_distance
_geom_bond_site_symmetry_2
_ccdc_geom_bond_type
V1     V3    10.0   .     S
V1     V6    10.0   .     S
V1     V5    10.0   .     S
V1     V2    10.0   .     S
V1     V4    10.0   1_545     S
V2     V3    10.0   .     S
V2     V4    10.0   .     S
V2     V6    10.0   .     S
V2     V5    10.0   1_655     S
V3     V8    10.0   1_556     S
V3     V4    10.0   .     S
V3     V7    10.0   1_656     S
V4     V8    10.0   1_556     S
V4     V7    10.0   1_556     S
V4     V1    10.0   1_565     S
V5     V7    10.0   .     S
V5     V8    10.0   .     S
V5     V2    10.0   1_455     S
V5     V6    10.0   .     S
V6     V7    10.0   .     S
V6     V8    10.0   1_545     S
V7     V4    10.0   1_554     S
V7     V3    10.0   1_454     S
V7     V8    10.0   .     S
V8     V4    10.0   1_554     S
V8     V3    10.0   1_554     S
V8     V6    10.0   1_565     S
