data_yfm
_audit_creation_date              2020-02-04
_audit_creation_method            'Pymatgen'
_symmetry_space_group_name_H-M    'P1'
_symmetry_Int_Tables_number       1
loop_
_symmetry_equiv_pos_as_xyz
  x,y,z
_cell_length_a                    41.6064
_cell_length_b                    41.6064
_cell_length_c                    24.8614
_cell_angle_alpha                 90.0
_cell_angle_beta                 90.0
_cell_angle_gamma                 90.0
loop_
_atom_site_label
_atom_site_type_symbol
_atom_site_fract_x
_atom_site_fract_y
_atom_site_fract_z
V1     V     0.7205   0.1298   0.445
V2     V     0.7795   0.1298   0.055
V3     V     0.7205   0.3702   0.445
V4     V     0.7795   0.3702   0.0551
V5     V     0.1202   0.5295   0.305
V6     V     0.1202   0.4705   0.695
V7     V     0.8798   0.5295   0.3051
V8     V     0.8798   0.4705   0.695
V9     V     0.3798   0.4705   0.805
V10     V     0.3798   0.5295   0.195
V11     V     0.6202   0.4705   0.805
V12     V     0.6202   0.5295   0.1949
V13     V     0.7205   0.8702   0.555
V14     V     0.7795   0.8702   0.945
V15     V     0.7205   0.6298   0.555
V16     V     0.7795   0.6298   0.945
V17     V     0.2205   0.3702   0.055
V18     V     0.2795   0.3702   0.445
V19     V     0.2205   0.1298   0.055
V20     V     0.2795   0.1298   0.445
V21     V     0.6202   0.9705   0.1949
V22     V     0.6202   0.0295   0.805
V23     V     0.3798   0.0295   0.805
V24     V     0.3798   0.9705   0.195
V25     V     0.2795   0.8702   0.555
V26     V     0.2205   0.8702   0.945
V27     V     0.2795   0.6298   0.555
V28     V     0.2205   0.6298   0.945
V29     V     0.1202   0.0295   0.695
V30     V     0.1202   0.9705   0.305
V31     V     0.8798   0.9705   0.3051
V32     V     0.8798   0.0295   0.695
loop_
_geom_bond_atom_site_label_1
_geom_bond_atom_site_label_2
_geom_bond_distance
_geom_bond_site_symmetry_2
_ccdc_geom_bond_type
V1     V21    10.0   1_545     S
V1     V32    10.0   .     S
V1     V31    10.0   1_545     S
V1     V2    10.0   .     S
V1     V3    10.0   .     S
V2     V21    10.0   1_545     S
V2     V22    10.0   1_554     S
V2     V31    10.0   1_545     S
V2     V4    10.0   .     S
V3     V4    10.0   .     S
V3     V8    10.0   .     S
V3     V7    10.0   .     S
V3     V12    10.0   .     S
V4     V7    10.0   .     S
V4     V11    10.0   1_554     S
V4     V12    10.0   .     S
V5     V27    10.0   .     S
V5     V17    10.0   .     S
V5     V18    10.0   .     S
V5     V6    10.0   .     S
V5     V7    10.0   1_455     S
V6     V28    10.0   .     S
V6     V27    10.0   .     S
V6     V18    10.0   .     S
V6     V8    10.0   1_455     S
V7     V15    10.0   .     S
V7     V8    10.0   .     S
V7     V5    10.0   1_655     S
V8     V15    10.0   .     S
V8     V16    10.0   .     S
V8     V6    10.0   1_655     S
V9     V27    10.0   .     S
V9     V28    10.0   .     S
V9     V17    10.0   1_556     S
V9     V10    10.0   1_556     S
V9     V11    10.0   .     S
V10     V28    10.0   1_554     S
V10     V18    10.0   .     S
V10     V17    10.0   .     S
V10     V9    10.0   1_554     S
V10     V12    10.0   .     S
V11     V4    10.0   1_556     S
V11     V15    10.0   .     S
V11     V16    10.0   .     S
V11     V12    10.0   1_556     S
V12     V16    10.0   1_554     S
V12     V11    10.0   1_554     S
V13     V22    10.0   1_565     S
V13     V31    10.0   .     S
V13     V32    10.0   1_565     S
V13     V14    10.0   .     S
V13     V15    10.0   .     S
V14     V21    10.0   1_556     S
V14     V22    10.0   1_565     S
V14     V32    10.0   1_565     S
V14     V16    10.0   .     S
V15     V16    10.0   .     S
V16     V12    10.0   1_556     S
V17     V9    10.0   1_554     S
V17     V18    10.0   .     S
V17     V19    10.0   .     S
V18     V20    10.0   .     S
V19     V23    10.0   1_554     S
V19     V24    10.0   1_545     S
V19     V20    10.0   .     S
V19     V30    10.0   1_545     S
V20     V24    10.0   1_545     S
V20     V30    10.0   1_545     S
V20     V29    10.0   .     S
V21     V1    10.0   1_565     S
V21     V2    10.0   1_565     S
V21     V14    10.0   1_554     S
V21     V22    10.0   1_564     S
V21     V24    10.0   .     S
V22     V2    10.0   1_556     S
V22     V14    10.0   1_545     S
V22     V13    10.0   1_545     S
V22     V21    10.0   1_546     S
V22     V23    10.0   .     S
V23     V19    10.0   1_556     S
V23     V24    10.0   1_546     S
V23     V25    10.0   1_545     S
V23     V26    10.0   1_545     S
V24     V19    10.0   1_565     S
V24     V20    10.0   1_565     S
V24     V23    10.0   1_564     S
V24     V26    10.0   1_554     S
V25     V23    10.0   1_565     S
V25     V26    10.0   .     S
V25     V27    10.0   .     S
V25     V29    10.0   1_565     S
V25     V30    10.0   .     S
V26     V23    10.0   1_565     S
V26     V24    10.0   1_556     S
V26     V28    10.0   .     S
V26     V29    10.0   1_565     S
V27     V28    10.0   .     S
V28     V10    10.0   1_556     S
V29     V26    10.0   1_545     S
V29     V25    10.0   1_545     S
V29     V30    10.0   1_545     S
V29     V32    10.0   1_455     S
V30     V19    10.0   1_565     S
V30     V20    10.0   1_565     S
V30     V29    10.0   1_565     S
V30     V31    10.0   1_455     S
V31     V1    10.0   1_565     S
V31     V2    10.0   1_565     S
V31     V32    10.0   1_565     S
V31     V30    10.0   1_655     S
V32     V13    10.0   1_545     S
V32     V14    10.0   1_545     S
V32     V31    10.0   1_545     S
V32     V29    10.0   1_655     S
