data_yfo
_audit_creation_date              2020-02-04
_audit_creation_method            'Pymatgen'
_symmetry_space_group_name_H-M    'P1'
_symmetry_Int_Tables_number       1
loop_
_symmetry_equiv_pos_as_xyz
  x,y,z
_cell_length_a                    53.8
_cell_length_b                    53.8
_cell_length_c                    14.7327
_cell_angle_alpha                 90.0
_cell_angle_beta                 90.0
_cell_angle_gamma                 90.0
loop_
_atom_site_label
_atom_site_type_symbol
_atom_site_fract_x
_atom_site_fract_y
_atom_site_fract_z
V1     V     0.8182   0.1872   0.7696
V2     V     0.8182   0.3128   0.2696
V3     V     0.6818   0.1872   0.2304
V4     V     0.6818   0.3128   0.7304
V5     V     0.8182   0.6872   0.2304
V6     V     0.8182   0.8128   0.7304
V7     V     0.6818   0.6872   0.7696
V8     V     0.6818   0.8128   0.2696
V9     V     0.5629   0.9318   0.9804
V10     V     0.4372   0.9318   0.4804
V11     V     0.4372   0.0682   0.0196
V12     V     0.5629   0.0683   0.5196
V13     V     0.9372   0.0683   0.4804
V14     V     0.0628   0.0682   0.9804
V15     V     0.9372   0.9318   0.0196
V16     V     0.0628   0.9318   0.5196
V17     V     0.9372   0.5682   0.5196
V18     V     0.0628   0.5682   0.0196
V19     V     0.9372   0.4318   0.9804
V20     V     0.0628   0.4318   0.4804
V21     V     0.5628   0.4318   0.0196
V22     V     0.4372   0.4318   0.5196
V23     V     0.5628   0.5682   0.4804
V24     V     0.4372   0.5682   0.9804
V25     V     0.1818   0.1872   0.2696
V26     V     0.1818   0.3128   0.7696
V27     V     0.3182   0.1872   0.7304
V28     V     0.3182   0.3128   0.2304
V29     V     0.1818   0.6872   0.7304
V30     V     0.1818   0.8128   0.2304
V31     V     0.3182   0.6872   0.2696
V32     V     0.3182   0.8128   0.7696
loop_
_geom_bond_atom_site_label_1
_geom_bond_atom_site_label_2
_geom_bond_distance
_geom_bond_site_symmetry_2
_ccdc_geom_bond_type
V1     V2    10.0   .     S
V1     V2    10.0   1_556     S
V1     V4    10.0   .     S
V1     V3    10.0   1_556     S
V1     V13    10.0   .     S
V2     V1    10.0   1_554     S
V2     V3    10.0   .     S
V2     V4    10.0   .     S
V2     V19    10.0   1_554     S
V3     V1    10.0   1_554     S
V3     V4    10.0   .     S
V3     V4    10.0   1_554     S
V3     V12    10.0   .     S
V4     V3    10.0   1_556     S
V4     V21    10.0   1_556     S
V5     V6    10.0   1_554     S
V5     V6    10.0   .     S
V5     V7    10.0   1_554     S
V5     V8    10.0   .     S
V5     V17    10.0   .     S
V6     V5    10.0   1_556     S
V6     V7    10.0   .     S
V6     V8    10.0   .     S
V6     V15    10.0   1_556     S
V7     V8    10.0   1_556     S
V7     V8    10.0   .     S
V7     V5    10.0   1_556     S
V7     V23    10.0   .     S
V8     V7    10.0   1_554     S
V8     V9    10.0   1_554     S
V9     V10    10.0   .     S
V9     V10    10.0   1_556     S
V9     V11    10.0   1_566     S
V9     V12    10.0   1_565     S
V9     V8    10.0   1_556     S
V10     V9    10.0   1_554     S
V10     V12    10.0   1_565     S
V10     V11    10.0   1_565     S
V10     V32    10.0   .     S
V11     V12    10.0   .     S
V11     V12    10.0   1_554     S
V11     V9    10.0   1_544     S
V11     V10    10.0   1_545     S
V11     V27    10.0   1_554     S
V12     V11    10.0   1_556     S
V12     V9    10.0   1_545     S
V12     V10    10.0   1_545     S
V13     V14    10.0   1_654     S
V13     V14    10.0   1_655     S
V13     V16    10.0   1_645     S
V13     V15    10.0   1_545     S
V14     V13    10.0   1_456     S
V14     V13    10.0   1_455     S
V14     V15    10.0   1_446     S
V14     V16    10.0   1_545     S
V14     V25    10.0   1_556     S
V15     V6    10.0   1_554     S
V15     V13    10.0   1_565     S
V15     V14    10.0   1_664     S
V15     V16    10.0   1_655     S
V15     V16    10.0   1_654     S
V16     V13    10.0   1_465     S
V16     V14    10.0   1_565     S
V16     V15    10.0   1_455     S
V16     V15    10.0   1_456     S
V16     V30    10.0   .     S
V17     V18    10.0   1_656     S
V17     V18    10.0   1_655     S
V17     V19    10.0   .     S
V17     V20    10.0   1_655     S
V18     V17    10.0   1_454     S
V18     V17    10.0   1_455     S
V18     V19    10.0   1_454     S
V18     V20    10.0   .     S
V18     V29    10.0   1_554     S
V19     V2    10.0   1_556     S
V19     V20    10.0   1_656     S
V19     V20    10.0   1_655     S
V19     V18    10.0   1_656     S
V20     V19    10.0   1_454     S
V20     V19    10.0   1_455     S
V20     V17    10.0   1_455     S
V20     V26    10.0   .     S
V21     V4    10.0   1_554     S
V21     V22    10.0   .     S
V21     V22    10.0   1_554     S
V21     V24    10.0   1_554     S
V21     V23    10.0   .     S
V22     V21    10.0   1_556     S
V22     V23    10.0   .     S
V22     V24    10.0   .     S
V22     V28    10.0   .     S
V23     V24    10.0   1_554     S
V23     V24    10.0   .     S
V24     V21    10.0   1_556     S
V24     V23    10.0   1_556     S
V24     V31    10.0   1_556     S
V25     V26    10.0   1_554     S
V25     V26    10.0   .     S
V25     V28    10.0   .     S
V25     V27    10.0   .     S
V25     V14    10.0   1_554     S
V26     V25    10.0   1_556     S
V26     V27    10.0   .     S
V26     V28    10.0   1_556     S
V27     V28    10.0   1_556     S
V27     V28    10.0   .     S
V27     V11    10.0   1_556     S
V28     V26    10.0   1_554     S
V28     V27    10.0   1_554     S
V29     V30    10.0   .     S
V29     V30    10.0   1_556     S
V29     V31    10.0   .     S
V29     V32    10.0   .     S
V29     V18    10.0   1_556     S
V30     V29    10.0   1_554     S
V30     V31    10.0   .     S
V30     V32    10.0   1_554     S
V31     V24    10.0   1_554     S
V31     V32    10.0   .     S
V31     V32    10.0   1_554     S
V32     V31    10.0   1_556     S
V32     V30    10.0   1_556     S
