data_yfp
_audit_creation_date              2020-02-04
_audit_creation_method            'Pymatgen'
_symmetry_space_group_name_H-M    'P1'
_symmetry_Int_Tables_number       1
loop_
_symmetry_equiv_pos_as_xyz
  x,y,z
_cell_length_a                    42.5703
_cell_length_b                    42.5703
_cell_length_c                    22.956
_cell_angle_alpha                 90.0
_cell_angle_beta                 90.0
_cell_angle_gamma                 90.0
loop_
_atom_site_label
_atom_site_type_symbol
_atom_site_fract_x
_atom_site_fract_y
_atom_site_fract_z
V1     V     0.1149   0.9841   0.0342
V2     V     0.8851   0.0159   0.9658
V3     V     0.1149   0.0159   0.4658
V4     V     0.8851   0.9841   0.5342
V5     V     0.2341   0.8649   0.7158
V6     V     0.2659   0.6351   0.7842
V7     V     0.2341   0.6351   0.2158
V8     V     0.2659   0.8649   0.2842
V9     V     0.6149   0.5159   0.9658
V10     V     0.3851   0.4841   0.0342
V11     V     0.6149   0.4841   0.5342
V12     V     0.3851   0.5159   0.4658
V13     V     0.7341   0.6351   0.2842
V14     V     0.7659   0.8649   0.2158
V15     V     0.7659   0.6351   0.7158
V16     V     0.7341   0.8649   0.7842
V17     V     0.1149   0.5159   0.5342
V18     V     0.8851   0.4841   0.4658
V19     V     0.8851   0.5159   0.0342
V20     V     0.1149   0.4841   0.9658
V21     V     0.7341   0.1351   0.7158
V22     V     0.7659   0.3649   0.7842
V23     V     0.7659   0.1351   0.2842
V24     V     0.7341   0.3649   0.2158
V25     V     0.2659   0.3649   0.7158
V26     V     0.2341   0.1351   0.7842
V27     V     0.2659   0.1351   0.2158
V28     V     0.2341   0.3649   0.2842
V29     V     0.6149   0.9841   0.4658
V30     V     0.3851   0.0159   0.5342
V31     V     0.3851   0.9841   0.9658
V32     V     0.6149   0.0159   0.0342
loop_
_geom_bond_atom_site_label_1
_geom_bond_atom_site_label_2
_geom_bond_distance
_geom_bond_site_symmetry_2
_ccdc_geom_bond_type
V1     V27    10.0   1_565     S
V1     V26    10.0   1_564     S
V1     V2    10.0   1_464     S
V1     V3    10.0   1_565     S
V1     V8    10.0   .     S
V2     V1    10.0   1_646     S
V2     V4    10.0   1_545     S
V2     V16    10.0   1_545     S
V2     V14    10.0   1_546     S
V2     V21    10.0   .     S
V3     V27    10.0   .     S
V3     V4    10.0   1_445     S
V3     V1    10.0   1_545     S
V3     V8    10.0   1_545     S
V3     V5    10.0   1_545     S
V4     V3    10.0   1_665     S
V4     V2    10.0   1_565     S
V4     V16    10.0   .     S
V4     V21    10.0   1_565     S
V4     V23    10.0   1_565     S
V5     V30    10.0   1_565     S
V5     V31    10.0   .     S
V5     V3    10.0   1_565     S
V5     V6    10.0   .     S
V5     V8    10.0   .     S
V6     V7    10.0   1_556     S
V6     V20    10.0   .     S
V6     V17    10.0   .     S
V6     V10    10.0   1_556     S
V7     V8    10.0   .     S
V7     V6    10.0   1_554     S
V7     V20    10.0   1_554     S
V7     V10    10.0   .     S
V7     V12    10.0   .     S
V8     V30    10.0   1_565     S
V8     V3    10.0   1_565     S
V9     V10    10.0   1_556     S
V9     V11    10.0   .     S
V9     V22    10.0   .     S
V9     V24    10.0   1_556     S
V9     V15    10.0   .     S
V10     V28    10.0   .     S
V10     V6    10.0   1_554     S
V10     V9    10.0   1_554     S
V10     V12    10.0   .     S
V11     V12    10.0   .     S
V11     V22    10.0   .     S
V11     V15    10.0   .     S
V11     V13    10.0   .     S
V12     V28    10.0   .     S
V12     V25    10.0   .     S
V13     V18    10.0   .     S
V13     V19    10.0   .     S
V13     V14    10.0   .     S
V13     V15    10.0   .     S
V14     V2    10.0   1_564     S
V14     V16    10.0   1_554     S
V14     V32    10.0   1_565     S
V14     V29    10.0   .     S
V15     V18    10.0   .     S
V15     V16    10.0   .     S
V16     V2    10.0   1_565     S
V16     V14    10.0   1_556     S
V16     V32    10.0   1_566     S
V17     V25    10.0   .     S
V17     V28    10.0   .     S
V17     V18    10.0   1_455     S
V17     V20    10.0   .     S
V18     V24    10.0   .     S
V18     V17    10.0   1_655     S
V18     V19    10.0   .     S
V19     V24    10.0   .     S
V19     V22    10.0   1_554     S
V19     V20    10.0   1_654     S
V20     V25    10.0   .     S
V20     V7    10.0   1_556     S
V20     V19    10.0   1_456     S
V21     V4    10.0   1_545     S
V21     V22    10.0   .     S
V21     V23    10.0   .     S
V21     V29    10.0   1_545     S
V22     V19    10.0   1_556     S
V22     V24    10.0   1_556     S
V23     V4    10.0   1_545     S
V23     V24    10.0   .     S
V23     V29    10.0   1_545     S
V23     V32    10.0   .     S
V24     V9    10.0   1_554     S
V24     V22    10.0   1_554     S
V25     V26    10.0   .     S
V25     V28    10.0   .     S
V26     V1    10.0   1_546     S
V26     V27    10.0   1_556     S
V26     V31    10.0   1_545     S
V26     V30    10.0   .     S
V27     V1    10.0   1_545     S
V27     V28    10.0   .     S
V27     V26    10.0   1_554     S
V27     V31    10.0   1_544     S
V29     V23    10.0   1_565     S
V29     V21    10.0   1_565     S
V29     V30    10.0   1_565     S
V29     V32    10.0   1_565     S
V30     V5    10.0   1_545     S
V30     V8    10.0   1_545     S
V30     V29    10.0   1_545     S
V30     V31    10.0   1_545     S
V31     V30    10.0   1_565     S
V31     V32    10.0   1_566     S
V31     V26    10.0   1_565     S
V31     V27    10.0   1_566     S
V32     V14    10.0   1_545     S
V32     V16    10.0   1_544     S
V32     V31    10.0   1_544     S
V32     V29    10.0   1_545     S
