data_ytwa
_audit_creation_date              2020-02-04
_audit_creation_method            'Pymatgen'
_symmetry_space_group_name_H-M    'P1'
_symmetry_Int_Tables_number       1
loop_
_symmetry_equiv_pos_as_xyz
  x,y,z
_cell_length_a                    74.0852
_cell_length_b                    48.9142
_cell_length_c                    44.2444
_cell_angle_alpha                 90.0
_cell_angle_beta                 90.0
_cell_angle_gamma                 90.0
loop_
_atom_site_label
_atom_site_type_symbol
_atom_site_fract_x
_atom_site_fract_y
_atom_site_fract_z
He1     He     0.9677   0.5253   0.8025
Be2     Be     0.8734   0.4126   0.6997
H3     H     0.8778   0.4205   0.9253
He4     He     0.5323   0.5253   0.8025
Be5     Be     0.6266   0.4126   0.6997
H6     H     0.6222   0.4205   0.9253
He7     He     0.5323   0.9747   0.8025
Be8     Be     0.6266   0.0874   0.6997
H9     H     0.6222   0.0795   0.9253
He10     He     0.9677   0.9747   0.8025
Be11     Be     0.8734   0.0874   0.6997
H12     H     0.8778   0.0795   0.9253
Li13     Li     0.355   0.3523   0.6508
Li14     Li     0.355   0.1477   0.6508
B15     B     0.4554   0.25   0.5511
Er16     Er     0.6825   0.3523   0.1133
Ce17     Ce     0.5724   0.3522   0.2436
Ce18     Ce     0.5724   0.1478   0.2436
V19     V     0.5726   0.25   0.439
Er20     Er     0.6825   0.1477   0.1133
Ti21     Ti     0.6825   0.1479   0.505
Ti22     Ti     0.6825   0.3521   0.505
S23     S     0.6825   0.4543   0.3092
S24     S     0.6825   0.0457   0.3092
Er25     Er     0.8175   0.1477   0.1133
Ce26     Ce     0.9276   0.1478   0.2436
Ce27     Ce     0.9276   0.3522   0.2436
V28     V     0.9274   0.25   0.439
Er29     Er     0.8175   0.3523   0.1133
Ti30     Ti     0.8175   0.1479   0.505
Ti31     Ti     0.8175   0.3521   0.505
S32     S     0.8175   0.4543   0.3092
S33     S     0.8175   0.0457   0.3092
Li34     Li     0.145   0.3523   0.6508
Li35     Li     0.145   0.1477   0.6508
B36     B     0.0446   0.25   0.5511
Be37     Be     0.1266   0.5874   0.3003
He38     He     0.0323   0.4747   0.1975
H39     H     0.1222   0.5795   0.0747
He40     He     0.4677   0.4747   0.1975
Be41     Be     0.3734   0.5874   0.3003
H42     H     0.3778   0.5795   0.0747
Be43     Be     0.3734   0.9126   0.3003
He44     He     0.4677   0.0253   0.1975
H45     H     0.3778   0.9205   0.0747
Be46     Be     0.1266   0.9126   0.3003
He47     He     0.0323   0.0253   0.1975
H48     H     0.1222   0.9205   0.0747
Li49     Li     0.855   0.8523   0.3492
Li50     Li     0.855   0.6477   0.3492
B51     B     0.9554   0.75   0.4489
Ti52     Ti     0.1825   0.6479   0.495
Er53     Er     0.1825   0.6477   0.8867
Ce54     Ce     0.0724   0.8522   0.7564
Ce55     Ce     0.0724   0.6478   0.7564
V56     V     0.0726   0.75   0.561
Er57     Er     0.1825   0.8523   0.8867
Ti58     Ti     0.1825   0.8521   0.495
S59     S     0.1825   0.5457   0.6908
S60     S     0.1825   0.9543   0.6908
Er61     Er     0.3175   0.8523   0.8867
Ce62     Ce     0.4276   0.8522   0.7564
Ce63     Ce     0.4276   0.6478   0.7564
V64     V     0.4274   0.75   0.561
Er65     Er     0.3175   0.6477   0.8867
Ti66     Ti     0.3175   0.8521   0.495
Ti67     Ti     0.3175   0.6479   0.495
S68     S     0.3175   0.5457   0.6908
S69     S     0.3175   0.9543   0.6908
Li70     Li     0.645   0.8523   0.3492
Li71     Li     0.645   0.6477   0.3492
B72     B     0.5446   0.75   0.4489
loop_
_geom_bond_atom_site_label_1
_geom_bond_atom_site_label_2
_geom_bond_distance
_geom_bond_site_symmetry_2
_ccdc_geom_bond_type
He1     H3    10.002   .     S
He1     Be2    9.992   .     S
He1     Ce55    10.012   1_655     S
Be2     H3    9.994   .     S
Be2     Ti31    10.006   .     S
H3     Er29    10.015   1_556     S
He4     H6    10.002   .     S
He4     Be5    9.992   .     S
He4     Ce63    10.012   .     S
Be5     H6    9.994   .     S
Be5     Ti22    10.006   .     S
H6     Er16    10.015   1_556     S
He7     H9    10.002   1_565     S
He7     Be8    9.992   1_565     S
He7     Ce62    10.012   .     S
Be8     H9    9.994   .     S
Be8     He7    9.992   1_545     S
Be8     Ti21    10.006   .     S
H9     He7    10.002   1_545     S
H9     Er20    10.015   1_556     S
He10     H12    10.002   1_565     S
He10     Be11    9.992   1_565     S
He10     Ce54    10.012   1_655     S
Be11     H12    9.994   .     S
Be11     He10    9.992   1_545     S
Be11     Ti30    10.006   .     S
H12     He10    10.002   1_545     S
H12     Er25    10.015   1_556     S
Li13     Li14    10.005   .     S
Li13     B15    9.991   .     S
Li13     S68    10.016   .     S
Li14     B15    9.991   .     S
Li14     S69    10.016   1_545     S
B15     V19    10.002   .     S
Er16     S23    10.005   .     S
Er16     Ce17    9.988   .     S
Er16     Er20    10.004   .     S
Er16     Er29    10.004   .     S
Er16     H6    10.015   1_554     S
Ce17     S23    9.997   .     S
Ce17     V19    9.987   .     S
Ce17     Ce18    10.001   .     S
Ce17     He40    10.012   .     S
Ce18     S24    9.997   .     S
Ce18     V19    9.987   .     S
Ce18     Er20    9.988   .     S
Ce18     He44    10.012   .     S
V19     Ti21    9.989   .     S
V19     Ti22    9.989   .     S
Er20     S24    10.005   .     S
Er20     Er25    10.004   .     S
Er20     H9    10.015   1_554     S
Ti21     Ti22    9.99   .     S
Ti21     Ti30    9.999   .     S
Ti21     S24    10.002   .     S
Ti22     Ti31    9.999   .     S
Ti22     S23    10.002   .     S
S23     S32    10.003   .     S
S23     Li71    10.016   .     S
S24     S33    10.003   .     S
S24     Li70    10.016   1_545     S
Er25     S33    10.005   .     S
Er25     Ce26    9.988   .     S
Er25     Er29    10.004   .     S
Er25     H12    10.015   1_554     S
Ce26     S33    9.997   .     S
Ce26     V28    9.987   .     S
Ce26     Ce27    10.001   .     S
Ce26     He47    10.012   1_655     S
Ce27     S32    9.997   .     S
Ce27     V28    9.987   .     S
Ce27     Er29    9.988   .     S
Ce27     He38    10.012   1_655     S
V28     Ti31    9.989   .     S
V28     Ti30    9.989   .     S
V28     B36    10.002   1_655     S
Er29     S32    10.005   .     S
Er29     H3    10.015   1_554     S
Ti30     Ti31    9.99   .     S
Ti30     S33    10.002   .     S
Ti31     S32    10.002   .     S
S32     Li50    10.016   .     S
S33     Li49    10.016   1_545     S
Li34     Li35    10.005   .     S
Li34     B36    9.991   .     S
Li34     S59    10.016   .     S
Li35     B36    9.991   .     S
Li35     S60    10.016   1_545     S
B36     V28    10.002   1_455     S
Be37     He38    9.992   .     S
Be37     H39    9.994   .     S
Be37     Ti52    10.006   .     S
He38     Ce27    10.012   1_455     S
He38     H39    10.002   .     S
H39     Er53    10.015   1_554     S
He40     H42    10.002   .     S
He40     Be41    9.992   .     S
Be41     H42    9.994   .     S
Be41     Ti67    10.006   .     S
H42     Er65    10.015   1_554     S
Be43     He44    9.992   1_565     S
Be43     H45    9.994   .     S
Be43     Ti66    10.006   .     S
He44     Be43    9.992   1_545     S
He44     H45    10.002   1_545     S
H45     He44    10.002   1_565     S
H45     Er61    10.015   1_554     S
Be46     H48    9.994   .     S
Be46     He47    9.992   1_565     S
Be46     Ti58    10.006   .     S
He47     H48    10.002   1_545     S
He47     Be46    9.992   1_545     S
He47     Ce26    10.012   1_455     S
H48     He47    10.002   1_565     S
H48     Er57    10.015   1_554     S
Li49     Li50    10.005   .     S
Li49     B51    9.991   .     S
Li49     S33    10.016   1_565     S
Li50     B51    9.991   .     S
B51     V56    10.002   1_655     S
Ti52     Ti58    9.99   .     S
Ti52     V56    9.989   .     S
Ti52     Ti67    9.999   .     S
Ti52     S59    10.002   .     S
Er53     S59    10.005   .     S
Er53     Ce55    9.988   .     S
Er53     Er57    10.004   .     S
Er53     Er65    10.004   .     S
Er53     H39    10.015   1_556     S
Ce54     He10    10.012   1_455     S
Ce54     S60    9.997   .     S
Ce54     V56    9.987   .     S
Ce54     Ce55    10.001   .     S
Ce54     Er57    9.988   .     S
Ce55     S59    9.997   .     S
Ce55     V56    9.987   .     S
Ce55     He1    10.012   1_455     S
V56     Ti58    9.989   .     S
V56     B51    10.002   1_455     S
Er57     S60    10.005   .     S
Er57     Er61    10.004   .     S
Er57     H48    10.015   1_556     S
Ti58     Ti66    9.999   .     S
Ti58     S60    10.002   .     S
S59     S68    10.003   .     S
S60     S69    10.003   .     S
S60     Li35    10.016   1_565     S
Er61     S69    10.005   .     S
Er61     Ce62    9.988   .     S
Er61     Er65    10.004   .     S
Er61     H45    10.015   1_556     S
Ce62     S69    9.997   .     S
Ce62     V64    9.987   .     S
Ce62     Ce63    10.001   .     S
Ce63     S68    9.997   .     S
Ce63     V64    9.987   .     S
Ce63     Er65    9.988   .     S
V64     Ti67    9.989   .     S
V64     Ti66    9.989   .     S
V64     B72    10.002   .     S
Er65     S68    10.005   .     S
Er65     H42    10.015   1_556     S
Ti66     Ti67    9.99   .     S
Ti66     S69    10.002   .     S
Ti67     S68    10.002   .     S
S69     Li14    10.016   1_565     S
Li70     Li71    10.005   .     S
Li70     B72    9.991   .     S
Li70     S24    10.016   1_565     S
Li71     B72    9.991   .     S
