data_yzh
_audit_creation_date              2020-02-04
_audit_creation_method            'Pymatgen'
_symmetry_space_group_name_H-M    'P1'
_symmetry_Int_Tables_number       1
loop_
_symmetry_equiv_pos_as_xyz
  x,y,z
_cell_length_a                    40.4791
_cell_length_b                    15.0815
_cell_length_c                    42.6641
_cell_angle_alpha                 90.0
_cell_angle_beta                 90.0
_cell_angle_gamma                 90.0
loop_
_atom_site_label
_atom_site_type_symbol
_atom_site_fract_x
_atom_site_fract_y
_atom_site_fract_z
V1     V     0.4584   0.6022   0.25
V2     V     0.4584   0.1478   0.5
V3     V     0.5416   0.8978   0.25
V4     V     0.5416   0.3522   0.0
V5     V     0.5416   0.3978   0.75
V6     V     0.5416   0.8522   0.5
Er7     Er     0.4949   0.875   0.875
Er8     Er     0.5051   0.625   0.625
Er9     Er     0.4949   0.375   0.375
Er10     Er     0.5051   0.125   0.125
V11     V     0.4584   0.6478   1.0
V12     V     0.4584   0.1022   0.75
V13     V     0.7916   0.6478   0.25
V14     V     0.7916   0.1022   0.5
V15     V     0.7084   0.8522   0.75
V16     V     0.7084   0.3978   0.5
V17     V     0.7084   0.3522   0.25
V18     V     0.7084   0.8978   0.0
Er19     Er     0.7449   0.125   0.125
Er20     Er     0.7449   0.625   0.625
Er21     Er     0.7551   0.875   0.375
Er22     Er     0.7551   0.375   0.875
V23     V     0.7916   0.6022   1.0
V24     V     0.7916   0.1478   0.75
V25     V     0.9584   0.6478   0.5
V26     V     0.9584   0.1022   0.25
V27     V     0.0415   0.8978   0.75
V28     V     0.0415   0.3522   0.5
V29     V     0.9584   0.1478   1.0
V30     V     0.9584   0.6022   0.75
Er31     Er     0.0051   0.625   0.125
Er32     Er     0.9949   0.375   0.875
Er33     Er     0.9949   0.875   0.375
Er34     Er     0.0051   0.125   0.625
V35     V     0.0415   0.8522   0.0
V36     V     0.0415   0.3978   0.25
V37     V     0.2915   0.1478   0.25
V38     V     0.2915   0.6022   0.5
V39     V     0.2084   0.3522   0.75
V40     V     0.2084   0.8978   0.5
V41     V     0.2915   0.1022   1.0
V42     V     0.2915   0.6478   0.75
V43     V     0.2084   0.8522   0.25
V44     V     0.2084   0.3978   0.0
Er45     Er     0.2551   0.875   0.875
Er46     Er     0.2551   0.375   0.375
Er47     Er     0.2449   0.125   0.625
Er48     Er     0.2449   0.625   0.125
loop_
_geom_bond_atom_site_label_1
_geom_bond_atom_site_label_2
_geom_bond_distance
_geom_bond_site_symmetry_2
_ccdc_geom_bond_type
V1     V11    10.689   1_554     S
V1     Er48    10.163   .     S
V1     V3    11.144   1_545     S
V1     Er10    9.155   .     S
V1     Er10    9.704   1_565     S
V1     V37    10.646   1_565     S
V1     V37    9.624   .     S
V2     V12    10.689   .     S
V2     Er47    10.163   .     S
V2     V6    11.144   .     S
V2     Er8    9.155   .     S
V2     Er8    9.704   1_545     S
V2     V38    10.646   1_545     S
V2     V38    9.624   .     S
V3     V6    10.689   .     S
V3     Er21    10.163   .     S
V3     V1    11.144   1_565     S
V3     Er9    9.155   1_565     S
V3     Er9    9.704   .     S
V3     V17    10.646   .     S
V3     V17    9.624   1_565     S
V4     V5    10.689   1_554     S
V4     Er22    10.163   1_554     S
V4     V11    11.144   1_544     S
V4     Er7    9.155   1_544     S
V4     Er7    9.704   1_554     S
V4     V18    10.646   .     S
V4     V18    9.624   1_545     S
V5     V4    10.689   1_556     S
V5     Er22    10.163   .     S
V5     V12    11.144   1_565     S
V5     Er7    9.155   .     S
V5     Er7    9.704   1_545     S
V5     V15    10.646   1_545     S
V5     V15    9.624   .     S
V6     Er21    10.163   .     S
V6     Er9    9.155   .     S
V6     Er9    9.704   1_565     S
V6     V16    10.646   1_565     S
V6     V16    9.624   .     S
Er7     V15    10.163   .     S
Er7     V18    10.163   1_556     S
Er7     V4    9.155   1_566     S
Er7     V4    9.704   1_556     S
Er7     V5    9.704   1_565     S
Er7     Er45    9.708   .     S
Er8     V42    10.163   .     S
Er8     V38    10.163   .     S
Er8     V12    9.155   1_565     S
Er8     V12    9.704   .     S
Er8     V2    9.704   1_565     S
Er8     Er20    9.708   .     S
Er9     V16    10.163   .     S
Er9     V17    10.163   .     S
Er9     V3    9.155   1_545     S
Er9     V6    9.704   1_545     S
Er9     Er46    9.708   .     S
Er10     V41    10.163   1_554     S
Er10     V37    10.163   .     S
Er10     V11    9.155   1_544     S
Er10     V1    9.704   1_545     S
Er10     V11    9.704   1_554     S
Er10     Er19    9.708   .     S
V11     V1    10.689   1_556     S
V11     Er48    10.163   1_556     S
V11     V4    11.144   1_566     S
V11     Er10    9.155   1_566     S
V11     Er10    9.704   1_556     S
V11     V41    10.646   .     S
V11     V41    9.624   1_565     S
V12     Er47    10.163   .     S
V12     V5    11.144   1_545     S
V12     Er8    9.155   1_545     S
V12     V42    10.646   .     S
V12     V42    9.624   1_545     S
V13     V23    10.689   1_554     S
V13     Er31    10.163   1_655     S
V13     V17    11.144   1_565     S
V13     Er19    9.155   1_565     S
V13     Er19    9.704   .     S
V13     V26    10.646   .     S
V13     V26    9.624   1_565     S
V14     V24    10.689   .     S
V14     Er34    10.163   1_655     S
V14     V16    11.144   1_545     S
V14     Er20    9.155   1_545     S
V14     Er20    9.704   .     S
V14     V25    10.646   .     S
V14     V25    9.624   1_545     S
V15     V18    10.689   1_556     S
V15     V24    11.144   .     S
V15     Er22    9.155   .     S
V15     Er22    9.704   1_565     S
V15     V5    10.646   1_565     S
V16     V17    10.689   .     S
V16     V14    11.144   1_565     S
V16     Er21    9.155   .     S
V16     Er21    9.704   1_545     S
V16     V6    10.646   1_545     S
V17     V13    11.144   1_545     S
V17     Er21    9.155   1_545     S
V17     Er21    9.704   .     S
V17     V3    9.624   1_545     S
V18     V15    10.689   1_554     S
V18     Er7    10.163   1_554     S
V18     V23    11.144   1_564     S
V18     Er22    9.155   1_564     S
V18     Er22    9.704   1_554     S
V18     V4    9.624   1_565     S
Er19     V29    10.163   1_554     S
Er19     V26    10.163   .     S
Er19     V23    9.155   1_554     S
Er19     V13    9.155   1_545     S
Er19     V23    9.704   1_544     S
Er20     V25    10.163   .     S
Er20     V30    10.163   .     S
Er20     V14    9.155   1_565     S
Er20     V24    9.155   .     S
Er20     V24    9.704   1_565     S
Er21     V17    9.155   1_565     S
Er21     V16    9.704   1_565     S
Er21     Er33    9.708   .     S
Er22     V4    10.163   1_556     S
Er22     V18    9.155   1_546     S
Er22     V18    9.704   1_556     S
Er22     V15    9.704   1_545     S
Er22     Er32    9.708   .     S
V23     V13    10.689   1_556     S
V23     Er31    10.163   1_656     S
V23     V18    11.144   1_546     S
V23     Er19    9.155   1_556     S
V23     Er19    9.704   1_566     S
V23     V29    10.646   1_565     S
V23     V29    9.624   .     S
V24     Er34    10.163   1_655     S
V24     Er20    9.704   1_545     S
V24     V30    10.646   1_545     S
V24     V30    9.624   .     S
V25     V30    10.689   .     S
V25     V28    11.144   1_665     S
V25     Er34    9.155   1_665     S
V25     Er34    9.704   1_655     S
V25     V14    9.624   1_565     S
V26     V29    10.689   1_554     S
V26     V36    11.144   1_645     S
V26     Er31    9.155   1_645     S
V26     Er31    9.704   1_655     S
V26     V13    9.624   1_545     S
V27     V35    10.689   1_556     S
V27     Er45    10.163   .     S
V27     V30    11.144   1_465     S
V27     Er32    9.155   1_465     S
V27     Er32    9.704   1_455     S
V27     V39    10.646   .     S
V27     V39    9.624   1_565     S
V28     V36    10.689   .     S
V28     Er46    10.163   .     S
V28     V25    11.144   1_445     S
V28     Er33    9.155   1_445     S
V28     Er33    9.704   1_455     S
V28     V40    10.646   .     S
V28     V40    9.624   1_545     S
V29     V26    10.689   1_556     S
V29     Er19    10.163   1_556     S
V29     V35    11.144   1_656     S
V29     Er31    9.155   1_656     S
V29     Er31    9.704   1_646     S
V29     V23    10.646   1_545     S
V30     V27    11.144   1_645     S
V30     Er34    9.155   1_655     S
V30     Er34    9.704   1_665     S
V30     V24    10.646   1_565     S
Er31     V23    10.163   1_454     S
Er31     V13    10.163   1_455     S
Er31     V29    9.155   1_454     S
Er31     V26    9.155   1_465     S
Er31     V29    9.704   1_464     S
Er31     V26    9.704   1_455     S
Er31     Er48    9.708   .     S
Er32     V44    10.163   1_656     S
Er32     V39    10.163   1_655     S
Er32     V35    9.155   1_656     S
Er32     V27    9.155   1_645     S
Er32     V35    9.704   1_646     S
Er32     V27    9.704   1_655     S
Er33     V43    10.163   1_655     S
Er33     V40    10.163   1_655     S
Er33     V36    9.155   1_655     S
Er33     V28    9.155   1_665     S
Er33     V28    9.704   1_655     S
Er33     V36    9.704   1_665     S
Er34     V14    10.163   1_455     S
Er34     V24    10.163   1_455     S
Er34     V30    9.155   1_455     S
Er34     V25    9.155   1_445     S
Er34     V30    9.704   1_445     S
Er34     V25    9.704   1_455     S
Er34     Er47    9.708   .     S
V35     V27    10.689   1_554     S
V35     Er45    10.163   1_554     S
V35     V29    11.144   1_454     S
V35     Er32    9.155   1_454     S
V35     Er32    9.704   1_464     S
V35     V44    10.646   1_565     S
V35     V44    9.624   .     S
V36     Er46    10.163   .     S
V36     V26    11.144   1_465     S
V36     Er33    9.155   1_455     S
V36     Er33    9.704   1_445     S
V36     V43    10.646   1_545     S
V36     V43    9.624   .     S
V37     V41    10.689   1_554     S
V37     V43    11.144   .     S
V37     Er48    9.155   .     S
V37     Er48    9.704   1_545     S
V37     V1    10.646   1_545     S
V38     V42    10.689   .     S
V38     V40    11.144   1_545     S
V38     Er47    9.155   .     S
V38     Er47    9.704   1_565     S
V38     V2    10.646   1_565     S
V39     V44    10.689   1_556     S
V39     Er32    10.163   1_455     S
V39     V42    11.144   1_545     S
V39     Er45    9.155   1_545     S
V39     Er45    9.704   .     S
V39     V27    9.624   1_545     S
V40     V43    10.689   .     S
V40     Er33    10.163   1_455     S
V40     V38    11.144   1_565     S
V40     Er46    9.155   1_565     S
V40     Er46    9.704   .     S
V40     V28    9.624   1_565     S
V41     V37    10.689   1_556     S
V41     Er10    10.163   1_556     S
V41     V44    11.144   1_546     S
V41     Er48    9.155   1_546     S
V41     Er48    9.704   1_556     S
V41     V11    9.624   1_545     S
V42     V39    11.144   1_565     S
V42     Er47    9.155   1_565     S
V42     Er47    9.704   .     S
V42     V12    9.624   1_565     S
V43     Er33    10.163   1_455     S
V43     Er46    9.155   .     S
V43     Er46    9.704   1_565     S
V43     V36    10.646   1_565     S
V44     V39    10.689   1_554     S
V44     Er32    10.163   1_454     S
V44     V41    11.144   1_564     S
V44     Er45    9.155   1_554     S
V44     Er45    9.704   1_544     S
V44     V35    10.646   1_545     S
Er45     V35    10.163   1_556     S
Er45     V39    9.155   1_565     S
Er45     V44    9.155   1_556     S
Er45     V44    9.704   1_566     S
Er46     V40    9.155   1_545     S
Er46     V43    9.704   1_545     S
Er47     V42    9.155   1_545     S
Er47     V38    9.704   1_545     S
Er48     V11    10.163   1_554     S
Er48     V41    9.155   1_564     S
Er48     V37    9.704   1_565     S
Er48     V41    9.704   1_554     S
