data_zbl
_audit_creation_date              2020-02-04
_audit_creation_method            'Pymatgen'
_symmetry_space_group_name_H-M    'P1'
_symmetry_Int_Tables_number       1
loop_
_symmetry_equiv_pos_as_xyz
  x,y,z
_cell_length_a                    40.0001
_cell_length_b                    20.0003
_cell_length_c                    48.2927
_cell_angle_alpha                 90.0
_cell_angle_beta                 90.0
_cell_angle_gamma                 90.0
loop_
_atom_site_label
_atom_site_type_symbol
_atom_site_fract_x
_atom_site_fract_y
_atom_site_fract_z
Er1     Er     0.5   0.5   0.1036
V2     V     0.625   0.75   0.25
V3     V     0.375   0.75   0.25
V4     V     0.375   0.25   0.25
V5     V     0.625   0.25   0.25
Er6     Er     0.5   0.0   0.3964
Er7     Er     0.0   0.5   0.3964
V8     V     0.875   0.75   0.25
V9     V     0.125   0.75   0.25
V10     V     0.875   0.25   0.25
V11     V     0.125   0.25   0.25
Er12     Er     0.0   0.0   0.1036
Er13     Er     0.5   0.5   0.8964
V14     V     0.625   0.25   0.75
V15     V     0.375   0.25   0.75
V16     V     0.375   0.75   0.75
V17     V     0.625   0.75   0.75
Er18     Er     0.5   0.0   0.6036
Er19     Er     0.0   0.5   0.6036
V20     V     0.875   0.75   0.75
V21     V     0.125   0.75   0.75
V22     V     0.875   0.25   0.75
V23     V     0.125   0.25   0.75
Er24     Er     0.0   0.0   0.8964
loop_
_geom_bond_atom_site_label_1
_geom_bond_atom_site_label_2
_geom_bond_distance
_geom_bond_site_symmetry_2
_ccdc_geom_bond_type
Er1     V3    9.999   .     S
Er1     V2    9.999   .     S
Er1     V5    9.999   .     S
Er1     V4    9.999   .     S
Er1     Er13    10.005   1_554     S
V2     V3    9.998   .     S
V2     Er6    9.999   1_565     S
V2     V5    10.0   1_565     S
V2     V5    10.0   .     S
V2     V8    10.002   .     S
V3     Er6    9.999   1_565     S
V3     V4    10.0   1_565     S
V3     V4    10.0   .     S
V3     V9    10.002   .     S
V4     V5    9.998   .     S
V4     Er6    9.999   .     S
V4     V3    10.0   1_545     S
V4     V11    10.002   .     S
V5     Er6    9.999   .     S
V5     V2    10.0   1_545     S
V5     V10    10.002   .     S
Er6     V3    9.999   1_545     S
Er6     V2    9.999   1_545     S
Er6     Er18    10.005   .     S
Er7     V9    9.999   .     S
Er7     V8    9.999   1_455     S
Er7     V10    9.999   1_455     S
Er7     V11    9.999   .     S
Er7     Er19    10.005   .     S
V8     Er7    9.999   1_655     S
V8     V9    9.998   1_655     S
V8     Er12    9.999   1_665     S
V8     V10    10.0   1_565     S
V8     V10    10.0   .     S
V9     V8    9.998   1_455     S
V9     Er12    9.999   1_565     S
V9     V11    10.0   1_565     S
V9     V11    10.0   .     S
V10     Er7    9.999   1_655     S
V10     V11    9.998   1_655     S
V10     Er12    9.999   1_655     S
V10     V8    10.0   1_545     S
V11     V10    9.998   1_455     S
V11     Er12    9.999   .     S
V11     V9    10.0   1_545     S
Er12     V9    9.999   1_545     S
Er12     V8    9.999   1_445     S
Er12     V10    9.999   1_455     S
Er12     Er24    10.005   1_554     S
Er13     V17    9.999   .     S
Er13     V16    9.999   .     S
Er13     V15    9.999   .     S
Er13     V14    9.999   .     S
Er13     Er1    10.005   1_556     S
V14     V15    9.998   .     S
V14     Er18    9.999   .     S
V14     V17    10.0   1_545     S
V14     V17    10.0   .     S
V14     V22    10.002   .     S
V15     Er18    9.999   .     S
V15     V16    10.0   1_545     S
V15     V16    10.0   .     S
V15     V23    10.002   .     S
V16     V17    9.998   .     S
V16     Er18    9.999   1_565     S
V16     V15    10.0   1_565     S
V16     V21    10.002   .     S
V17     Er18    9.999   1_565     S
V17     V14    10.0   1_565     S
V17     V20    10.002   .     S
Er18     V17    9.999   1_545     S
Er18     V16    9.999   1_545     S
Er19     V23    9.999   .     S
Er19     V22    9.999   1_455     S
Er19     V20    9.999   1_455     S
Er19     V21    9.999   .     S
V20     Er19    9.999   1_655     S
V20     V21    9.998   1_655     S
V20     Er24    9.999   1_665     S
V20     V22    10.0   1_565     S
V20     V22    10.0   .     S
V21     V20    9.998   1_455     S
V21     Er24    9.999   1_565     S
V21     V23    10.0   1_565     S
V21     V23    10.0   .     S
V22     Er19    9.999   1_655     S
V22     V23    9.998   1_655     S
V22     Er24    9.999   1_655     S
V22     V20    10.0   1_545     S
V23     V22    9.998   1_455     S
V23     Er24    9.999   .     S
V23     V21    10.0   1_545     S
Er24     V20    9.999   1_445     S
Er24     V21    9.999   1_545     S
Er24     V22    9.999   1_455     S
Er24     Er12    10.005   1_556     S
