data_zbp
_audit_creation_date              2020-02-04
_audit_creation_method            'Pymatgen'
_symmetry_space_group_name_H-M    'P1'
_symmetry_Int_Tables_number       1
loop_
_symmetry_equiv_pos_as_xyz
  x,y,z
_cell_length_a                    41.1585
_cell_length_b                    41.1585
_cell_length_c                    41.5591
_cell_angle_alpha                 90.0
_cell_angle_beta                 90.0
_cell_angle_gamma                 120.0
loop_
_atom_site_label
_atom_site_type_symbol
_atom_site_fract_x
_atom_site_fract_y
_atom_site_fract_z
Ce1     Ce     0.3239   0.6761   0.9167
Er2     Er     0.3325   0.4426   0.963
Er3     Er     0.5574   0.6675   0.8704
Ce4     Ce     0.6761   0.3521   0.75
Er5     Er     0.6675   0.1102   0.7037
Er6     Er     0.4426   0.1102   0.7963
Ce7     Ce     0.6761   0.3239   0.4167
Er8     Er     0.4426   0.3325   0.3704
Er9     Er     0.6675   0.5574   0.463
Ce10     Ce     0.3521   0.6761   0.5833
Er11     Er     0.1102   0.6675   0.6296
Er12     Er     0.1102   0.4426   0.537
Ce13     Ce     0.3239   0.6479   0.25
Er14     Er     0.3325   0.8898   0.2037
Er15     Er     0.5574   0.8898   0.2963
Ce16     Ce     0.6479   0.3239   0.0833
Er17     Er     0.8898   0.5574   0.037
Er18     Er     0.8898   0.3325   0.1296
Ti19     Ti     0.8161   0.1839   0.4167
V20     V     0.0649   0.2005   0.4396
V21     V     0.7995   0.9351   0.3937
Ti22     Ti     0.1839   0.3678   0.25
V23     V     0.2005   0.1357   0.273
V24     V     0.9351   0.1357   0.227
Ti25     Ti     0.1839   0.8161   0.9167
V26     V     0.2005   0.0649   0.8937
V27     V     0.9351   0.7995   0.9396
Ti28     Ti     0.3678   0.1839   0.0833
V29     V     0.1357   0.2005   0.0604
V30     V     0.1357   0.9351   0.1063
Ti31     Ti     0.8161   0.6322   0.75
V32     V     0.7995   0.8643   0.773
V33     V     0.0649   0.8643   0.727
Ti34     Ti     0.6322   0.8161   0.5833
V35     V     0.8643   0.0649   0.6063
V36     V     0.8643   0.7995   0.5604
loop_
_geom_bond_atom_site_label_1
_geom_bond_atom_site_label_2
_geom_bond_distance
_geom_bond_site_symmetry_2
_ccdc_geom_bond_type
Ce1     Er3    9.976   .     S
Ce1     Er2    9.976   .     S
Ce1     Ti25    9.984   .     S
Er2     Er3    10.025   .     S
Er2     V29    10.028   1_556     S
Er3     V32    10.028   .     S
Ce4     Er5    9.976   .     S
Ce4     Er6    9.976   .     S
Ce4     Ti31    9.984   .     S
Er5     Er6    10.025   .     S
Er5     V35    10.028   .     S
Er6     V26    10.028   .     S
Ce7     Er8    9.976   .     S
Ce7     Er9    9.976   .     S
Ce7     Ti19    9.984   .     S
Er8     Er9    10.025   .     S
Er8     V23    10.028   .     S
Er9     V36    10.028   .     S
Ce10     Er12    9.976   .     S
Ce10     Er11    9.976   .     S
Ce10     Ti34    9.984   .     S
Er11     Er12    10.025   .     S
Er11     V33    10.028   .     S
Er12     V20    10.028   .     S
Ce13     Er14    9.976   .     S
Ce13     Er15    9.976   .     S
Ce13     Ti22    9.984   .     S
Er14     Er15    10.025   .     S
Er14     V30    10.028   .     S
Er15     V21    10.028   .     S
Ce16     Er17    9.976   .     S
Ce16     Er18    9.976   .     S
Ce16     Ti28    9.984   .     S
Er17     Er18    10.025   .     S
Er17     V27    10.028   1_554     S
Er18     V24    10.028   .     S
Ti19     V24    9.987   .     S
Ti19     V35    9.987   .     S
Ti19     V20    9.959   1_655     S
Ti19     V21    9.959   1_545     S
V20     Ti22    9.987   .     S
V20     V24    9.972   1_455     S
V20     V23    10.06   .     S
V20     V35    10.06   1_455     S
V20     Ti19    9.959   1_455     S
V21     Ti34    9.987   .     S
V21     V35    9.972   1_565     S
V21     V24    10.06   1_565     S
V21     V36    10.06   .     S
V21     Ti19    9.959   1_565     S
Ti22     V29    9.987   .     S
Ti22     V24    9.959   1_455     S
Ti22     V23    9.959   .     S
V23     Ti28    9.987   .     S
V23     V29    9.972   .     S
V23     V30    10.06   1_545     S
V24     V20    9.972   1_655     S
V24     V21    10.06   1_545     S
V24     V29    10.06   1_655     S
V24     Ti22    9.959   1_655     S
Ti25     V33    9.987   .     S
Ti25     V30    9.987   1_556     S
Ti25     V26    9.959   1_565     S
Ti25     V27    9.959   1_455     S
V26     V30    9.972   1_546     S
V26     Ti28    9.987   1_556     S
V26     V33    10.06   1_545     S
V26     V29    10.06   1_556     S
V26     Ti25    9.959   1_545     S
V27     Ti31    9.987   .     S
V27     V33    9.972   1_655     S
V27     Er17    10.028   1_556     S
V27     V32    10.06   .     S
V27     V30    10.06   1_656     S
V27     Ti25    9.959   1_655     S
Ti28     V26    9.987   1_554     S
Ti28     V29    9.959   .     S
Ti28     V30    9.959   1_545     S
V29     Er2    10.028   1_554     S
V29     V24    10.06   1_455     S
V29     V26    10.06   1_554     S
V30     Ti25    9.987   1_554     S
V30     V26    9.972   1_564     S
V30     V23    10.06   1_565     S
V30     V27    10.06   1_454     S
V30     Ti28    9.959   1_565     S
Ti31     V36    9.987   .     S
Ti31     V33    9.959   1_655     S
Ti31     V32    9.959   .     S
V32     Ti34    9.987   .     S
V32     V36    9.972   .     S
V32     V35    10.06   1_565     S
V33     V27    9.972   1_455     S
V33     V26    10.06   1_565     S
V33     V36    10.06   1_455     S
V33     Ti31    9.959   1_455     S
Ti34     V36    9.959   .     S
Ti34     V35    9.959   1_565     S
V35     V21    9.972   1_545     S
V35     V32    10.06   1_545     S
V35     V20    10.06   1_655     S
V35     Ti34    9.959   1_545     S
V36     V33    10.06   1_655     S
