data_zbq
_audit_creation_date              2020-02-04
_audit_creation_method            'Pymatgen'
_symmetry_space_group_name_H-M    'P1'
_symmetry_Int_Tables_number       1
loop_
_symmetry_equiv_pos_as_xyz
  x,y,z
_cell_length_a                    124.2837
_cell_length_b                    124.2837
_cell_length_c                    23.3217
_cell_angle_alpha                 90.0
_cell_angle_beta                 90.0
_cell_angle_gamma                 120.0
loop_
_atom_site_label
_atom_site_type_symbol
_atom_site_fract_x
_atom_site_fract_y
_atom_site_fract_z
Ti1     Ti     0.7778   0.083   0.7601
Er2     Er     0.8095   0.1084   0.3614
H3     H     0.6386   0.9694   0.4375
S4     S     0.7281   0.0292   0.3702
V5     V     0.8577   0.1622   0.6916
Ti6     Ti     0.6385   0.8889   0.4268
Er7     Er     0.6322   0.8571   0.028
H8     H     0.6642   0.0281   0.1041
S9     S     0.6345   0.9386   0.0368
V10     V     0.6378   0.809   0.3583
Ti11     Ti     0.5837   0.0281   0.0935
Er12     Er     0.5582   0.0345   0.6947
H13     H     0.6972   0.0025   0.7708
S14     S     0.6374   0.0322   0.7035
V15     V     0.5045   0.0288   0.0249
Ce16     Ce     0.5763   0.9716   0.9832
Ce17     Ce     0.6951   0.9381   0.3166
Ce18     Ce     0.7286   0.0904   0.6499
Ti19     Ti     0.2503   0.3615   0.4268
Er20     Er     0.2249   0.3678   0.028
H21     H     0.3639   0.3358   0.1041
S22     S     0.3041   0.3655   0.0368
V23     V     0.1711   0.3622   0.3583
Ti24     Ti     0.4445   0.4163   0.0935
Er25     Er     0.4762   0.4418   0.6947
H26     H     0.3052   0.3028   0.7708
S27     S     0.3948   0.3626   0.7035
V28     V     0.5244   0.4955   0.0249
Ti29     Ti     0.3052   0.2222   0.7601
Er30     Er     0.2989   0.1905   0.3614
H31     H     0.3308   0.3614   0.4375
S32     S     0.3011   0.2719   0.3702
V33     V     0.3045   0.1423   0.6916
Ce34     Ce     0.3618   0.2714   0.6499
Ce35     Ce     0.3952   0.4237   0.9832
Ce36     Ce     0.243   0.3049   0.3166
Ti37     Ti     0.0281   0.4445   0.9065
Er38     Er     0.0345   0.4762   0.3053
H39     H     0.0025   0.3052   0.2292
S40     S     0.0322   0.3948   0.2965
V41     V     0.0288   0.5244   0.9751
Ti42     Ti     0.083   0.3052   0.2399
Er43     Er     0.1084   0.2989   0.6386
H44     H     0.9694   0.3308   0.5625
S45     S     0.0292   0.3011   0.6298
V46     V     0.1622   0.3045   0.3084
Ti47     Ti     0.8889   0.2503   0.5732
Er48     Er     0.8571   0.2249   0.972
H49     H     0.0281   0.3639   0.8959
S50     S     0.9386   0.3041   0.9632
V51     V     0.809   0.1711   0.6417
Ce52     Ce     0.9381   0.243   0.6834
Ce53     Ce     0.9716   0.3952   0.0168
Ce54     Ce     0.0904   0.3618   0.3501
Ti55     Ti     0.2222   0.917   0.2399
Er56     Er     0.1905   0.8916   0.6386
H57     H     0.3614   0.0306   0.5625
S58     S     0.2719   0.9708   0.6298
V59     V     0.1423   0.8378   0.3084
Ti60     Ti     0.3615   0.1111   0.5732
Er61     Er     0.3678   0.1429   0.972
H62     H     0.3358   0.9719   0.8959
S63     S     0.3655   0.0614   0.9632
V64     V     0.3622   0.191   0.6417
Ti65     Ti     0.4163   0.9719   0.9065
Er66     Er     0.4418   0.9655   0.3053
H67     H     0.3028   0.9975   0.2292
S68     S     0.3626   0.9678   0.2965
V69     V     0.4955   0.9712   0.9751
Ce70     Ce     0.4237   0.0284   0.0168
Ce71     Ce     0.2714   0.9096   0.3501
Ce72     Ce     0.3049   0.0619   0.6834
Ti73     Ti     0.7497   0.6385   0.5732
Er74     Er     0.7751   0.6322   0.972
H75     H     0.6361   0.6642   0.8959
S76     S     0.6959   0.6345   0.9632
V77     V     0.8289   0.6378   0.6417
Ti78     Ti     0.5555   0.5837   0.9065
Er79     Er     0.5238   0.5582   0.3053
H80     H     0.6948   0.6972   0.2292
S81     S     0.6052   0.6374   0.2965
V82     V     0.4756   0.5045   0.9751
Ti83     Ti     0.6948   0.7778   0.2399
Er84     Er     0.7011   0.8095   0.6386
H85     H     0.6692   0.6386   0.5625
S86     S     0.6989   0.7281   0.6298
V87     V     0.6955   0.8577   0.3084
Ce88     Ce     0.6382   0.7286   0.3501
Ce89     Ce     0.6048   0.5763   0.0168
Ce90     Ce     0.757   0.6951   0.6834
Ti91     Ti     0.9719   0.5555   0.0935
Er92     Er     0.9655   0.5238   0.6947
H93     H     0.9975   0.6948   0.7708
S94     S     0.9678   0.6052   0.7035
V95     V     0.9712   0.4756   0.0249
Ti96     Ti     0.917   0.6948   0.7601
Er97     Er     0.8916   0.7011   0.3614
H98     H     0.0306   0.6692   0.4375
S99     S     0.9708   0.6989   0.3702
V100     V     0.8378   0.6955   0.6916
Ti101     Ti     0.1111   0.7497   0.4268
Er102     Er     0.1429   0.7751   0.028
H103     H     0.9719   0.6361   0.1041
S104     S     0.0614   0.6959   0.0368
V105     V     0.191   0.8289   0.3583
Ce106     Ce     0.0284   0.6048   0.9832
Ce107     Ce     0.9096   0.6382   0.6499
Ce108     Ce     0.0619   0.757   0.3166
loop_
_geom_bond_atom_site_label_1
_geom_bond_atom_site_label_2
_geom_bond_distance
_geom_bond_site_symmetry_2
_ccdc_geom_bond_type
Ti1     V5    10.015   .     S
Ti1     H13    10.012   .     S
Ti1     Er2    9.979   .     S
Er2     V5    9.99   .     S
Er2     S4    9.989   .     S
H3     H8    10.025   1_565     S
H3     S9    10.015   .     S
H3     Ce17    9.992   .     S
H3     Ti6    10.012   .     S
H3     H13    10.025   1_565     S
H3     S14    10.024   1_565     S
H3     S4    9.938   1_565     S
S4     H8    10.024   .     S
S4     Ce17    10.011   1_545     S
S4     Ce18    9.992   .     S
S4     H13    10.015   .     S
S4     H3    9.938   1_545     S
V5     Ce52    10.018   .     S
Ti6     V10    10.015   .     S
Ti6     Er7    9.979   .     S
Er7     V10    9.99   .     S
Er7     S9    9.989   .     S
H8     H3    10.025   1_545     S
H8     H13    10.025   1_554     S
H8     S14    10.015   1_554     S
H8     Ce16    9.992   1_544     S
H8     Ti11    10.012   .     S
H8     S9    9.938   1_545     S
S9     H13    10.024   1_564     S
S9     Ce16    10.011   1_554     S
S9     Ce17    9.992   .     S
S9     H8    9.938   1_565     S
V10     Ce88    10.018   .     S
Ti11     V15    10.015   .     S
Ti11     Er12    9.979   1_554     S
Er12     V15    9.99   1_556     S
Er12     Ti11    9.979   1_556     S
Er12     S14    9.989   .     S
H13     H8    10.025   1_556     S
H13     S9    10.024   1_546     S
H13     H3    10.025   1_545     S
H13     Ce18    9.992   .     S
H13     S14    9.938   .     S
S14     H8    10.015   1_556     S
S14     H3    10.024   1_545     S
S14     Ce18    10.011   .     S
S14     Ce16    9.992   1_545     S
V15     Ce70    10.018   .     S
V15     Er12    9.99   1_554     S
Ce16     H8    9.992   1_566     S
Ce16     S9    10.011   1_556     S
Ce16     S14    9.992   1_565     S
Ce16     V69    10.018   .     S
Ce17     S4    10.011   1_565     S
Ce17     V87    10.018   .     S
Ce18     V51    10.018   .     S
Ti19     V23    10.015   .     S
Ti19     H31    10.012   .     S
Ti19     Er20    9.979   .     S
Er20     V23    9.99   .     S
Er20     S22    9.989   .     S
H21     H26    10.025   1_554     S
H21     S27    10.015   1_554     S
H21     Ce35    9.992   1_554     S
H21     Ti24    10.012   .     S
H21     H31    10.025   .     S
H21     S32    10.024   .     S
H21     S22    9.938   .     S
S22     H26    10.024   1_554     S
S22     Ce35    10.011   1_554     S
S22     Ce36    9.992   .     S
S22     H31    10.015   .     S
V23     Ce54    10.018   .     S
Ti24     V28    10.015   .     S
Ti24     Er25    9.979   1_554     S
Er25     V28    9.99   1_556     S
Er25     Ti24    9.979   1_556     S
Er25     S27    9.989   .     S
H26     H21    10.025   1_556     S
H26     S22    10.024   1_556     S
H26     H31    10.025   .     S
H26     S32    10.015   .     S
H26     Ce34    9.992   .     S
H26     Ti29    10.012   .     S
H26     S27    9.938   .     S
S27     H21    10.015   1_556     S
S27     H31    10.024   .     S
S27     Ce34    10.011   .     S
S27     Ce35    9.992   .     S
V28     Ce89    10.018   .     S
V28     Er25    9.99   1_554     S
Ti29     V33    10.015   .     S
Ti29     Er30    9.979   .     S
Er30     V33    9.99   .     S
Er30     S32    9.989   .     S
H31     Ce36    9.992   .     S
H31     S32    9.938   .     S
S32     Ce36    10.011   .     S
S32     Ce34    9.992   .     S
V33     Ce72    10.018   .     S
Ce34     V64    10.018   .     S
Ce35     H21    9.992   1_556     S
Ce35     S22    10.011   1_556     S
Ce35     V82    10.018   .     S
Ce36     V46    10.018   .     S
Ti37     V41    10.015   .     S
Ti37     H49    10.012   .     S
Ti37     Er38    9.979   1_556     S
Er38     V41    9.99   1_554     S
Er38     Ti37    9.979   1_554     S
Er38     S40    9.989   .     S
H39     H44    10.025   1_455     S
H39     S45    10.015   .     S
H39     Ce54    9.992   .     S
H39     Ti42    10.012   .     S
H39     H49    10.025   1_554     S
H39     S50    10.024   1_454     S
H39     S40    9.938   .     S
S40     H44    10.024   1_455     S
S40     Ce54    10.011   .     S
S40     Ce53    9.992   1_455     S
S40     H49    10.015   1_554     S
V41     Ce106    10.018   .     S
V41     Er38    9.99   1_556     S
Ti42     V46    10.015   .     S
Ti42     Er43    9.979   .     S
Er43     V46    9.99   .     S
Er43     S45    9.989   .     S
H44     H39    10.025   1_655     S
H44     S40    10.024   1_655     S
H44     H49    10.025   1_655     S
H44     S50    10.015   .     S
H44     Ce52    9.992   .     S
H44     Ti47    10.012   .     S
H44     S45    9.938   1_655     S
S45     H49    10.024   .     S
S45     Ce52    10.011   1_455     S
S45     Ce54    9.992   .     S
S45     H44    9.938   1_455     S
Ti47     V51    10.015   .     S
Ti47     Er48    9.979   .     S
Er48     V51    9.99   .     S
Er48     S50    9.989   .     S
H49     H44    10.025   1_455     S
H49     H39    10.025   1_556     S
H49     S40    10.015   1_556     S
H49     Ce53    9.992   1_456     S
H49     S50    9.938   1_455     S
S50     H39    10.024   1_656     S
S50     Ce53    10.011   1_556     S
S50     Ce52    9.992   .     S
S50     H49    9.938   1_655     S
Ce52     S45    10.011   1_655     S
Ce53     S40    9.992   1_655     S
Ce53     H49    9.992   1_654     S
Ce53     S50    10.011   1_554     S
Ce53     V95    10.018   .     S
Ti55     V59    10.015   .     S
Ti55     H67    10.012   .     S
Ti55     Er56    9.979   .     S
Er56     V59    9.99   .     S
Er56     S58    9.989   .     S
H57     H62    10.025   1_545     S
H57     S63    10.015   .     S
H57     Ce72    9.992   .     S
H57     Ti60    10.012   .     S
H57     H67    10.025   1_545     S
H57     S68    10.024   1_545     S
H57     S58    9.938   1_545     S
S58     H62    10.024   .     S
S58     Ce72    10.011   1_565     S
S58     Ce71    9.992   .     S
S58     H67    10.015   .     S
S58     H57    9.938   1_565     S
V59     Ce108    10.018   .     S
Ti60     V64    10.015   .     S
Ti60     Er61    9.979   .     S
Er61     V64    9.99   .     S
Er61     S63    9.989   .     S
H62     H57    10.025   1_565     S
H62     H67    10.025   1_556     S
H62     S68    10.015   1_556     S
H62     Ce70    9.992   1_566     S
H62     Ti65    10.012   .     S
H62     S63    9.938   1_565     S
S63     H67    10.024   1_546     S
S63     Ce70    10.011   1_556     S
S63     Ce72    9.992   .     S
S63     H62    9.938   1_545     S
Ti65     V69    10.015   .     S
Ti65     Er66    9.979   1_556     S
Er66     V69    9.99   1_554     S
Er66     Ti65    9.979   1_554     S
Er66     S68    9.989   .     S
H67     H62    10.025   1_554     S
H67     S63    10.024   1_564     S
H67     H57    10.025   1_565     S
H67     Ce71    9.992   .     S
H67     S68    9.938   .     S
S68     H62    10.015   1_554     S
S68     H57    10.024   1_565     S
S68     Ce71    10.011   .     S
S68     Ce70    9.992   1_565     S
V69     Er66    9.99   1_556     S
Ce70     H62    9.992   1_544     S
Ce70     S63    10.011   1_554     S
Ce70     S68    9.992   1_545     S
Ce71     V105    10.018   .     S
Ce72     S58    10.011   1_545     S
Ti73     V77    10.015   .     S
Ti73     H85    10.012   .     S
Ti73     Er74    9.979   .     S
Er74     V77    9.99   .     S
Er74     S76    9.989   .     S
H75     H80    10.025   1_556     S
H75     S81    10.015   1_556     S
H75     Ce89    9.992   1_556     S
H75     Ti78    10.012   .     S
H75     H85    10.025   .     S
H75     S86    10.024   .     S
H75     S76    9.938   .     S
S76     H80    10.024   1_556     S
S76     Ce89    10.011   1_556     S
S76     Ce90    9.992   .     S
S76     H85    10.015   .     S
V77     Ce107    10.018   .     S
Ti78     V82    10.015   .     S
Ti78     Er79    9.979   1_556     S
Er79     V82    9.99   1_554     S
Er79     Ti78    9.979   1_554     S
Er79     S81    9.989   .     S
H80     H75    10.025   1_554     S
H80     S76    10.024   1_554     S
H80     H85    10.025   .     S
H80     S86    10.015   .     S
H80     Ce88    9.992   .     S
H80     Ti83    10.012   .     S
H80     S81    9.938   .     S
S81     H75    10.015   1_554     S
S81     H85    10.024   .     S
S81     Ce88    10.011   .     S
S81     Ce89    9.992   .     S
V82     Er79    9.99   1_556     S
Ti83     V87    10.015   .     S
Ti83     Er84    9.979   .     S
Er84     V87    9.99   .     S
Er84     S86    9.989   .     S
H85     Ce90    9.992   .     S
H85     S86    9.938   .     S
S86     Ce90    10.011   .     S
S86     Ce88    9.992   .     S
Ce89     H75    9.992   1_554     S
Ce89     S76    10.011   1_554     S
Ce90     V100    10.018   .     S
Ti91     V95    10.015   .     S
Ti91     H103    10.012   .     S
Ti91     Er92    9.979   1_554     S
Er92     V95    9.99   1_556     S
Er92     Ti91    9.979   1_556     S
Er92     S94    9.989   .     S
H93     H98    10.025   1_655     S
H93     S99    10.015   .     S
H93     Ce107    9.992   .     S
H93     Ti96    10.012   .     S
H93     H103    10.025   1_556     S
H93     S104    10.024   1_656     S
H93     S94    9.938   .     S
S94     H98    10.024   1_655     S
S94     Ce107    10.011   .     S
S94     Ce106    9.992   1_655     S
S94     H103    10.015   1_556     S
V95     Er92    9.99   1_554     S
Ti96     V100    10.015   .     S
Ti96     Er97    9.979   .     S
Er97     V100    9.99   .     S
Er97     S99    9.989   .     S
H98     H93    10.025   1_455     S
H98     S94    10.024   1_455     S
H98     H103    10.025   1_455     S
H98     S104    10.015   .     S
H98     Ce108    9.992   .     S
H98     Ti101    10.012   .     S
H98     S99    9.938   1_455     S
S99     H103    10.024   .     S
S99     Ce108    10.011   1_655     S
S99     Ce107    9.992   .     S
S99     H98    9.938   1_655     S
Ti101     V105    10.015   .     S
Ti101     Er102    9.979   .     S
Er102     V105    9.99   .     S
Er102     S104    9.989   .     S
H103     H98    10.025   1_655     S
H103     H93    10.025   1_554     S
H103     S94    10.015   1_554     S
H103     Ce106    9.992   1_654     S
H103     S104    9.938   1_655     S
S104     H93    10.024   1_454     S
S104     Ce106    10.011   1_554     S
S104     Ce108    9.992   .     S
S104     H103    9.938   1_455     S
Ce106     S94    9.992   1_455     S
Ce106     H103    9.992   1_456     S
Ce106     S104    10.011   1_556     S
Ce108     S99    10.011   1_455     S
