data_zbv
_audit_creation_date              2020-02-04
_audit_creation_method            'Pymatgen'
_symmetry_space_group_name_H-M    'P1'
_symmetry_Int_Tables_number       1
loop_
_symmetry_equiv_pos_as_xyz
  x,y,z
_cell_length_a                    37.1634
_cell_length_b                    30.4186
_cell_length_c                    68.8418
_cell_angle_alpha                 90.0
_cell_angle_beta                 97.7849
_cell_angle_gamma                 90.0
loop_
_atom_site_label
_atom_site_type_symbol
_atom_site_fract_x
_atom_site_fract_y
_atom_site_fract_z
S1     S     0.1067   0.319   0.2018
S2     S     0.3933   0.181   0.7982
H3     H     0.3882   0.661   0.1705
Ce4     Ce     0.36   0.9879   0.1724
Ti5     Ti     0.129   0.0238   0.9505
Ti6     Ti     0.371   0.4762   0.0495
V7     V     0.4289   0.3014   0.9346
V8     V     0.0711   0.1986   0.0654
Er9     Er     0.1703   0.3488   0.9548
Er10     Er     0.3297   0.1512   0.0452
H11     H     0.1118   0.839   0.8295
Ce12     Ce     0.14   0.5121   0.8276
S13     S     0.3933   0.819   0.2982
S14     S     0.1067   0.681   0.7018
H15     H     0.1118   0.161   0.3295
Ce16     Ce     0.14   0.4879   0.3276
Ti17     Ti     0.371   0.5238   0.5495
Ti18     Ti     0.129   0.9762   0.4505
V19     V     0.0711   0.8014   0.5654
V20     V     0.4289   0.6986   0.4346
Er21     Er     0.1703   0.6512   0.4548
Er22     Er     0.3297   0.8488   0.5452
H23     H     0.3882   0.339   0.6705
Ce24     Ce     0.36   0.0121   0.6724
S25     S     0.6067   0.819   0.2018
S26     S     0.8933   0.681   0.7982
H27     H     0.8882   0.161   0.1705
Ce28     Ce     0.86   0.4879   0.1724
Ti29     Ti     0.629   0.5238   0.9505
Ti30     Ti     0.871   0.9762   0.0495
V31     V     0.9289   0.8014   0.9346
V32     V     0.5711   0.6986   0.0654
Er33     Er     0.6703   0.8488   0.9548
Er34     Er     0.8297   0.6512   0.0452
H35     H     0.6118   0.339   0.8295
Ce36     Ce     0.64   0.0121   0.8276
S37     S     0.8933   0.319   0.2982
S38     S     0.6067   0.181   0.7018
H39     H     0.6118   0.661   0.3295
Ce40     Ce     0.64   0.9879   0.3276
Ti41     Ti     0.871   0.0238   0.5495
Ti42     Ti     0.629   0.4762   0.4505
V43     V     0.5711   0.3014   0.5654
V44     V     0.9289   0.1986   0.4346
Er45     Er     0.8297   0.3488   0.5452
Er46     Er     0.6703   0.1512   0.4548
H47     H     0.8882   0.839   0.6705
Ce48     Ce     0.86   0.5121   0.6724
loop_
_geom_bond_atom_site_label_1
_geom_bond_atom_site_label_2
_geom_bond_distance
_geom_bond_site_symmetry_2
_ccdc_geom_bond_type
S1     V8    10.0   .     S
S1     H15    10.0   .     S
S1     Ce16    10.0   .     S
S2     V7    10.0   .     S
S2     H23    10.0   .     S
S2     Ce24    10.0   .     S
H3     S13    10.0   .     S
H3     Ce4    10.0   .     S
H3     Ti6    10.0   .     S
Ce4     S13    10.0   .     S
Ce4     Er10    10.0   1_565     S
Ti5     H11    10.0   1_545     S
Ti5     V8    9.999   1_556     S
Ti5     Er9    10.0   .     S
Ti5     Er10    10.001   1_556     S
Ti5     V31    10.001   1_445     S
Ti6     V7    9.999   1_554     S
Ti6     Er10    10.0   .     S
Ti6     Er9    10.001   1_554     S
Ti6     V32    10.001   .     S
V7     Ti6    9.999   1_556     S
V7     Er10    10.0   1_556     S
V7     Er9    10.0   .     S
V7     Ti29    10.001   .     S
V8     Ti5    9.999   1_554     S
V8     Er9    10.0   1_554     S
V8     Er10    10.0   .     S
V8     Ti30    10.001   1_445     S
Er9     Ti6    10.001   1_556     S
Er9     V8    10.0   1_556     S
Er9     Er10    9.999   1_556     S
Er9     Ce12    10.0   .     S
Er10     V7    10.0   1_554     S
Er10     Ti5    10.001   1_554     S
Er10     Er9    9.999   1_554     S
Er10     Ce4    10.0   1_545     S
H11     Ti5    10.0   1_565     S
H11     S14    10.0   .     S
H11     Ce12    10.0   .     S
Ce12     S14    10.0   .     S
S13     V20    10.0   .     S
S14     V19    10.0   .     S
H15     Ce16    10.0   .     S
H15     Ti18    10.0   1_545     S
Ce16     Er21    10.0   .     S
Ti17     H23    10.0   .     S
Ti17     V20    9.999   .     S
Ti17     Er22    10.0   .     S
Ti17     Er21    10.001   .     S
Ti17     V43    10.001   .     S
Ti18     H15    10.0   1_565     S
Ti18     V19    9.999   .     S
Ti18     Er21    10.0   .     S
Ti18     Er22    10.001   .     S
Ti18     V44    10.001   1_465     S
V19     Er21    10.0   .     S
V19     Er22    10.0   .     S
V19     Ti41    10.001   1_465     S
V20     Er22    10.0   .     S
V20     Er21    10.0   .     S
V20     Ti42    10.001   .     S
Er21     Er22    9.999   .     S
Er22     Ce24    10.0   1_565     S
H23     Ce24    10.0   .     S
Ce24     Er22    10.0   1_545     S
S25     V32    10.0   .     S
S25     H39    10.0   .     S
S25     Ce40    10.0   .     S
S26     V31    10.0   .     S
S26     H47    10.0   .     S
S26     Ce48    10.0   .     S
H27     S37    10.0   .     S
H27     Ce28    10.0   .     S
H27     Ti30    10.0   1_545     S
Ce28     S37    10.0   .     S
Ce28     Er34    10.0   .     S
Ti29     H35    10.0   .     S
Ti29     V32    9.999   1_556     S
Ti29     Er33    10.0   .     S
Ti29     Er34    10.001   1_556     S
Ti30     H27    10.0   1_565     S
Ti30     V31    9.999   1_554     S
Ti30     Er34    10.0   .     S
Ti30     Er33    10.001   1_554     S
Ti30     V8    10.001   1_665     S
V31     Ti5    10.001   1_665     S
V31     Ti30    9.999   1_556     S
V31     Er34    10.0   1_556     S
V31     Er33    10.0   .     S
V32     Ti29    9.999   1_554     S
V32     Er33    10.0   1_554     S
V32     Er34    10.0   .     S
Er33     V32    10.0   1_556     S
Er33     Er34    9.999   1_556     S
Er33     Ti30    10.001   1_556     S
Er33     Ce36    10.0   1_565     S
Er34     Ti29    10.001   1_554     S
Er34     Er33    9.999   1_554     S
Er34     V31    10.0   1_554     S
H35     S38    10.0   .     S
H35     Ce36    10.0   .     S
Ce36     Er33    10.0   1_545     S
Ce36     S38    10.0   .     S
S37     V44    10.0   .     S
S38     V43    10.0   .     S
H39     Ce40    10.0   .     S
H39     Ti42    10.0   .     S
Ce40     Er46    10.0   1_565     S
Ti41     H47    10.0   1_545     S
Ti41     V44    9.999   .     S
Ti41     Er45    10.0   .     S
Ti41     Er46    10.001   .     S
Ti41     V19    10.001   1_645     S
Ti42     V43    9.999   .     S
Ti42     Er46    10.0   .     S
Ti42     Er45    10.001   .     S
V43     Er46    10.0   .     S
V43     Er45    10.0   .     S
V44     Ti18    10.001   1_645     S
V44     Er45    10.0   .     S
V44     Er46    10.0   .     S
Er45     Er46    9.999   .     S
Er45     Ce48    10.0   .     S
Er46     Ce40    10.0   1_545     S
H47     Ti41    10.0   1_565     S
H47     Ce48    10.0   .     S
