data_zbx
_audit_creation_date              2020-02-04
_audit_creation_method            'Pymatgen'
_symmetry_space_group_name_H-M    'P1'
_symmetry_Int_Tables_number       1
loop_
_symmetry_equiv_pos_as_xyz
  x,y,z
_cell_length_a                    34.6412
_cell_length_b                    26.4861
_cell_length_c                    29.2121
_cell_angle_alpha                 90.0
_cell_angle_beta                 95.3756
_cell_angle_gamma                 90.0
loop_
_atom_site_label
_atom_site_type_symbol
_atom_site_fract_x
_atom_site_fract_y
_atom_site_fract_z
Ti1     Ti     0.0936   0.4884   0.1398
V2     V     0.6605   0.321   0.8589
V3     V     0.8395   0.321   0.1411
Ti4     Ti     0.4064   0.4884   0.8602
Ti5     Ti     0.9064   0.5116   0.8602
V6     V     0.1605   0.679   0.8589
V7     V     0.3395   0.679   0.1411
Ti8     Ti     0.5936   0.5116   0.1398
Er9     Er     0.6528   0.6957   0.8595
Er10     Er     0.8472   0.6957   0.1405
Er11     Er     0.1528   0.3043   0.8595
Er12     Er     0.3472   0.3043   0.1405
Ti13     Ti     0.0936   0.0116   0.6398
V14     V     0.6605   0.179   0.3589
V15     V     0.8395   0.179   0.6411
Ti16     Ti     0.4064   0.0116   0.3602
Ti17     Ti     0.5936   0.9884   0.6398
V18     V     0.1605   0.821   0.3589
V19     V     0.3395   0.821   0.6411
Ti20     Ti     0.9064   0.9884   0.3602
Er21     Er     0.1528   0.1957   0.3595
Er22     Er     0.3472   0.1957   0.6405
Er23     Er     0.8472   0.8043   0.6405
Er24     Er     0.6528   0.8043   0.3595
loop_
_geom_bond_atom_site_label_1
_geom_bond_atom_site_label_2
_geom_bond_distance
_geom_bond_site_symmetry_2
_ccdc_geom_bond_type
Ti1     Er10    10.151   1_455     S
Ti1     Er21    10.149   .     S
Ti1     V7    9.897   .     S
Ti1     Er11    9.909   1_554     S
Ti1     V6    10.088   1_554     S
Ti1     Er12    10.046   .     S
Ti1     Ti5    9.963   1_454     S
Ti1     V3    9.861   1_455     S
V2     Ti5    9.897   .     S
V2     V15    10.022   .     S
V2     V3    9.838   1_556     S
V2     Ti8    10.088   1_556     S
V2     Er9    9.928   .     S
V2     Ti4    9.861   .     S
V3     Ti8    9.897   .     S
V3     V14    10.022   .     S
V3     V2    9.838   1_554     S
V3     Ti5    10.088   1_554     S
V3     Er10    9.928   .     S
V3     Ti1    9.861   1_655     S
Ti4     Er9    10.151   .     S
Ti4     Er22    10.149   .     S
Ti4     V6    9.897   .     S
Ti4     Er12    9.909   1_556     S
Ti4     V7    10.088   1_556     S
Ti4     Er11    10.046   .     S
Ti4     Ti8    9.963   1_556     S
Ti5     Er11    10.151   1_655     S
Ti5     Er23    10.149   .     S
Ti5     Er10    9.909   1_556     S
Ti5     V3    10.088   1_556     S
Ti5     Er9    10.046   .     S
Ti5     Ti1    9.963   1_656     S
Ti5     V6    9.861   1_655     S
V6     V19    10.022   .     S
V6     V7    9.838   1_556     S
V6     Ti1    10.088   1_556     S
V6     Er11    9.928   .     S
V6     Ti5    9.861   1_455     S
V7     V18    10.022   .     S
V7     V6    9.838   1_554     S
V7     Ti4    10.088   1_554     S
V7     Er12    9.928   .     S
V7     Ti8    9.861   .     S
Ti8     Er12    10.151   .     S
Ti8     Er24    10.149   .     S
Ti8     Er9    9.909   1_554     S
Ti8     V2    10.088   1_554     S
Ti8     Er10    10.046   .     S
Ti8     Ti4    9.963   1_554     S
Er9     Ti17    10.149   .     S
Er9     Ti8    9.909   1_556     S
Er9     Er10    10.119   1_556     S
Er10     Ti1    10.151   1_655     S
Er10     Ti20    10.149   .     S
Er10     Ti5    9.909   1_554     S
Er10     Er9    10.119   1_554     S
Er11     Ti5    10.151   1_455     S
Er11     Ti13    10.149   .     S
Er11     Ti1    9.909   1_556     S
Er11     Er12    10.119   1_556     S
Er12     Ti16    10.149   .     S
Er12     Ti4    9.909   1_554     S
Er12     Er11    10.119   1_554     S
Ti13     Er23    10.151   1_445     S
Ti13     V19    9.897   1_545     S
Ti13     Er21    9.909   .     S
Ti13     V18    10.088   1_545     S
Ti13     Er22    10.046   .     S
Ti13     Ti20    9.963   1_445     S
Ti13     V15    9.861   1_455     S
V14     Ti20    9.897   1_545     S
V14     V15    9.838   .     S
V14     Ti17    10.088   1_545     S
V14     Er24    9.928   1_545     S
V14     Ti16    9.861   .     S
V15     Ti17    9.897   1_545     S
V15     Ti20    10.088   1_545     S
V15     Er23    9.928   1_545     S
V15     Ti13    9.861   1_655     S
Ti16     Er24    10.151   1_545     S
Ti16     V18    9.897   1_545     S
Ti16     Er22    9.909   .     S
Ti16     V19    10.088   1_545     S
Ti16     Er21    10.046   .     S
Ti16     Ti17    9.963   1_545     S
Ti17     Er22    10.151   1_565     S
Ti17     V15    9.897   1_565     S
Ti17     Er24    9.909   .     S
Ti17     V14    10.088   1_565     S
Ti17     Er23    10.046   .     S
Ti17     Ti16    9.963   1_565     S
Ti17     V19    9.861   .     S
V18     Ti16    9.897   1_565     S
V18     V19    9.838   .     S
V18     Ti13    10.088   1_565     S
V18     Er21    9.928   1_565     S
V18     Ti20    9.861   1_455     S
V19     Ti13    9.897   1_565     S
V19     Ti16    10.088   1_565     S
V19     Er22    9.928   1_565     S
Ti20     Er21    10.151   1_665     S
Ti20     V14    9.897   1_565     S
Ti20     Er23    9.909   .     S
Ti20     V15    10.088   1_565     S
Ti20     Er24    10.046   .     S
Ti20     Ti13    9.963   1_665     S
Ti20     V18    9.861   1_655     S
Er21     Ti20    10.151   1_445     S
Er21     Er22    10.119   .     S
Er21     V18    9.928   1_545     S
Er22     Ti17    10.151   1_545     S
Er22     V19    9.928   1_545     S
Er23     Ti13    10.151   1_665     S
Er23     Er24    10.119   .     S
Er23     V15    9.928   1_565     S
Er24     Ti16    10.151   1_565     S
Er24     V14    9.928   1_565     S
