data_zcc
_audit_creation_date              2020-02-04
_audit_creation_method            'Pymatgen'
_symmetry_space_group_name_H-M    'P1'
_symmetry_Int_Tables_number       1
loop_
_symmetry_equiv_pos_as_xyz
  x,y,z
_cell_length_a                    60.5316
_cell_length_b                    60.5316
_cell_length_c                    20.0002
_cell_angle_alpha                 90.0
_cell_angle_beta                 90.0
_cell_angle_gamma                 90.0
loop_
_atom_site_label
_atom_site_type_symbol
_atom_site_fract_x
_atom_site_fract_y
_atom_site_fract_z
V1     V     0.1994   0.8006   0.25
V2     V     0.1994   0.8006   0.75
V3     V     0.3006   0.6994   0.0
V4     V     0.3006   0.6994   0.5
V5     V     0.8006   0.8006   0.25
V6     V     0.8006   0.8006   0.75
V7     V     0.6994   0.6994   0.0
V8     V     0.6994   0.6994   0.5
V9     V     0.8006   0.1994   0.25
V10     V     0.8006   0.1994   0.75
V11     V     0.6994   0.3006   0.0
V12     V     0.6994   0.3006   0.5
Er13     Er     0.4174   0.4174   0.0
Er14     Er     0.4174   0.4174   0.5
Er15     Er     0.4174   0.5826   0.0
Er16     Er     0.4174   0.5826   0.5
Er17     Er     0.5826   0.4174   0.0
Er18     Er     0.5826   0.4174   0.5
Er19     Er     0.5826   0.5826   0.0
Er20     Er     0.5826   0.5826   0.5
Er21     Er     0.9174   0.0826   0.25
Er22     Er     0.9174   0.0826   0.75
Er23     Er     0.9174   0.9174   0.25
Er24     Er     0.9174   0.9174   0.75
Er25     Er     0.0826   0.9174   0.25
Er26     Er     0.0826   0.9174   0.75
Er27     Er     0.0826   0.0826   0.25
Er28     Er     0.0826   0.0826   0.75
V29     V     0.1994   0.1994   0.25
V30     V     0.1994   0.1994   0.75
V31     V     0.3006   0.3006   0.0
V32     V     0.3006   0.3006   0.5
loop_
_geom_bond_atom_site_label_1
_geom_bond_atom_site_label_2
_geom_bond_distance
_geom_bond_site_symmetry_2
_ccdc_geom_bond_type
V1     V3    10.0   .     S
V1     V2    10.0   1_554     S
V1     V2    10.0   .     S
V1     V4    10.0   .     S
V1     Er25    10.0   .     S
V2     V4    10.0   .     S
V2     V1    10.0   1_556     S
V2     V3    10.0   1_556     S
V2     Er26    10.0   .     S
V3     V2    10.0   1_554     S
V3     V4    10.0   .     S
V3     V4    10.0   1_554     S
V3     Er15    10.0   .     S
V4     V3    10.0   1_556     S
V4     Er16    10.0   .     S
V5     V7    10.0   .     S
V5     V6    10.0   1_554     S
V5     V6    10.0   .     S
V5     V8    10.0   .     S
V5     Er23    10.0   .     S
V6     V8    10.0   .     S
V6     V5    10.0   1_556     S
V6     V7    10.0   1_556     S
V6     Er24    10.0   .     S
V7     V6    10.0   1_554     S
V7     V8    10.0   .     S
V7     V8    10.0   1_554     S
V7     Er19    10.0   .     S
V8     V7    10.0   1_556     S
V8     Er20    10.0   .     S
V9     V11    10.0   .     S
V9     V10    10.0   1_554     S
V9     V10    10.0   .     S
V9     V12    10.0   .     S
V9     Er21    10.0   .     S
V10     V12    10.0   .     S
V10     V9    10.0   1_556     S
V10     V11    10.0   1_556     S
V10     Er22    10.0   .     S
V11     V10    10.0   1_554     S
V11     V12    10.0   .     S
V11     V12    10.0   1_554     S
V11     Er17    10.0   .     S
V12     V11    10.0   1_556     S
V12     Er18    10.0   .     S
Er13     Er15    10.0   .     S
Er13     Er17    10.0   .     S
Er13     V31    10.0   .     S
Er14     Er16    10.0   .     S
Er14     Er18    10.0   .     S
Er14     V32    10.0   .     S
Er15     Er19    10.0   .     S
Er16     Er20    10.0   .     S
Er17     Er19    10.0   .     S
Er18     Er20    10.0   .     S
Er21     Er27    10.0   1_655     S
Er21     Er23    10.0   1_545     S
Er22     Er28    10.0   1_655     S
Er22     Er24    10.0   1_545     S
Er23     Er25    10.0   1_655     S
Er23     Er21    10.0   1_565     S
Er24     Er26    10.0   1_655     S
Er24     Er22    10.0   1_565     S
Er25     Er23    10.0   1_455     S
Er25     Er27    10.0   1_565     S
Er26     Er24    10.0   1_455     S
Er26     Er28    10.0   1_565     S
Er27     Er21    10.0   1_455     S
Er27     Er25    10.0   1_545     S
Er27     V29    10.0   .     S
Er28     Er22    10.0   1_455     S
Er28     Er26    10.0   1_545     S
Er28     V30    10.0   .     S
V29     V31    10.0   .     S
V29     V30    10.0   1_554     S
V29     V30    10.0   .     S
V29     V32    10.0   .     S
V30     V32    10.0   .     S
V30     V29    10.0   1_556     S
V30     V31    10.0   1_556     S
V31     V30    10.0   1_554     S
V31     V32    10.0   .     S
V31     V32    10.0   1_554     S
V32     V31    10.0   1_556     S
