data_zcd
_audit_creation_date              2020-02-04
_audit_creation_method            'Pymatgen'
_symmetry_space_group_name_H-M    'P1'
_symmetry_Int_Tables_number       1
loop_
_symmetry_equiv_pos_as_xyz
  x,y,z
_cell_length_a                    43.8575
_cell_length_b                    43.8575
_cell_length_c                    28.6418
_cell_angle_alpha                 90.0
_cell_angle_beta                 90.0
_cell_angle_gamma                 90.0
loop_
_atom_site_label
_atom_site_type_symbol
_atom_site_fract_x
_atom_site_fract_y
_atom_site_fract_z
Er1     Er     0.5453   0.1746   0.6268
Ti2     Ti     0.4608   0.1674   0.3039
Er3     Er     0.1746   0.4547   0.8768
Ti4     Ti     0.1674   0.5392   0.5539
Er5     Er     0.4547   0.8254   0.1268
Ti6     Ti     0.5392   0.8326   0.8039
H7     H     0.7454   0.5007   0.75
H8     H     0.4993   0.7454   0.5
H9     H     0.2546   0.4993   0.25
H10     H     0.5007   0.2546   0.0
S11     S     0.5434   0.6058   0.7673
Ce12     Ce     0.5588   0.4022   0.6178
S13     S     0.6058   0.4566   0.0173
Ce14     Ce     0.4022   0.4412   0.8678
S15     S     0.3942   0.5434   0.5173
Ce16     Ce     0.5978   0.5588   0.3678
S17     S     0.4566   0.3942   0.2673
Ce18     Ce     0.4412   0.5978   0.1178
Er19     Er     0.8254   0.5453   0.3768
Ti20     Ti     0.8326   0.4608   0.0539
V21     V     0.0266   0.5002   0.2276
V22     V     0.5002   0.9734   0.4776
V23     V     0.4998   0.0266   0.9776
V24     V     0.9734   0.4998   0.7276
loop_
_geom_bond_atom_site_label_1
_geom_bond_atom_site_label_2
_geom_bond_distance
_geom_bond_site_symmetry_2
_ccdc_geom_bond_type
Er1     V22    10.002   1_545     S
Er1     Ce12    9.999   .     S
Er1     Ti2    9.967   .     S
Ti2     V22    10.006   1_545     S
Ti2     S17    10.001   .     S
Er3     V24    10.002   1_455     S
Er3     Ce14    9.999   .     S
Er3     Ti4    9.967   .     S
Ti4     V24    10.006   1_455     S
Ti4     S15    10.001   .     S
Er5     V23    10.002   1_564     S
Er5     Ce18    9.999   .     S
Er5     Ti6    9.967   1_554     S
Ti6     V23    10.006   1_565     S
Ti6     S11    10.001   .     S
Ti6     Er5    9.967   1_556     S
H7     S13    9.99   1_556     S
H7     S11    9.999   .     S
H7     Ce12    9.998   .     S
H7     V24    10.024   .     S
H8     S11    9.99   .     S
H8     S15    9.999   .     S
H8     Ce16    9.998   .     S
H8     V22    10.024   .     S
H9     S15    9.99   .     S
H9     S17    9.999   .     S
H9     Ce18    9.998   .     S
H9     V21    10.024   .     S
H10     S17    9.99   .     S
H10     S13    9.999   .     S
H10     Ce14    9.998   1_554     S
H10     V23    10.024   1_554     S
S11     S15    10.078   .     S
S11     S13    10.078   1_556     S
S11     Ce12    9.928   .     S
S11     Ce14    9.937   .     S
Ce12     Ce16    10.069   .     S
Ce12     Ce14    10.069   .     S
Ce12     S15    9.937   .     S
S13     H7    9.99   1_554     S
S13     Ti20    10.001   .     S
S13     S11    10.078   1_554     S
S13     S17    10.078   .     S
S13     Ce14    9.928   1_554     S
S13     Ce18    9.937   .     S
Ce14     H10    9.998   1_556     S
Ce14     Ce18    10.069   1_556     S
Ce14     S13    9.928   1_556     S
S15     S17    10.078   .     S
S15     Ce16    9.928   .     S
Ce16     Er19    9.999   .     S
Ce16     Ce18    10.069   .     S
Ce16     S17    9.937   .     S
S17     Ce18    9.928   .     S
Ce18     Ce14    10.069   1_554     S
Er19     V21    10.002   1_655     S
Er19     Ti20    9.967   .     S
Ti20     V21    10.006   1_655     S
V21     Er19    10.002   1_455     S
V21     Ti20    10.006   1_455     S
V22     Er1    10.002   1_565     S
V22     Ti2    10.006   1_565     S
V23     Er5    10.002   1_546     S
V23     Ti6    10.006   1_545     S
V23     H10    10.024   1_556     S
V24     Er3    10.002   1_655     S
V24     Ti4    10.006   1_655     S
