data_zfc
_audit_creation_date              2020-02-04
_audit_creation_method            'Pymatgen'
_symmetry_space_group_name_H-M    'P1'
_symmetry_Int_Tables_number       1
loop_
_symmetry_equiv_pos_as_xyz
  x,y,z
_cell_length_a                    47.0035
_cell_length_b                    47.0035
_cell_length_c                    20.0
_cell_angle_alpha                 90.0
_cell_angle_beta                 90.0
_cell_angle_gamma                 90.0
loop_
_atom_site_label
_atom_site_type_symbol
_atom_site_fract_x
_atom_site_fract_y
_atom_site_fract_z
V1     V     0.7538   0.3949   0.2118
V2     V     0.7538   0.3949   0.7118
V3     V     0.8949   0.2538   0.0382
V4     V     0.8949   0.2538   0.5382
V5     V     0.6051   0.2462   0.2882
V6     V     0.6051   0.2462   0.7882
V7     V     0.7462   0.1051   0.4618
V8     V     0.7462   0.1051   0.9618
V9     V     0.7538   0.6051   0.2882
V10     V     0.7538   0.6051   0.7882
V11     V     0.8949   0.7462   0.4618
V12     V     0.8949   0.7462   0.9618
V13     V     0.6051   0.7538   0.2118
V14     V     0.6051   0.7538   0.7118
V15     V     0.7462   0.8949   0.0382
V16     V     0.7462   0.8949   0.5382
V17     V     0.2462   0.3949   0.2882
V18     V     0.2462   0.3949   0.7882
V19     V     0.1051   0.2538   0.4618
V20     V     0.1051   0.2538   0.9618
V21     V     0.3949   0.2462   0.2118
V22     V     0.3949   0.2462   0.7118
V23     V     0.2538   0.1051   0.0382
V24     V     0.2538   0.1051   0.5382
V25     V     0.3949   0.7538   0.2882
V26     V     0.3949   0.7538   0.7882
V27     V     0.2538   0.8949   0.4618
V28     V     0.2538   0.8949   0.9618
V29     V     0.2462   0.6051   0.2118
V30     V     0.2462   0.6051   0.7118
V31     V     0.1051   0.7462   0.0382
V32     V     0.1051   0.7462   0.5382
loop_
_geom_bond_atom_site_label_1
_geom_bond_atom_site_label_2
_geom_bond_distance
_geom_bond_site_symmetry_2
_ccdc_geom_bond_type
V1     V3    10.0   .     S
V1     V5    10.0   .     S
V1     V2    10.0   .     S
V1     V2    10.0   1_554     S
V1     V9    10.0   .     S
V2     V4    10.0   .     S
V2     V6    10.0   .     S
V2     V1    10.0   1_556     S
V2     V10    10.0   .     S
V3     V8    10.0   1_554     S
V3     V4    10.0   .     S
V3     V4    10.0   1_554     S
V3     V20    10.0   1_654     S
V4     V7    10.0   .     S
V4     V3    10.0   1_556     S
V4     V19    10.0   1_655     S
V5     V7    10.0   .     S
V5     V6    10.0   1_554     S
V5     V6    10.0   .     S
V5     V21    10.0   .     S
V6     V8    10.0   .     S
V6     V5    10.0   1_556     S
V6     V22    10.0   .     S
V7     V8    10.0   1_554     S
V7     V8    10.0   .     S
V7     V16    10.0   1_545     S
V8     V3    10.0   1_556     S
V8     V7    10.0   1_556     S
V8     V15    10.0   1_546     S
V9     V11    10.0   .     S
V9     V13    10.0   .     S
V9     V10    10.0   1_554     S
V9     V10    10.0   .     S
V10     V12    10.0   .     S
V10     V14    10.0   .     S
V10     V9    10.0   1_556     S
V11     V16    10.0   .     S
V11     V12    10.0   1_554     S
V11     V12    10.0   .     S
V11     V32    10.0   1_655     S
V12     V15    10.0   1_556     S
V12     V11    10.0   1_556     S
V12     V31    10.0   1_656     S
V13     V15    10.0   .     S
V13     V14    10.0   .     S
V13     V14    10.0   1_554     S
V13     V25    10.0   .     S
V14     V16    10.0   .     S
V14     V13    10.0   1_556     S
V14     V26    10.0   .     S
V15     V12    10.0   1_554     S
V15     V16    10.0   .     S
V15     V16    10.0   1_554     S
V15     V8    10.0   1_564     S
V16     V15    10.0   1_556     S
V16     V7    10.0   1_565     S
V17     V19    10.0   .     S
V17     V21    10.0   .     S
V17     V18    10.0   1_554     S
V17     V18    10.0   .     S
V17     V29    10.0   .     S
V18     V20    10.0   .     S
V18     V22    10.0   .     S
V18     V17    10.0   1_556     S
V18     V30    10.0   .     S
V19     V4    10.0   1_455     S
V19     V24    10.0   .     S
V19     V20    10.0   1_554     S
V19     V20    10.0   .     S
V20     V3    10.0   1_456     S
V20     V23    10.0   1_556     S
V20     V19    10.0   1_556     S
V21     V23    10.0   .     S
V21     V22    10.0   .     S
V21     V22    10.0   1_554     S
V22     V24    10.0   .     S
V22     V21    10.0   1_556     S
V23     V20    10.0   1_554     S
V23     V24    10.0   .     S
V23     V24    10.0   1_554     S
V23     V28    10.0   1_544     S
V24     V23    10.0   1_556     S
V24     V27    10.0   1_545     S
V25     V27    10.0   .     S
V25     V29    10.0   .     S
V25     V26    10.0   1_554     S
V25     V26    10.0   .     S
V26     V28    10.0   .     S
V26     V30    10.0   .     S
V26     V25    10.0   1_556     S
V27     V32    10.0   .     S
V27     V28    10.0   1_554     S
V27     V28    10.0   .     S
V27     V24    10.0   1_565     S
V28     V31    10.0   1_556     S
V28     V27    10.0   1_556     S
V28     V23    10.0   1_566     S
V29     V31    10.0   .     S
V29     V30    10.0   .     S
V29     V30    10.0   1_554     S
V30     V32    10.0   .     S
V30     V29    10.0   1_556     S
V31     V12    10.0   1_454     S
V31     V28    10.0   1_554     S
V31     V32    10.0   .     S
V31     V32    10.0   1_554     S
V32     V11    10.0   1_455     S
V32     V31    10.0   1_556     S
