data_zff
_audit_creation_date              2020-02-04
_audit_creation_method            'Pymatgen'
_symmetry_space_group_name_H-M    'P1'
_symmetry_Int_Tables_number       1
loop_
_symmetry_equiv_pos_as_xyz
  x,y,z
_cell_length_a                    23.9049
_cell_length_b                    23.9049
_cell_length_c                    36.0181
_cell_angle_alpha                 90.0
_cell_angle_beta                 90.0
_cell_angle_gamma                 90.0
loop_
_atom_site_label
_atom_site_type_symbol
_atom_site_fract_x
_atom_site_fract_y
_atom_site_fract_z
V1     V     0.4652   0.7938   0.1369
V2     V     0.2938   0.9652   0.3631
V3     V     0.7062   0.0348   0.3631
V4     V     0.5348   0.2062   0.1369
V5     V     0.9652   0.7062   0.3631
V6     V     0.7938   0.5348   0.1369
V7     V     0.2062   0.4652   0.1369
V8     V     0.0348   0.2938   0.3631
V9     V     0.7062   0.9652   0.6369
V10     V     0.5348   0.7938   0.8631
V11     V     0.2938   0.0348   0.6369
V12     V     0.4652   0.2062   0.8631
V13     V     0.9652   0.2938   0.6369
V14     V     0.7938   0.4652   0.8631
V15     V     0.0348   0.7062   0.6369
V16     V     0.2062   0.5348   0.8631
loop_
_geom_bond_atom_site_label_1
_geom_bond_atom_site_label_2
_geom_bond_distance
_geom_bond_site_symmetry_2
_ccdc_geom_bond_type
V1     V2    10.0   .     S
V1     V4    10.0   1_565     S
V1     V6    10.0   .     S
V1     V7    10.0   .     S
V1     V10    10.0   1_554     S
V2     V3    10.0   1_565     S
V2     V8    10.0   1_565     S
V2     V5    10.0   1_455     S
V2     V11    10.0   1_565     S
V3     V4    10.0   .     S
V3     V2    10.0   1_545     S
V3     V8    10.0   1_655     S
V3     V5    10.0   1_545     S
V3     V9    10.0   1_545     S
V4     V1    10.0   1_545     S
V4     V7    10.0   .     S
V4     V6    10.0   .     S
V4     V12    10.0   1_554     S
V5     V6    10.0   .     S
V5     V8    10.0   1_655     S
V5     V3    10.0   1_565     S
V5     V2    10.0   1_655     S
V5     V15    10.0   1_655     S
V6     V7    10.0   1_655     S
V6     V14    10.0   1_554     S
V7     V8    10.0   .     S
V7     V6    10.0   1_455     S
V7     V16    10.0   1_554     S
V8     V5    10.0   1_455     S
V8     V3    10.0   1_455     S
V8     V2    10.0   1_545     S
V8     V13    10.0   1_455     S
V9     V10    10.0   .     S
V9     V11    10.0   1_565     S
V9     V13    10.0   1_565     S
V9     V15    10.0   1_655     S
V9     V3    10.0   1_565     S
V10     V12    10.0   1_565     S
V10     V14    10.0   .     S
V10     V16    10.0   .     S
V10     V1    10.0   1_556     S
V11     V12    10.0   .     S
V11     V9    10.0   1_545     S
V11     V15    10.0   1_545     S
V11     V13    10.0   1_455     S
V11     V2    10.0   1_545     S
V12     V10    10.0   1_545     S
V12     V16    10.0   .     S
V12     V14    10.0   .     S
V12     V4    10.0   1_556     S
V13     V14    10.0   .     S
V13     V15    10.0   1_655     S
V13     V11    10.0   1_655     S
V13     V9    10.0   1_545     S
V13     V8    10.0   1_655     S
V14     V16    10.0   1_655     S
V14     V6    10.0   1_556     S
V15     V16    10.0   .     S
V15     V13    10.0   1_455     S
V15     V11    10.0   1_565     S
V15     V9    10.0   1_455     S
V15     V5    10.0   1_455     S
V16     V14    10.0   1_455     S
V16     V7    10.0   1_556     S
