data_zfj
_audit_creation_date              2020-02-04
_audit_creation_method            'Pymatgen'
_symmetry_space_group_name_H-M    'P1'
_symmetry_Int_Tables_number       1
loop_
_symmetry_equiv_pos_as_xyz
  x,y,z
_cell_length_a                    19.985
_cell_length_b                    19.985
_cell_length_c                    36.079
_cell_angle_alpha                 90.0
_cell_angle_beta                 90.0
_cell_angle_gamma                 90.0
loop_
_atom_site_label
_atom_site_type_symbol
_atom_site_fract_x
_atom_site_fract_y
_atom_site_fract_z
V1     V     0.0097   0.8196   0.1331
V2     V     0.0097   0.6804   0.8669
V3     V     0.9903   0.3196   0.1331
V4     V     0.9903   0.1804   0.8669
V5     V     0.3196   0.5097   0.6331
V6     V     0.1804   0.5097   0.3669
V7     V     0.6804   0.4903   0.3669
V8     V     0.8196   0.4903   0.6331
V9     V     0.6804   0.0097   0.6331
V10     V     0.8196   0.0097   0.3669
V11     V     0.3196   0.9903   0.3669
V12     V     0.1804   0.9903   0.6331
V13     V     0.4903   0.6804   0.1331
V14     V     0.4903   0.8196   0.8669
V15     V     0.5097   0.1804   0.1331
V16     V     0.5097   0.3196   0.8669
loop_
_geom_bond_atom_site_label_1
_geom_bond_atom_site_label_2
_geom_bond_distance
_geom_bond_site_symmetry_2
_ccdc_geom_bond_type
V1     V2    10.0   1_554     S
V1     V3    10.0   1_455     S
V1     V3    10.0   1_465     S
V1     V10    10.0   1_465     S
V1     V13    10.0   .     S
V2     V1    10.0   1_556     S
V2     V4    10.0   1_465     S
V2     V4    10.0   1_455     S
V2     V8    10.0   1_455     S
V2     V14    10.0   .     S
V3     V4    10.0   1_554     S
V3     V1    10.0   1_655     S
V3     V1    10.0   1_645     S
V3     V6    10.0   1_655     S
V3     V15    10.0   .     S
V4     V3    10.0   1_556     S
V4     V2    10.0   1_645     S
V4     V2    10.0   1_655     S
V4     V12    10.0   1_645     S
V4     V16    10.0   .     S
V5     V6    10.0   .     S
V5     V8    10.0   .     S
V5     V8    10.0   1_455     S
V5     V16    10.0   .     S
V5     V12    10.0   .     S
V6     V7    10.0   1_455     S
V6     V7    10.0   .     S
V6     V3    10.0   1_455     S
V6     V11    10.0   .     S
V7     V8    10.0   .     S
V7     V6    10.0   1_655     S
V7     V13    10.0   .     S
V7     V10    10.0   .     S
V8     V5    10.0   1_655     S
V8     V2    10.0   1_655     S
V8     V9    10.0   .     S
V9     V10    10.0   .     S
V9     V12    10.0   1_645     S
V9     V12    10.0   1_545     S
V9     V14    10.0   1_545     S
V10     V11    10.0   1_545     S
V10     V11    10.0   1_645     S
V10     V1    10.0   1_645     S
V11     V12    10.0   .     S
V11     V10    10.0   1_565     S
V11     V10    10.0   1_465     S
V11     V15    10.0   1_565     S
V12     V9    10.0   1_465     S
V12     V9    10.0   1_565     S
V12     V4    10.0   1_465     S
V13     V14    10.0   1_554     S
V13     V15    10.0   1_565     S
V13     V15    10.0   .     S
V14     V9    10.0   1_565     S
V14     V13    10.0   1_556     S
V14     V16    10.0   .     S
V14     V16    10.0   1_565     S
V15     V16    10.0   1_554     S
V15     V13    10.0   1_545     S
V15     V11    10.0   1_545     S
V16     V15    10.0   1_556     S
V16     V14    10.0   1_545     S
