data_zfn
_audit_creation_date              2020-02-04
_audit_creation_method            'Pymatgen'
_symmetry_space_group_name_H-M    'P1'
_symmetry_Int_Tables_number       1
loop_
_symmetry_equiv_pos_as_xyz
  x,y,z
_cell_length_a                    47.2306
_cell_length_b                    47.2306
_cell_length_c                    20.0
_cell_angle_alpha                 90.0
_cell_angle_beta                 90.0
_cell_angle_gamma                 90.0
loop_
_atom_site_label
_atom_site_type_symbol
_atom_site_fract_x
_atom_site_fract_y
_atom_site_fract_z
V1     V     0.6465   0.9967   0.0729
V2     V     0.6465   0.9967   0.5729
V3     V     0.8535   0.9967   0.1771
V4     V     0.8535   0.9967   0.6771
V5     V     0.9967   0.6465   0.4271
V6     V     0.9967   0.6465   0.9271
V7     V     0.9967   0.8535   0.3229
V8     V     0.9967   0.8535   0.8229
V9     V     0.6465   0.5033   0.1771
V10     V     0.6465   0.5033   0.6771
V11     V     0.8535   0.5033   0.0729
V12     V     0.8535   0.5033   0.5729
V13     V     0.5033   0.6465   0.3229
V14     V     0.5033   0.6465   0.8229
V15     V     0.5033   0.8535   0.4271
V16     V     0.5033   0.8535   0.9271
V17     V     0.1465   0.0033   0.3229
V18     V     0.1465   0.0033   0.8229
V19     V     0.3535   0.0033   0.4271
V20     V     0.3535   0.0033   0.9271
V21     V     0.4967   0.1465   0.0729
V22     V     0.4967   0.1465   0.5729
V23     V     0.4967   0.3535   0.1771
V24     V     0.4967   0.3535   0.6771
V25     V     0.1465   0.4967   0.4271
V26     V     0.1465   0.4967   0.9271
V27     V     0.3535   0.4967   0.3229
V28     V     0.3535   0.4967   0.8229
V29     V     0.0033   0.1465   0.1771
V30     V     0.0033   0.1465   0.6771
V31     V     0.0033   0.3535   0.0729
V32     V     0.0033   0.3535   0.5729
loop_
_geom_bond_atom_site_label_1
_geom_bond_atom_site_label_2
_geom_bond_distance
_geom_bond_site_symmetry_2
_ccdc_geom_bond_type
V1     V3    10.0   .     S
V1     V2    10.0   .     S
V1     V2    10.0   1_554     S
V1     V16    10.0   1_554     S
V1     V21    10.0   1_565     S
V2     V4    10.0   .     S
V2     V1    10.0   1_556     S
V2     V15    10.0   .     S
V2     V22    10.0   1_565     S
V3     V4    10.0   .     S
V3     V4    10.0   1_554     S
V3     V7    10.0   .     S
V3     V29    10.0   1_665     S
V4     V3    10.0   1_556     S
V4     V8    10.0   .     S
V4     V30    10.0   1_665     S
V5     V7    10.0   .     S
V5     V6    10.0   1_554     S
V5     V6    10.0   .     S
V5     V12    10.0   .     S
V5     V25    10.0   1_655     S
V6     V8    10.0   .     S
V6     V5    10.0   1_556     S
V6     V11    10.0   1_556     S
V6     V26    10.0   1_655     S
V7     V8    10.0   1_554     S
V7     V8    10.0   .     S
V7     V17    10.0   1_665     S
V8     V7    10.0   1_556     S
V8     V18    10.0   1_665     S
V9     V11    10.0   .     S
V9     V10    10.0   .     S
V9     V10    10.0   1_554     S
V9     V13    10.0   .     S
V9     V23    10.0   .     S
V10     V12    10.0   .     S
V10     V9    10.0   1_556     S
V10     V14    10.0   .     S
V10     V24    10.0   .     S
V11     V12    10.0   .     S
V11     V12    10.0   1_554     S
V11     V6    10.0   1_554     S
V11     V31    10.0   1_655     S
V12     V11    10.0   1_556     S
V12     V32    10.0   1_655     S
V13     V15    10.0   .     S
V13     V14    10.0   1_554     S
V13     V14    10.0   .     S
V13     V27    10.0   .     S
V14     V16    10.0   .     S
V14     V13    10.0   1_556     S
V14     V28    10.0   .     S
V15     V16    10.0   1_554     S
V15     V16    10.0   .     S
V15     V19    10.0   1_565     S
V16     V15    10.0   1_556     S
V16     V1    10.0   1_556     S
V16     V20    10.0   1_565     S
V17     V19    10.0   .     S
V17     V18    10.0   1_554     S
V17     V18    10.0   .     S
V17     V29    10.0   .     S
V17     V7    10.0   1_445     S
V18     V20    10.0   .     S
V18     V17    10.0   1_556     S
V18     V30    10.0   .     S
V18     V8    10.0   1_445     S
V19     V20    10.0   1_554     S
V19     V20    10.0   .     S
V19     V22    10.0   .     S
V19     V15    10.0   1_545     S
V20     V19    10.0   1_556     S
V20     V21    10.0   1_556     S
V20     V16    10.0   1_545     S
V21     V23    10.0   .     S
V21     V22    10.0   .     S
V21     V22    10.0   1_554     S
V21     V20    10.0   1_554     S
V21     V1    10.0   1_545     S
V22     V24    10.0   .     S
V22     V21    10.0   1_556     S
V22     V2    10.0   1_545     S
V23     V24    10.0   .     S
V23     V24    10.0   1_554     S
V23     V27    10.0   .     S
V24     V23    10.0   1_556     S
V24     V28    10.0   .     S
V25     V27    10.0   .     S
V25     V26    10.0   1_554     S
V25     V26    10.0   .     S
V25     V32    10.0   .     S
V25     V5    10.0   1_455     S
V26     V28    10.0   .     S
V26     V25    10.0   1_556     S
V26     V31    10.0   1_556     S
V26     V6    10.0   1_455     S
V27     V28    10.0   1_554     S
V27     V28    10.0   .     S
V28     V27    10.0   1_556     S
V29     V31    10.0   .     S
V29     V30    10.0   .     S
V29     V30    10.0   1_554     S
V29     V3    10.0   1_445     S
V30     V32    10.0   .     S
V30     V29    10.0   1_556     S
V30     V4    10.0   1_445     S
V31     V32    10.0   .     S
V31     V32    10.0   1_554     S
V31     V26    10.0   1_554     S
V31     V11    10.0   1_455     S
V32     V31    10.0   1_556     S
V32     V12    10.0   1_455     S
