data_zfv
_audit_creation_date              2020-02-04
_audit_creation_method            'Pymatgen'
_symmetry_space_group_name_H-M    'P1'
_symmetry_Int_Tables_number       1
loop_
_symmetry_equiv_pos_as_xyz
  x,y,z
_cell_length_a                    47.9164
_cell_length_b                    47.9164
_cell_length_c                    20.0
_cell_angle_alpha                 90.0
_cell_angle_beta                 90.0
_cell_angle_gamma                 90.0
loop_
_atom_site_label
_atom_site_type_symbol
_atom_site_fract_x
_atom_site_fract_y
_atom_site_fract_z
V1     V     0.8532   0.25   0.4119
V2     V     0.8532   0.25   0.9119
V3     V     0.6468   0.25   0.3381
V4     V     0.6468   0.25   0.8381
V5     V     0.5   0.3968   0.2869
V6     V     0.5   0.3968   0.7869
V7     V     0.5   0.6032   0.2131
V8     V     0.5   0.6032   0.7131
V9     V     0.6468   0.75   0.1619
V10     V     0.6468   0.75   0.6619
V11     V     0.8532   0.75   0.0881
V12     V     0.8532   0.75   0.5881
V13     V     0.0   0.8968   0.0369
V14     V     0.0   0.8968   0.5369
V15     V     0.0   0.1032   0.4631
V16     V     0.0   0.1032   0.9631
V17     V     0.1468   0.25   0.4119
V18     V     0.1468   0.25   0.9119
V19     V     0.3532   0.25   0.3381
V20     V     0.3532   0.25   0.8381
V21     V     0.0   0.6032   0.0369
V22     V     0.0   0.6032   0.5369
V23     V     0.0   0.3968   0.4631
V24     V     0.0   0.3968   0.9631
V25     V     0.5   0.8968   0.2131
V26     V     0.5   0.8968   0.7131
V27     V     0.5   0.1032   0.2869
V28     V     0.5   0.1032   0.7869
V29     V     0.1468   0.75   0.0881
V30     V     0.1468   0.75   0.5881
V31     V     0.3532   0.75   0.1619
V32     V     0.3532   0.75   0.6619
loop_
_geom_bond_atom_site_label_1
_geom_bond_atom_site_label_2
_geom_bond_distance
_geom_bond_site_symmetry_2
_ccdc_geom_bond_type
V1     V3    10.0   .     S
V1     V2    10.0   1_554     S
V1     V2    10.0   .     S
V1     V23    10.0   1_655     S
V1     V15    10.0   1_655     S
V2     V4    10.0   .     S
V2     V1    10.0   1_556     S
V2     V24    10.0   1_655     S
V2     V16    10.0   1_655     S
V3     V4    10.0   1_554     S
V3     V4    10.0   .     S
V3     V27    10.0   .     S
V3     V5    10.0   .     S
V4     V3    10.0   1_556     S
V4     V28    10.0   .     S
V4     V6    10.0   .     S
V5     V7    10.0   .     S
V5     V6    10.0   1_554     S
V5     V6    10.0   .     S
V5     V19    10.0   .     S
V6     V8    10.0   .     S
V6     V5    10.0   1_556     S
V6     V20    10.0   .     S
V7     V8    10.0   .     S
V7     V8    10.0   1_554     S
V7     V9    10.0   .     S
V7     V31    10.0   .     S
V8     V7    10.0   1_556     S
V8     V10    10.0   .     S
V8     V32    10.0   .     S
V9     V11    10.0   .     S
V9     V10    10.0   .     S
V9     V10    10.0   1_554     S
V9     V25    10.0   .     S
V10     V12    10.0   .     S
V10     V9    10.0   1_556     S
V10     V26    10.0   .     S
V11     V12    10.0   .     S
V11     V12    10.0   1_554     S
V11     V13    10.0   1_655     S
V11     V21    10.0   1_655     S
V12     V11    10.0   1_556     S
V12     V14    10.0   1_655     S
V12     V22    10.0   1_655     S
V13     V16    10.0   1_564     S
V13     V14    10.0   .     S
V13     V14    10.0   1_554     S
V13     V11    10.0   1_455     S
V13     V29    10.0   .     S
V14     V15    10.0   1_565     S
V14     V13    10.0   1_556     S
V14     V12    10.0   1_455     S
V14     V30    10.0   .     S
V15     V14    10.0   1_545     S
V15     V16    10.0   1_554     S
V15     V16    10.0   .     S
V15     V17    10.0   .     S
V15     V1    10.0   1_455     S
V16     V13    10.0   1_546     S
V16     V15    10.0   1_556     S
V16     V18    10.0   .     S
V16     V2    10.0   1_455     S
V17     V19    10.0   .     S
V17     V18    10.0   1_554     S
V17     V18    10.0   .     S
V17     V23    10.0   .     S
V18     V20    10.0   .     S
V18     V17    10.0   1_556     S
V18     V24    10.0   .     S
V19     V20    10.0   1_554     S
V19     V20    10.0   .     S
V19     V27    10.0   .     S
V20     V19    10.0   1_556     S
V20     V28    10.0   .     S
V21     V24    10.0   1_554     S
V21     V22    10.0   .     S
V21     V22    10.0   1_554     S
V21     V11    10.0   1_455     S
V21     V29    10.0   .     S
V22     V23    10.0   .     S
V22     V21    10.0   1_556     S
V22     V12    10.0   1_455     S
V22     V30    10.0   .     S
V23     V24    10.0   1_554     S
V23     V24    10.0   .     S
V23     V1    10.0   1_455     S
V24     V21    10.0   1_556     S
V24     V23    10.0   1_556     S
V24     V2    10.0   1_455     S
V25     V27    10.0   1_565     S
V25     V26    10.0   .     S
V25     V26    10.0   1_554     S
V25     V31    10.0   .     S
V26     V28    10.0   1_565     S
V26     V25    10.0   1_556     S
V26     V32    10.0   .     S
V27     V25    10.0   1_545     S
V27     V28    10.0   1_554     S
V27     V28    10.0   .     S
V28     V26    10.0   1_545     S
V28     V27    10.0   1_556     S
V29     V31    10.0   .     S
V29     V30    10.0   .     S
V29     V30    10.0   1_554     S
V30     V32    10.0   .     S
V30     V29    10.0   1_556     S
V31     V32    10.0   .     S
V31     V32    10.0   1_554     S
V32     V31    10.0   1_556     S
