data_zfw
_audit_creation_date              2020-02-04
_audit_creation_method            'Pymatgen'
_symmetry_space_group_name_H-M    'P1'
_symmetry_Int_Tables_number       1
loop_
_symmetry_equiv_pos_as_xyz
  x,y,z
_cell_length_a                    44.8536
_cell_length_b                    44.8536
_cell_length_c                    20.0
_cell_angle_alpha                 90.0
_cell_angle_beta                 90.0
_cell_angle_gamma                 90.0
loop_
_atom_site_label
_atom_site_type_symbol
_atom_site_fract_x
_atom_site_fract_y
_atom_site_fract_z
V1     V     0.6493   0.25   0.4824
V2     V     0.6493   0.25   0.9824
V3     V     0.3507   0.25   0.4824
V4     V     0.3507   0.25   0.9824
V5     V     0.5   0.1007   0.1426
V6     V     0.5   0.1007   0.6426
V7     V     0.5   0.3993   0.1426
V8     V     0.5   0.3993   0.6426
V9     V     0.0   0.1007   0.1074
V10     V     0.0   0.1007   0.6074
V11     V     0.8507   0.25   0.2676
V12     V     0.8507   0.25   0.7676
V13     V     0.0   0.3993   0.1074
V14     V     0.0   0.3993   0.6074
V15     V     0.1493   0.25   0.2676
V16     V     0.1493   0.25   0.7676
V17     V     0.0   0.6007   0.3926
V18     V     0.0   0.6007   0.8926
V19     V     0.0   0.8993   0.3926
V20     V     0.0   0.8993   0.8926
V21     V     0.8507   0.75   0.2324
V22     V     0.8507   0.75   0.7324
V23     V     0.1493   0.75   0.2324
V24     V     0.1493   0.75   0.7324
V25     V     0.3507   0.75   0.0176
V26     V     0.3507   0.75   0.5176
V27     V     0.6493   0.75   0.0176
V28     V     0.6493   0.75   0.5176
V29     V     0.5   0.6007   0.3574
V30     V     0.5   0.6007   0.8574
V31     V     0.5   0.8993   0.3574
V32     V     0.5   0.8993   0.8574
loop_
_geom_bond_atom_site_label_1
_geom_bond_atom_site_label_2
_geom_bond_distance
_geom_bond_site_symmetry_2
_ccdc_geom_bond_type
V1     V6    10.0   .     S
V1     V8    10.0   .     S
V1     V2    10.0   1_554     S
V1     V2    10.0   .     S
V1     V11    10.0   .     S
V2     V5    10.0   1_556     S
V2     V7    10.0   1_556     S
V2     V1    10.0   1_556     S
V2     V12    10.0   .     S
V3     V6    10.0   .     S
V3     V8    10.0   .     S
V3     V4    10.0   1_554     S
V3     V4    10.0   .     S
V3     V15    10.0   .     S
V4     V5    10.0   1_556     S
V4     V7    10.0   1_556     S
V4     V3    10.0   1_556     S
V4     V16    10.0   .     S
V5     V2    10.0   1_554     S
V5     V4    10.0   1_554     S
V5     V6    10.0   .     S
V5     V6    10.0   1_554     S
V5     V31    10.0   1_545     S
V6     V5    10.0   1_556     S
V6     V32    10.0   1_545     S
V7     V2    10.0   1_554     S
V7     V4    10.0   1_554     S
V7     V8    10.0   .     S
V7     V8    10.0   1_554     S
V7     V29    10.0   .     S
V8     V7    10.0   1_556     S
V8     V30    10.0   .     S
V9     V11    10.0   1_455     S
V9     V15    10.0   .     S
V9     V10    10.0   .     S
V9     V10    10.0   1_554     S
V9     V20    10.0   1_544     S
V10     V12    10.0   1_455     S
V10     V16    10.0   .     S
V10     V9    10.0   1_556     S
V10     V19    10.0   1_545     S
V11     V9    10.0   1_655     S
V11     V13    10.0   1_655     S
V11     V12    10.0   1_554     S
V11     V12    10.0   .     S
V12     V10    10.0   1_655     S
V12     V14    10.0   1_655     S
V12     V11    10.0   1_556     S
V13     V11    10.0   1_455     S
V13     V15    10.0   .     S
V13     V14    10.0   .     S
V13     V14    10.0   1_554     S
V13     V18    10.0   1_554     S
V14     V12    10.0   1_455     S
V14     V16    10.0   .     S
V14     V13    10.0   1_556     S
V14     V17    10.0   .     S
V15     V16    10.0   1_554     S
V15     V16    10.0   .     S
V16     V15    10.0   1_556     S
V17     V21    10.0   1_455     S
V17     V23    10.0   .     S
V17     V18    10.0   1_554     S
V17     V18    10.0   .     S
V18     V13    10.0   1_556     S
V18     V22    10.0   1_455     S
V18     V24    10.0   .     S
V18     V17    10.0   1_556     S
V19     V10    10.0   1_565     S
V19     V21    10.0   1_455     S
V19     V23    10.0   .     S
V19     V20    10.0   1_554     S
V19     V20    10.0   .     S
V20     V9    10.0   1_566     S
V20     V22    10.0   1_455     S
V20     V24    10.0   .     S
V20     V19    10.0   1_556     S
V21     V17    10.0   1_655     S
V21     V19    10.0   1_655     S
V21     V22    10.0   .     S
V21     V22    10.0   1_554     S
V21     V27    10.0   .     S
V22     V18    10.0   1_655     S
V22     V20    10.0   1_655     S
V22     V21    10.0   1_556     S
V22     V28    10.0   .     S
V23     V24    10.0   .     S
V23     V24    10.0   1_554     S
V23     V25    10.0   .     S
V24     V23    10.0   1_556     S
V24     V26    10.0   .     S
V25     V32    10.0   1_554     S
V25     V30    10.0   1_554     S
V25     V26    10.0   .     S
V25     V26    10.0   1_554     S
V26     V31    10.0   .     S
V26     V29    10.0   .     S
V26     V25    10.0   1_556     S
V27     V32    10.0   1_554     S
V27     V30    10.0   1_554     S
V27     V28    10.0   .     S
V27     V28    10.0   1_554     S
V28     V31    10.0   .     S
V28     V29    10.0   .     S
V28     V27    10.0   1_556     S
V29     V30    10.0   1_554     S
V29     V30    10.0   .     S
V30     V27    10.0   1_556     S
V30     V25    10.0   1_556     S
V30     V29    10.0   1_556     S
V31     V5    10.0   1_565     S
V31     V32    10.0   1_554     S
V31     V32    10.0   .     S
V32     V6    10.0   1_565     S
V32     V25    10.0   1_556     S
V32     V27    10.0   1_556     S
V32     V31    10.0   1_556     S
