data_zlla
_audit_creation_date              2020-02-04
_audit_creation_method            'Pymatgen'
_symmetry_space_group_name_H-M    'P1'
_symmetry_Int_Tables_number       1
loop_
_symmetry_equiv_pos_as_xyz
  x,y,z
_cell_length_a                    47.3315
_cell_length_b                    47.3315
_cell_length_c                    34.2185
_cell_angle_alpha                 90.0
_cell_angle_beta                 90.0
_cell_angle_gamma                 90.0
loop_
_atom_site_label
_atom_site_type_symbol
_atom_site_fract_x
_atom_site_fract_y
_atom_site_fract_z
V1     V     0.8508   0.0   0.8538
V2     V     0.0   0.8508   0.8538
V3     V     0.0   0.1492   0.8538
V4     V     0.1492   0.0   0.8538
Er5     Er     0.0   0.0   0.6468
V6     V     0.0   0.8508   0.1462
V7     V     0.8508   0.0   0.1462
V8     V     0.0   0.1492   0.1462
V9     V     0.1492   0.0   0.1462
Er10     Er     0.0   0.0   0.3532
Ti11     Ti     0.3532   0.0   0.2228
Ti12     Ti     0.6467   0.0   0.2228
Ti13     Ti     0.5   0.1468   0.2772
Ti14     Ti     0.5   0.8532   0.2772
Ti15     Ti     0.6467   0.0   0.7772
Ti16     Ti     0.3532   0.0   0.7772
Ti17     Ti     0.5   0.1468   0.7228
Ti18     Ti     0.5   0.8532   0.7228
Ti19     Ti     0.0   0.3532   0.7772
Ti20     Ti     0.0   0.6467   0.7772
Ti21     Ti     0.1468   0.5   0.7228
Ti22     Ti     0.8532   0.5   0.7228
Ti23     Ti     0.0   0.6467   0.2228
Ti24     Ti     0.0   0.3532   0.2228
Ti25     Ti     0.1468   0.5   0.2772
Ti26     Ti     0.8532   0.5   0.2772
V27     V     0.5   0.6492   0.6462
V28     V     0.6492   0.5   0.6462
V29     V     0.3508   0.5   0.6462
V30     V     0.5   0.3508   0.6462
Er31     Er     0.5   0.5   0.8532
V32     V     0.5   0.6492   0.3538
V33     V     0.6492   0.5   0.3538
V34     V     0.3508   0.5   0.3538
V35     V     0.5   0.3508   0.3538
Er36     Er     0.5   0.5   0.1468
loop_
_geom_bond_atom_site_label_1
_geom_bond_atom_site_label_2
_geom_bond_distance
_geom_bond_site_symmetry_2
_ccdc_geom_bond_type
V1     V3    9.984   1_655     S
V1     V2    9.984   1_645     S
V1     Er5    10.001   1_655     S
V1     V7    10.002   1_556     S
V1     Ti15    10.009   .     S
V2     V4    9.984   1_565     S
V2     V1    9.984   1_465     S
V2     Er5    10.001   1_565     S
V2     V6    10.002   1_556     S
V2     Ti20    10.009   .     S
V3     V1    9.984   1_455     S
V3     V4    9.984   .     S
V3     Er5    10.001   .     S
V3     V8    10.002   1_556     S
V3     Ti19    10.009   .     S
V4     V2    9.984   1_545     S
V4     Er5    10.001   .     S
V4     V9    10.002   1_556     S
V4     Ti16    10.009   .     S
Er5     V2    10.001   1_545     S
Er5     V1    10.001   1_455     S
Er5     Er10    10.049   .     S
V6     V9    9.984   1_565     S
V6     V7    9.984   1_465     S
V6     Er10    10.001   1_565     S
V6     V2    10.002   1_554     S
V6     Ti23    10.009   .     S
V7     V8    9.984   1_655     S
V7     V6    9.984   1_645     S
V7     Er10    10.001   1_655     S
V7     V1    10.002   1_554     S
V7     Ti12    10.009   .     S
V8     V7    9.984   1_455     S
V8     V9    9.984   .     S
V8     Er10    10.001   .     S
V8     V3    10.002   1_554     S
V8     Ti24    10.009   .     S
V9     V6    9.984   1_545     S
V9     Er10    10.001   .     S
V9     V4    10.002   1_554     S
V9     Ti11    10.009   .     S
Er10     V7    10.001   1_455     S
Er10     V6    10.001   1_545     S
Ti11     Ti14    9.998   1_545     S
Ti11     Ti13    9.998   .     S
Ti12     Ti14    9.998   1_545     S
Ti12     Ti13    9.998   .     S
Ti13     V35    10.009   .     S
Ti14     Ti11    9.998   1_565     S
Ti14     Ti12    9.998   1_565     S
Ti14     V32    10.009   .     S
Ti15     Ti18    9.998   1_545     S
Ti15     Ti17    9.998   .     S
Ti16     Ti18    9.998   1_545     S
Ti16     Ti17    9.998   .     S
Ti17     V30    10.009   .     S
Ti18     Ti15    9.998   1_565     S
Ti18     Ti16    9.998   1_565     S
Ti18     V27    10.009   .     S
Ti19     Ti22    9.998   1_455     S
Ti19     Ti21    9.998   .     S
Ti20     Ti22    9.998   1_455     S
Ti20     Ti21    9.998   .     S
Ti21     V29    10.009   .     S
Ti22     Ti19    9.998   1_655     S
Ti22     Ti20    9.998   1_655     S
Ti22     V28    10.009   .     S
Ti23     Ti26    9.998   1_455     S
Ti23     Ti25    9.998   .     S
Ti24     Ti26    9.998   1_455     S
Ti24     Ti25    9.998   .     S
Ti25     V34    10.009   .     S
Ti26     Ti23    9.998   1_655     S
Ti26     Ti24    9.998   1_655     S
Ti26     V33    10.009   .     S
V27     V28    9.984   .     S
V27     V29    9.984   .     S
V27     Er31    10.001   .     S
V27     V32    10.002   .     S
V28     V30    9.984   .     S
V28     Er31    10.001   .     S
V28     V33    10.002   .     S
V29     V30    9.984   .     S
V29     Er31    10.001   .     S
V29     V34    10.002   .     S
V30     Er31    10.001   .     S
V30     V35    10.002   .     S
Er31     Er36    10.049   1_556     S
V32     V34    9.984   .     S
V32     V33    9.984   .     S
V32     Er36    10.001   .     S
V33     V35    9.984   .     S
V33     Er36    10.001   .     S
V34     V35    9.984   .     S
V34     Er36    10.001   .     S
V35     Er36    10.001   .     S
Er36     Er31    10.049   1_554     S
