data_zrca
_audit_creation_date              2020-02-04
_audit_creation_method            'Pymatgen'
_symmetry_space_group_name_H-M    'P1'
_symmetry_Int_Tables_number       1
loop_
_symmetry_equiv_pos_as_xyz
  x,y,z
_cell_length_a                    73.7634
_cell_length_b                    73.7634
_cell_length_c                    72.1652
_cell_angle_alpha                 90.0
_cell_angle_beta                 90.0
_cell_angle_gamma                 90.0
loop_
_atom_site_label
_atom_site_type_symbol
_atom_site_fract_x
_atom_site_fract_y
_atom_site_fract_z
H1     H     0.66   0.75   0.6648
H2     H     0.0   0.09   0.5852
H3     H     0.84   0.25   0.1648
H4     H     0.0   0.41   0.5852
H5     H     0.16   0.25   0.1648
H6     H     0.34   0.75   0.6648
H7     H     0.5   0.59   0.0852
H8     H     0.5   0.91   0.0852
Er9     Er     0.6593   0.25   0.4738
Ti10     Ti     0.7771   0.25   0.4051
Er11     Er     0.0   0.5907   0.2762
Ti12     Ti     0.0   0.4729   0.3449
Er13     Er     0.3407   0.25   0.4738
Ti14     Ti     0.2229   0.25   0.4051
S15     S     0.9322   0.25   0.2664
S16     S     0.0678   0.25   0.2664
Ce17     Ce     0.9126   0.25   0.4035
Ce18     Ce     0.0   0.3374   0.3465
Ce19     Ce     0.0874   0.25   0.4035
Ce20     Ce     0.0   0.1626   0.3465
S21     S     0.0   0.1822   0.4836
S22     S     0.0   0.3178   0.4836
Er23     Er     0.0   0.9093   0.2762
Ti24     Ti     0.0   0.0271   0.3449
V25     V     0.5678   0.25   0.576
V26     V     0.4322   0.25   0.576
V27     V     0.5   0.3178   0.674
V28     V     0.5   0.1822   0.674
Er29     Er     0.1593   0.75   0.9738
Ti30     Ti     0.2771   0.75   0.9051
Er31     Er     0.5   0.4093   0.7762
Ti32     Ti     0.5   0.5271   0.8449
Er33     Er     0.5   0.0907   0.7762
Ti34     Ti     0.5   0.9729   0.8449
S35     S     0.5   0.8178   0.9836
S36     S     0.5   0.6822   0.9836
Ce37     Ce     0.5   0.6626   0.8465
Ce38     Ce     0.5874   0.75   0.9035
Ce39     Ce     0.4126   0.75   0.9035
Ce40     Ce     0.5   0.8374   0.8465
S41     S     0.5678   0.75   0.7664
S42     S     0.4322   0.75   0.7664
Er43     Er     0.8407   0.75   0.9738
Ti44     Ti     0.7229   0.75   0.9051
V45     V     0.9322   0.75   0.076
V46     V     0.0678   0.75   0.076
V47     V     0.0   0.8178   0.174
V48     V     0.0   0.6822   0.174
H49     H     0.0   0.59   0.4148
H50     H     0.84   0.75   0.8352
H51     H     0.66   0.25   0.3352
H52     H     0.0   0.91   0.4148
H53     H     0.16   0.75   0.8352
H54     H     0.34   0.25   0.3352
H55     H     0.5   0.09   0.9148
H56     H     0.5   0.41   0.9148
V57     V     0.5   0.8178   0.326
V58     V     0.5   0.6822   0.326
V59     V     0.5678   0.75   0.424
V60     V     0.4322   0.75   0.424
Er61     Er     0.6593   0.75   0.5262
Ti62     Ti     0.7771   0.75   0.5949
Er63     Er     0.3407   0.75   0.5262
Ti64     Ti     0.2229   0.75   0.5949
Er65     Er     0.0   0.4093   0.7238
Ti66     Ti     0.0   0.5271   0.6551
S67     S     0.0   0.8178   0.5164
S68     S     0.0   0.6822   0.5164
Ce69     Ce     0.9126   0.75   0.5965
Ce70     Ce     0.0   0.6626   0.6535
Ce71     Ce     0.0   0.8374   0.6535
Ce72     Ce     0.0874   0.75   0.5965
S73     S     0.9322   0.75   0.7336
S74     S     0.0678   0.75   0.7336
Er75     Er     0.0   0.0907   0.7238
Ti76     Ti     0.0   0.9729   0.6551
V77     V     0.0678   0.25   0.924
V78     V     0.9322   0.25   0.924
V79     V     0.0   0.1822   0.826
V80     V     0.0   0.3178   0.826
Er81     Er     0.5   0.5907   0.2238
Ti82     Ti     0.5   0.4729   0.1551
Er83     Er     0.1593   0.25   0.0262
Ti84     Ti     0.2771   0.25   0.0949
Er85     Er     0.5   0.9093   0.2238
Ti86     Ti     0.5   0.0271   0.1551
S87     S     0.5678   0.25   0.2336
S88     S     0.4322   0.25   0.2336
Ce89     Ce     0.4126   0.25   0.0965
Ce90     Ce     0.5   0.3374   0.1535
Ce91     Ce     0.5874   0.25   0.0965
Ce92     Ce     0.5   0.1626   0.1535
S93     S     0.5   0.1822   0.0164
S94     S     0.5   0.3178   0.0164
Er95     Er     0.8407   0.25   0.0262
Ti96     Ti     0.7229   0.25   0.0949
loop_
_geom_bond_atom_site_label_1
_geom_bond_atom_site_label_2
_geom_bond_distance
_geom_bond_site_symmetry_2
_ccdc_geom_bond_type
H1     S41    10.0   .     S
H1     Er61    10.0   .     S
H1     Ti62    10.0   .     S
H2     S21    10.0   .     S
H2     Er75    10.0   .     S
H2     Ti76    10.0   1_545     S
H3     S15    10.0   .     S
H3     Er95    10.0   .     S
H3     Ti96    10.0   .     S
H4     S22    10.0   .     S
H4     Er65    10.0   .     S
H4     Ti66    10.0   .     S
H5     S16    10.0   .     S
H5     Er83    10.0   .     S
H5     Ti84    10.0   .     S
H6     S42    10.0   .     S
H6     Er63    10.0   .     S
H6     Ti64    10.0   .     S
H7     S36    10.0   1_554     S
H7     Er81    10.0   .     S
H7     Ti82    10.0   .     S
H8     S35    10.0   1_554     S
H8     Er85    10.0   .     S
H8     Ti86    10.0   1_565     S
Er9     H51    10.0   .     S
Er9     Ti10    10.0   .     S
Er9     V25    10.0   .     S
Ti10     H51    10.0   .     S
Ti10     Ce17    10.0   .     S
Er11     H49    10.0   .     S
Er11     Ti12    10.0   .     S
Er11     V48    10.0   .     S
Ti12     H49    10.0   .     S
Ti12     Ce18    10.0   .     S
Er13     Ti14    10.0   .     S
Er13     H54    10.0   .     S
Er13     V26    10.0   .     S
Ti14     H54    10.0   .     S
Ti14     Ce19    10.0   .     S
S15     Ce18    10.0   1_655     S
S15     Ce20    10.0   1_655     S
S15     S16    9.999   1_655     S
S15     Ce17    10.0   .     S
S16     Ce18    10.0   .     S
S16     Ce20    10.0   .     S
S16     S15    9.999   1_455     S
S16     Ce19    10.0   .     S
Ce17     Ce20    9.999   1_655     S
Ce17     Ce18    9.999   1_655     S
Ce17     S21    10.0   1_655     S
Ce17     S22    10.0   1_655     S
Ce18     S15    10.0   1_455     S
Ce18     Ce17    9.999   1_455     S
Ce18     S22    10.0   .     S
Ce18     Ce19    9.999   .     S
Ce19     Ce20    9.999   .     S
Ce19     S21    10.0   .     S
Ce19     S22    10.0   .     S
Ce20     S15    10.0   1_455     S
Ce20     Ce17    9.999   1_455     S
Ce20     S21    10.0   .     S
Ce20     Ti24    10.0   .     S
S21     Ce17    10.0   1_455     S
S21     S22    9.999   .     S
S22     Ce17    10.0   1_455     S
Er23     H52    10.0   .     S
Er23     Ti24    10.0   1_565     S
Er23     V47    10.0   .     S
Ti24     Er23    10.0   1_545     S
Ti24     H52    10.0   1_545     S
V25     V26    9.999   .     S
V25     V28    9.999   .     S
V25     V27    9.999   .     S
V26     V28    9.999   .     S
V26     V27    9.999   .     S
V27     V28    9.999   .     S
V27     Er31    10.0   .     S
V28     Er33    10.0   .     S
Er29     H53    10.0   .     S
Er29     Ti30    10.0   .     S
Er29     V46    10.0   1_556     S
Ti30     H53    10.0   .     S
Ti30     Ce39    10.0   .     S
Er31     H56    10.0   .     S
Er31     Ti32    10.0   .     S
Ti32     H56    10.0   .     S
Ti32     Ce37    10.0   .     S
Er33     H55    10.0   .     S
Er33     Ti34    10.0   1_545     S
Ti34     Er33    10.0   1_565     S
Ti34     H55    10.0   1_565     S
Ti34     Ce40    10.0   .     S
S35     H8    10.0   1_556     S
S35     Ce38    10.0   .     S
S35     Ce39    10.0   .     S
S35     S36    9.999   .     S
S35     Ce40    10.0   .     S
S36     H7    10.0   1_556     S
S36     Ce38    10.0   .     S
S36     Ce39    10.0   .     S
S36     Ce37    10.0   .     S
Ce37     Ce38    9.999   .     S
Ce37     Ce39    9.999   .     S
Ce37     S41    10.0   .     S
Ce37     S42    10.0   .     S
Ce38     S41    10.0   .     S
Ce38     Ce40    9.999   .     S
Ce38     Ti44    10.0   .     S
Ce39     S42    10.0   .     S
Ce39     Ce40    9.999   .     S
Ce40     S42    10.0   .     S
Ce40     S41    10.0   .     S
S41     S42    9.999   .     S
Er43     H50    10.0   .     S
Er43     Ti44    10.0   .     S
Er43     V45    10.0   1_556     S
Ti44     H50    10.0   .     S
V45     Er43    10.0   1_554     S
V45     V46    9.999   1_655     S
V45     V47    9.999   1_655     S
V45     V48    9.999   1_655     S
V46     V45    9.999   1_455     S
V46     V48    9.999   .     S
V46     V47    9.999   .     S
V46     Er29    10.0   1_554     S
V47     V48    9.999   .     S
V47     V45    9.999   1_455     S
V48     V45    9.999   1_455     S
H49     S68    10.0   .     S
H50     S73    10.0   .     S
H51     S87    10.0   .     S
H52     Ti24    10.0   1_565     S
H52     S67    10.0   .     S
H53     S74    10.0   .     S
H54     S88    10.0   .     S
H55     Ti34    10.0   1_545     S
H55     S93    10.0   1_556     S
H56     S94    10.0   1_556     S
V57     V58    9.999   .     S
V57     V59    9.999   .     S
V57     V60    9.999   .     S
V57     Er85    10.0   .     S
V58     V59    9.999   .     S
V58     V60    9.999   .     S
V58     Er81    10.0   .     S
V59     V60    9.999   .     S
V59     Er61    10.0   .     S
V60     Er63    10.0   .     S
Er61     Ti62    10.0   .     S
Ti62     Ce69    10.0   .     S
Er63     Ti64    10.0   .     S
Ti64     Ce72    10.0   .     S
Er65     Ti66    10.0   .     S
Er65     V80    10.0   .     S
Ti66     Ce70    10.0   .     S
S67     Ce69    10.0   1_455     S
S67     Ce72    10.0   .     S
S67     S68    9.999   .     S
S67     Ce71    10.0   .     S
S68     Ce69    10.0   1_455     S
S68     Ce72    10.0   .     S
S68     Ce70    10.0   .     S
Ce69     S67    10.0   1_655     S
Ce69     S68    10.0   1_655     S
Ce69     S73    10.0   .     S
Ce69     Ce71    9.999   1_655     S
Ce69     Ce70    9.999   1_655     S
Ce70     Ce72    9.999   .     S
Ce70     Ce69    9.999   1_455     S
Ce70     S73    10.0   1_455     S
Ce70     S74    10.0   .     S
Ce71     Ce69    9.999   1_455     S
Ce71     Ce72    9.999   .     S
Ce71     S74    10.0   .     S
Ce71     S73    10.0   1_455     S
Ce71     Ti76    10.0   .     S
Ce72     S74    10.0   .     S
S73     Ce70    10.0   1_655     S
S73     Ce71    10.0   1_655     S
S73     S74    9.999   1_655     S
S74     S73    9.999   1_455     S
Er75     Ti76    10.0   1_545     S
Er75     V79    10.0   .     S
Ti76     Er75    10.0   1_565     S
Ti76     H2    10.0   1_565     S
V77     V78    9.999   1_455     S
V77     V80    9.999   .     S
V77     V79    9.999   .     S
V77     Er83    10.0   1_556     S
V78     V77    9.999   1_655     S
V78     V80    9.999   1_655     S
V78     V79    9.999   1_655     S
V78     Er95    10.0   1_556     S
V79     V78    9.999   1_455     S
V79     V80    9.999   .     S
V80     V78    9.999   1_455     S
Er81     Ti82    10.0   .     S
Ti82     Ce90    10.0   .     S
Er83     Ti84    10.0   .     S
Er83     V77    10.0   1_554     S
Ti84     Ce89    10.0   .     S
Er85     Ti86    10.0   1_565     S
Ti86     Er85    10.0   1_545     S
Ti86     H8    10.0   1_545     S
Ti86     Ce92    10.0   .     S
S87     Ce90    10.0   .     S
S87     Ce92    10.0   .     S
S87     S88    9.999   .     S
S87     Ce91    10.0   .     S
S88     Ce90    10.0   .     S
S88     Ce92    10.0   .     S
S88     Ce89    10.0   .     S
Ce89     Ce90    9.999   .     S
Ce89     Ce92    9.999   .     S
Ce89     S93    10.0   .     S
Ce89     S94    10.0   .     S
Ce90     S94    10.0   .     S
Ce90     Ce91    9.999   .     S
Ce91     Ce92    9.999   .     S
Ce91     S93    10.0   .     S
Ce91     S94    10.0   .     S
Ce91     Ti96    10.0   .     S
Ce92     S93    10.0   .     S
S93     H55    10.0   1_554     S
S93     S94    9.999   .     S
S94     H56    10.0   1_554     S
Er95     Ti96    10.0   .     S
Er95     V78    10.0   1_554     S
