data_zxd
_audit_creation_date              2020-02-04
_audit_creation_method            'Pymatgen'
_symmetry_space_group_name_H-M    'P1'
_symmetry_Int_Tables_number       1
loop_
_symmetry_equiv_pos_as_xyz
  x,y,z
_cell_length_a                    37.5536
_cell_length_b                    37.5536
_cell_length_c                    88.9088
_cell_angle_alpha                 90.0
_cell_angle_beta                 90.0
_cell_angle_gamma                 120.0
loop_
_atom_site_label
_atom_site_type_symbol
_atom_site_fract_x
_atom_site_fract_y
_atom_site_fract_z
Er1     Er     0.0   0.0   0.8773
V2     V     0.2215   0.9262   0.878
V3     V     0.0738   0.2952   0.878
V4     V     0.7048   0.7785   0.878
Er5     Er     0.3333   0.6667   0.7894
V6     V     0.1119   0.7404   0.7886
V7     V     0.2596   0.3714   0.7886
V8     V     0.6286   0.8881   0.7886
Er9     Er     0.0   0.0   0.1227
V10     V     0.7785   0.0738   0.122
V11     V     0.2952   0.2215   0.122
V12     V     0.9262   0.7048   0.122
Er13     Er     0.6667   0.3333   0.2106
V14     V     0.3714   0.1119   0.2114
V15     V     0.8881   0.2596   0.2114
V16     V     0.7404   0.6286   0.2114
Er17     Er     0.3333   0.6667   0.044
V18     V     0.5548   0.9619   0.0447
V19     V     0.4071   0.4452   0.0447
V20     V     0.0381   0.5929   0.0447
Er21     Er     0.6667   0.3333   0.956
V22     V     0.9619   0.4071   0.9553
V23     V     0.5929   0.5548   0.9553
V24     V     0.4452   0.0381   0.9553
Er25     Er     0.0   0.0   0.6227
V26     V     0.9262   0.2215   0.622
V27     V     0.2952   0.0738   0.622
V28     V     0.7785   0.7048   0.622
Er29     Er     0.6667   0.3333   0.7106
V30     V     0.3714   0.2596   0.7114
V31     V     0.7404   0.1119   0.7114
V32     V     0.8881   0.6286   0.7114
Er33     Er     0.0   0.0   0.3773
V34     V     0.0738   0.7785   0.378
V35     V     0.2215   0.2952   0.378
V36     V     0.7048   0.9262   0.378
Er37     Er     0.3333   0.6667   0.2894
V38     V     0.2596   0.8881   0.2886
V39     V     0.6286   0.7404   0.2886
V40     V     0.1119   0.3714   0.2886
Er41     Er     0.6667   0.3333   0.456
V42     V     0.9619   0.5548   0.4553
V43     V     0.4452   0.4071   0.4553
V44     V     0.5929   0.0381   0.4553
Er45     Er     0.3333   0.6667   0.544
V46     V     0.4071   0.9619   0.5447
V47     V     0.5548   0.5929   0.5447
V48     V     0.0381   0.4452   0.5447
loop_
_geom_bond_atom_site_label_1
_geom_bond_atom_site_label_2
_geom_bond_distance
_geom_bond_site_symmetry_2
_ccdc_geom_bond_type
Er1     V4    9.995   1_445     S
Er1     V3    9.995   .     S
Er1     V2    9.995   1_545     S
V2     V24    10.008   1_565     S
V2     V6    10.002   .     S
V2     Er1    9.995   1_565     S
V3     V7    10.002   .     S
V3     V22    10.008   1_455     S
V4     V23    10.008   .     S
V4     V8    10.002   .     S
V4     Er1    9.995   1_665     S
Er5     V7    9.995   .     S
Er5     V6    9.995   .     S
Er5     V8    9.995   .     S
V6     V32    10.008   1_455     S
V7     V30    10.008   .     S
V8     V31    10.008   1_565     S
Er9     V12    9.995   1_445     S
Er9     V11    9.995   .     S
Er9     V10    9.995   1_455     S
V10     V18    10.008   1_545     S
V10     V15    10.002   .     S
V10     Er9    9.995   1_655     S
V11     V19    10.008   .     S
V11     V14    10.002   .     S
V12     Er9    9.995   1_665     S
V12     V16    10.002   .     S
V12     V20    10.008   1_655     S
Er13     V14    9.995   .     S
Er13     V16    9.995   .     S
Er13     V15    9.995   .     S
V14     V38    10.008   1_545     S
V15     V40    10.008   1_655     S
V16     V39    10.008   .     S
Er17     V19    9.995   .     S
Er17     V20    9.995   .     S
Er17     V18    9.995   .     S
V18     V10    10.008   1_565     S
V18     V24    10.002   1_564     S
V19     V23    10.002   1_554     S
V20     V12    10.008   1_455     S
V20     V22    10.002   1_454     S
Er21     V23    9.995   .     S
Er21     V24    9.995   .     S
Er21     V22    9.995   .     S
V22     V3    10.008   1_655     S
V22     V20    10.002   1_656     S
V23     V19    10.002   1_556     S
V24     V2    10.008   1_545     S
V24     V18    10.002   1_546     S
Er25     V28    9.995   1_445     S
Er25     V27    9.995   .     S
Er25     V26    9.995   1_455     S
V26     V48    10.008   1_655     S
V26     V31    10.002   .     S
V26     Er25    9.995   1_655     S
V27     V30    10.002   .     S
V27     V46    10.008   1_545     S
V28     V47    10.008   .     S
V28     V32    10.002   .     S
V28     Er25    9.995   1_665     S
Er29     V30    9.995   .     S
Er29     V31    9.995   .     S
Er29     V32    9.995   .     S
V31     V8    10.008   1_545     S
V32     V6    10.008   1_655     S
Er33     V36    9.995   1_445     S
Er33     V35    9.995   .     S
Er33     V34    9.995   1_545     S
V34     V42    10.008   1_455     S
V34     V38    10.002   .     S
V34     Er33    9.995   1_565     S
V35     V43    10.008   .     S
V35     V40    10.002   .     S
V36     V44    10.008   1_565     S
V36     Er33    9.995   1_665     S
V36     V39    10.002   .     S
Er37     V40    9.995   .     S
Er37     V39    9.995   .     S
Er37     V38    9.995   .     S
V38     V14    10.008   1_565     S
V40     V15    10.008   1_455     S
Er41     V43    9.995   .     S
Er41     V44    9.995   .     S
Er41     V42    9.995   .     S
V42     V34    10.008   1_655     S
V42     V48    10.002   1_655     S
V43     V47    10.002   .     S
V44     V36    10.008   1_545     S
V44     V46    10.002   1_545     S
Er45     V48    9.995   .     S
Er45     V47    9.995   .     S
Er45     V46    9.995   .     S
V46     V27    10.008   1_565     S
V46     V44    10.002   1_565     S
V48     V26    10.008   1_455     S
V48     V42    10.002   1_455     S
