data_aab
_audit_creation_date              2020-02-02
_audit_creation_method            'Pymatgen'
_symmetry_space_group_name_H-M    'P1'
_symmetry_Int_Tables_number       1
loop_
_symmetry_equiv_pos_as_xyz
  x,y,z
_cell_length_a                    109.3719
_cell_length_b                    36.4572
_cell_length_c                    36.4573
_cell_angle_alpha                 90.0
_cell_angle_beta                 90.0
_cell_angle_gamma                 90.0
loop_
_atom_site_label
_atom_site_type_symbol
_atom_site_fract_x
_atom_site_fract_y
_atom_site_fract_z
Er1     Er     0.7124   0.5   0.2491
Er2     Er     0.2876   0.5   0.7509
Er3     Er     0.7124   0.5   0.7509
Er4     Er     0.2876   0.5   0.2491
N5     N     0.5829   0.3629   0.0
N6     N     0.5829   0.6371   0.0
Ne7     Ne     0.5833   0.75   0.75
Ne8     Ne     0.5833   0.25   0.75
Ce9     Ce     0.5457   0.0   0.7492
S10     S     0.621   0.5   0.7513
C11     C     0.5829   0.1371   0.5
C12     C     0.5829   0.8629   0.5
Ne13     Ne     0.5833   0.25   0.25
Ne14     Ne     0.5833   0.75   0.25
Ce15     Ce     0.5457   0.0   0.2508
S16     S     0.621   0.5   0.2487
Si17     Si     0.5   0.7513   0.6372
Si18     Si     0.5   0.7513   0.3628
N19     N     0.4171   0.3629   0.0
N20     N     0.4171   0.6371   0.0
Ne21     Ne     0.4167   0.25   0.75
Ne22     Ne     0.4167   0.75   0.75
Ce23     Ce     0.4543   0.0   0.7492
S24     S     0.379   0.5   0.7513
C25     C     0.4171   0.1371   0.5
C26     C     0.4171   0.8629   0.5
Ne27     Ne     0.4167   0.75   0.25
Ne28     Ne     0.4167   0.25   0.25
Ce29     Ce     0.4543   0.0   0.2508
S30     S     0.379   0.5   0.2487
Si31     Si     0.5   0.2487   0.6372
Si32     Si     0.5   0.2487   0.3628
He33     He     0.3333   0.2506   0.1372
He34     He     0.3333   0.2506   0.8628
F35     F     0.2502   0.1372   0.5
F36     F     0.2502   0.8628   0.5
Li37     Li     0.2124   0.0   0.7477
Li38     Li     0.2124   0.0   0.2523
Al39     Al     0.25   0.25   0.75
Al40     Al     0.25   0.75   0.25
Al41     Al     0.25   0.75   0.75
B42     B     0.2498   0.3629   0.0
B43     B     0.2498   0.6371   0.0
Al44     Al     0.25   0.25   0.25
He45     He     0.3333   0.7494   0.1372
He46     He     0.3333   0.7494   0.8628
He47     He     0.6667   0.7494   0.1372
He48     He     0.6667   0.7494   0.8628
F49     F     0.7498   0.1372   0.5
F50     F     0.7498   0.8628   0.5
Li51     Li     0.7876   0.0   0.7477
Li52     Li     0.7876   0.0   0.2523
Al53     Al     0.75   0.25   0.75
Al54     Al     0.75   0.25   0.25
Al55     Al     0.75   0.75   0.75
B56     B     0.7502   0.3629   0.0
B57     B     0.7502   0.6371   0.0
Al58     Al     0.75   0.75   0.25
He59     He     0.6667   0.2506   0.1372
He60     He     0.6667   0.2506   0.8628
V61     V     0.0457   0.7499   0.0
V62     V     0.0457   0.2501   0.0
V63     V     0.9543   0.2501   0.0
V64     V     0.9543   0.7499   0.0
Mg65     Mg     0.8333   0.2498   0.3628
Mg66     Mg     0.8333   0.2498   0.6372
Mg67     Mg     0.8333   0.7502   0.3628
Mg68     Mg     0.8333   0.7502   0.6372
Na69     Na     0.9167   0.75   0.75
Na70     Na     0.9167   0.25   0.75
Be71     Be     0.9164   0.5   0.8628
Na72     Na     0.9167   0.25   0.25
Na73     Na     0.9167   0.75   0.25
Be74     Be     0.9164   0.5   0.1372
O75     O     0.9158   0.1372   0.5
O76     O     0.9158   0.8628   0.5
Ti77     Ti     0.879   0.0   0.2515
Ti78     Ti     0.879   0.0   0.7485
H79     H     0.0   0.6372   0.75
H80     H     0.0   0.3628   0.75
H81     H     0.0   0.3628   0.25
H82     H     0.0   0.6372   0.25
Mg83     Mg     0.1667   0.7502   0.3628
Mg84     Mg     0.1667   0.7502   0.6372
Mg85     Mg     0.1667   0.2498   0.3628
Mg86     Mg     0.1667   0.2498   0.6372
Na87     Na     0.0833   0.25   0.75
Na88     Na     0.0833   0.75   0.75
Be89     Be     0.0836   0.5   0.8628
Na90     Na     0.0833   0.75   0.25
Na91     Na     0.0833   0.25   0.25
Be92     Be     0.0836   0.5   0.1372
O93     O     0.0842   0.1372   0.5
O94     O     0.0842   0.8628   0.5
Ti95     Ti     0.121   0.0   0.2515
Ti96     Ti     0.121   0.0   0.7485
loop_
_geom_bond_atom_site_label_1
_geom_bond_atom_site_label_2
_geom_bond_distance
_geom_bond_site_symmetry_2
_ccdc_geom_bond_type
Er1     S16    10.0   .     S
Er1     Al54    10.0   .     S
Er1     Al58    10.0   .     S
Er2     S24    10.0   .     S
Er2     Al39    10.0   .     S
Er2     Al41    10.0   .     S
Er3     S10    10.0   .     S
Er3     Al53    10.0   .     S
Er3     Al55    10.0   .     S
Er4     S30    10.0   .     S
Er4     Al44    10.0   .     S
Er4     Al40    10.0   .     S
N5     N6    9.999   .     S
N5     Ne13    10.0   .     S
N5     Ne8    10.0   1_554     S
N6     Ne14    10.0   .     S
N6     Ne7    10.0   1_554     S
Ne7     Si17    10.0   .     S
Ne7     Ce9    10.0   1_565     S
Ne7     S10    10.0   .     S
Ne7     C12    10.0   .     S
Ne7     N6    10.0   1_556     S
Ne7     He48    10.001   .     S
Ne8     Si31    10.0   .     S
Ne8     Ce9    10.0   .     S
Ne8     S10    10.0   .     S
Ne8     C11    10.0   .     S
Ne8     N5    10.0   1_556     S
Ne8     He60    10.001   .     S
Ce9     Ne7    10.0   1_545     S
Ce9     Ce23    10.001   .     S
C11     C12    9.999   1_545     S
C11     Ne13    10.0   .     S
C12     C11    9.999   1_565     S
C12     Ne14    10.0   .     S
Ne13     Si32    10.0   .     S
Ne13     Ce15    10.0   .     S
Ne13     S16    10.0   .     S
Ne13     He59    10.001   .     S
Ne14     Si18    10.0   .     S
Ne14     Ce15    10.0   1_565     S
Ne14     S16    10.0   .     S
Ne14     He47    10.001   .     S
Ce15     Ne14    10.0   1_545     S
Ce15     Ce29    10.001   .     S
Si17     Si18    10.0   .     S
Si17     Ne22    10.0   .     S
Si18     Ne27    10.0   .     S
N19     N20    9.999   .     S
N19     Ne28    10.0   .     S
N19     Ne21    10.0   1_554     S
N20     Ne27    10.0   .     S
N20     Ne22    10.0   1_554     S
Ne21     Si31    10.0   .     S
Ne21     Ce23    10.0   .     S
Ne21     S24    10.0   .     S
Ne21     C25    10.0   .     S
Ne21     N19    10.0   1_556     S
Ne21     He34    10.001   .     S
Ne22     Ce23    10.0   1_565     S
Ne22     S24    10.0   .     S
Ne22     C26    10.0   .     S
Ne22     N20    10.0   1_556     S
Ne22     He46    10.001   .     S
Ce23     Ne22    10.0   1_545     S
C25     C26    9.999   1_545     S
C25     Ne28    10.0   .     S
C26     C25    9.999   1_565     S
C26     Ne27    10.0   .     S
Ne27     Ce29    10.0   1_565     S
Ne27     S30    10.0   .     S
Ne27     He45    10.001   .     S
Ne28     Si32    10.0   .     S
Ne28     Ce29    10.0   .     S
Ne28     S30    10.0   .     S
Ne28     He33    10.001   .     S
Ce29     Ne27    10.0   1_545     S
Si31     Si32    10.0   .     S
He33     Al44    9.999   .     S
He33     He34    10.0   1_554     S
He34     Al39    9.999   .     S
He34     He33    10.0   1_556     S
F35     Al44    10.0   .     S
F35     Al39    10.0   .     S
F35     F36    10.0   1_545     S
F36     Al40    10.0   .     S
F36     Al41    10.0   .     S
F36     F35    10.0   1_565     S
Li37     Ti96    10.0   .     S
Li37     Al39    10.0   .     S
Li37     Al41    10.0   1_545     S
Li38     Ti95    10.0   .     S
Li38     Al40    10.0   1_545     S
Li38     Al44    10.0   .     S
Al39     B42    10.0   1_556     S
Al39     Mg86    10.0   .     S
Al40     B43    10.0   .     S
Al40     Li38    10.0   1_565     S
Al40     He45    9.999   .     S
Al40     Mg83    10.0   .     S
Al41     B43    10.0   1_556     S
Al41     Li37    10.0   1_565     S
Al41     He46    9.999   .     S
Al41     Mg84    10.0   .     S
B42     Al39    10.0   1_554     S
B42     B43    9.999   .     S
B42     Al44    10.0   .     S
B43     Al41    10.0   1_554     S
Al44     Mg85    10.0   .     S
He45     He46    10.0   1_554     S
He46     He45    10.0   1_556     S
He47     Al58    9.999   .     S
He47     He48    10.0   1_554     S
He48     Al55    9.999   .     S
He48     He47    10.0   1_556     S
F49     Al53    10.0   .     S
F49     Al54    10.0   .     S
F49     F50    10.0   1_545     S
F50     Al58    10.0   .     S
F50     Al55    10.0   .     S
F50     F49    10.0   1_565     S
Li51     Ti78    10.0   .     S
Li51     Al53    10.0   .     S
Li51     Al55    10.0   1_545     S
Li52     Ti77    10.0   .     S
Li52     Al54    10.0   .     S
Li52     Al58    10.0   1_545     S
Al53     B56    10.0   1_556     S
Al53     He60    9.999   .     S
Al53     Mg66    10.0   .     S
Al54     B56    10.0   .     S
Al54     He59    9.999   .     S
Al54     Mg65    10.0   .     S
Al55     B57    10.0   1_556     S
Al55     Li51    10.0   1_565     S
Al55     Mg68    10.0   .     S
B56     Al53    10.0   1_554     S
B56     B57    9.999   .     S
B57     Al55    10.0   1_554     S
B57     Al58    10.0   .     S
Al58     Li52    10.0   1_565     S
Al58     Mg67    10.0   .     S
He59     He60    10.0   1_554     S
He60     He59    10.0   1_556     S
V61     Na90    10.0   .     S
V61     Na88    10.0   1_554     S
V61     V64    10.001   1_455     S
V62     Na91    10.0   .     S
V62     Na87    10.0   1_554     S
V62     V63    10.001   1_455     S
V63     Na72    10.0   .     S
V63     Na70    10.0   1_554     S
V63     V62    10.001   1_655     S
V64     Na73    10.0   .     S
V64     Na69    10.0   1_554     S
V64     V61    10.001   1_655     S
Mg65     Mg66    10.0   .     S
Mg65     Na72    10.0   .     S
Mg66     Na70    10.0   .     S
Mg67     Mg68    10.0   .     S
Mg67     Na73    10.0   .     S
Mg68     Na69    10.0   .     S
Na69     V64    10.0   1_556     S
Na69     H79    10.0   1_655     S
Na69     O76    10.0   .     S
Na69     Be71    10.0   .     S
Na69     Ti78    10.0   1_565     S
Na70     V63    10.0   1_556     S
Na70     H80    10.0   1_655     S
Na70     O75    10.0   .     S
Na70     Be71    10.0   .     S
Na70     Ti78    10.0   .     S
Be71     Be74    10.0   1_556     S
Na72     H81    10.0   1_655     S
Na72     O75    10.0   .     S
Na72     Be74    10.0   .     S
Na72     Ti77    10.0   .     S
Na73     H82    10.0   1_655     S
Na73     O76    10.0   .     S
Na73     Be74    10.0   .     S
Na73     Ti77    10.0   1_565     S
Be74     Be71    10.0   1_554     S
O75     O76    10.0   1_545     S
O76     O75    10.0   1_565     S
Ti77     Na73    10.0   1_545     S
Ti78     Na69    10.0   1_545     S
H79     Na69    10.0   1_455     S
H79     H80    10.0   .     S
H79     Na88    10.0   .     S
H80     Na70    10.0   1_455     S
H80     Na87    10.0   .     S
H81     Na72    10.0   1_455     S
H81     H82    10.0   .     S
H81     Na91    10.0   .     S
H82     Na73    10.0   1_455     S
H82     Na90    10.0   .     S
Mg83     Mg84    10.0   .     S
Mg83     Na90    10.0   .     S
Mg84     Na88    10.0   .     S
Mg85     Mg86    10.0   .     S
Mg85     Na91    10.0   .     S
Mg86     Na87    10.0   .     S
Na87     V62    10.0   1_556     S
Na87     O93    10.0   .     S
Na87     Be89    10.0   .     S
Na87     Ti96    10.0   .     S
Na88     V61    10.0   1_556     S
Na88     O94    10.0   .     S
Na88     Be89    10.0   .     S
Na88     Ti96    10.0   1_565     S
Be89     Be92    10.0   1_556     S
Na90     O94    10.0   .     S
Na90     Be92    10.0   .     S
Na90     Ti95    10.0   1_565     S
Na91     O93    10.0   .     S
Na91     Be92    10.0   .     S
Na91     Ti95    10.0   .     S
Be92     Be89    10.0   1_554     S
O93     O94    10.0   1_545     S
O94     O93    10.0   1_565     S
Ti95     Na90    10.0   1_545     S
Ti96     Na88    10.0   1_545     S
