data_abb
_audit_creation_date              2020-02-02
_audit_creation_method            'Pymatgen'
_symmetry_space_group_name_H-M    'P1'
_symmetry_Int_Tables_number       1
loop_
_symmetry_equiv_pos_as_xyz
  x,y,z
_cell_length_a                    109.3715
_cell_length_b                    36.4569
_cell_length_c                    36.4571
_cell_angle_alpha                 90.0
_cell_angle_beta                 90.0
_cell_angle_gamma                 90.0
loop_
_atom_site_label
_atom_site_type_symbol
_atom_site_fract_x
_atom_site_fract_y
_atom_site_fract_z
He1     He     0.6667   0.1372   0.7483
He2     He     0.6667   0.8628   0.7483
He3     He     0.3333   0.1372   0.2517
He4     He     0.3333   0.8628   0.2517
He5     He     0.3333   0.1372   0.7483
He6     He     0.3333   0.8628   0.7483
Ti7     Ti     0.917   0.8629   0.5
Ti8     Ti     0.917   0.1371   0.5
F9     F     0.9167   0.25   0.75
Li10     Li     0.9543   0.0   0.7508
F11     F     0.9167   0.75   0.75
F12     F     0.9167   0.25   0.25
Li13     Li     0.9543   0.0   0.2492
F14     F     0.9167   0.75   0.25
Ne15     Ne     0.9158   0.6372   0.0
Ne16     Ne     0.9158   0.3628   0.0
S17     S     0.8333   0.25   0.8628
S18     S     0.8333   0.25   0.1372
S19     S     0.8333   0.75   0.8628
S20     S     0.8333   0.75   0.1372
Be21     Be     0.7124   0.2517   0.5
Be22     Be     0.7124   0.7483   0.5
Er23     Er     0.7496   0.0   0.3628
Er24     Er     0.7496   0.0   0.6372
C25     C     0.75   0.75   0.75
Na26     Na     0.879   0.5   0.7518
O27     O     0.7876   0.5   0.7493
C28     C     0.75   0.25   0.75
N29     N     0.75   0.3629   0.0
N30     N     0.75   0.6371   0.0
C31     C     0.75   0.75   0.25
Na32     Na     0.879   0.5   0.2482
O33     O     0.7876   0.5   0.2507
C34     C     0.75   0.25   0.25
H35     H     0.0   0.749   0.6372
H36     H     0.0   0.749   0.3628
H37     H     0.0   0.251   0.6372
H38     H     0.0   0.251   0.3628
Ti39     Ti     0.083   0.8629   0.5
Ti40     Ti     0.083   0.1371   0.5
F41     F     0.0833   0.25   0.75
Li42     Li     0.0457   0.0   0.7508
F43     F     0.0833   0.75   0.75
F44     F     0.0833   0.25   0.25
Li45     Li     0.0457   0.0   0.2492
F46     F     0.0833   0.75   0.25
Ne47     Ne     0.0842   0.6372   0.0
Ne48     Ne     0.0842   0.3628   0.0
S49     S     0.1667   0.75   0.8628
S50     S     0.1667   0.75   0.1372
S51     S     0.1667   0.25   0.8628
S52     S     0.1667   0.25   0.1372
Be53     Be     0.2876   0.7483   0.5
Be54     Be     0.2876   0.2517   0.5
Er55     Er     0.2504   0.0   0.3628
Er56     Er     0.2504   0.0   0.6372
C57     C     0.25   0.75   0.75
Na58     Na     0.121   0.5   0.7518
O59     O     0.2124   0.5   0.7493
C60     C     0.25   0.25   0.75
N61     N     0.25   0.3629   0.0
N62     N     0.25   0.6371   0.0
C63     C     0.25   0.75   0.25
Na64     Na     0.121   0.5   0.2482
O65     O     0.2124   0.5   0.2507
C66     C     0.25   0.25   0.25
He67     He     0.6667   0.1372   0.2517
He68     He     0.6667   0.8628   0.2517
Mg69     Mg     0.5833   0.25   0.25
Mg70     Mg     0.5833   0.25   0.75
B71     B     0.621   0.25   0.5
Si72     Si     0.5457   0.5   0.749
Si73     Si     0.5457   0.5   0.251
Mg74     Mg     0.5833   0.75   0.75
Mg75     Mg     0.5833   0.75   0.25
B76     B     0.621   0.75   0.5
Al77     Al     0.5837   0.3628   0.0
Al78     Al     0.5837   0.6372   0.0
V79     V     0.584   0.0   0.3628
V80     V     0.584   0.0   0.6372
Ce81     Ce     0.5   0.7527   0.8628
Ce82     Ce     0.5   0.7527   0.1372
Ce83     Ce     0.5   0.2473   0.8628
Ce84     Ce     0.5   0.2473   0.1372
Mg85     Mg     0.4167   0.25   0.75
Mg86     Mg     0.4167   0.25   0.25
B87     B     0.379   0.25   0.5
Si88     Si     0.4543   0.5   0.251
Si89     Si     0.4543   0.5   0.749
Mg90     Mg     0.4167   0.75   0.25
Mg91     Mg     0.4167   0.75   0.75
B92     B     0.379   0.75   0.5
Al93     Al     0.4163   0.3628   0.0
Al94     Al     0.4163   0.6372   0.0
V95     V     0.416   0.0   0.3628
V96     V     0.416   0.0   0.6372
loop_
_geom_bond_atom_site_label_1
_geom_bond_atom_site_label_2
_geom_bond_distance
_geom_bond_site_symmetry_2
_ccdc_geom_bond_type
He1     Mg70    10.0   .     S
He1     He2    10.0   1_545     S
He1     C28    10.001   .     S
He2     Mg74    10.0   .     S
He2     He1    10.0   1_565     S
He2     C25    10.001   .     S
He3     Mg86    10.0   .     S
He3     He4    10.0   1_545     S
He3     C66    10.001   .     S
He4     Mg90    10.0   .     S
He4     He3    10.0   1_565     S
He4     C63    10.001   .     S
He5     Mg85    10.0   .     S
He5     He6    10.0   1_545     S
He5     C60    10.001   .     S
He6     Mg91    10.0   .     S
He6     He5    10.0   1_565     S
He6     C57    10.001   .     S
Ti7     Ti8    9.999   1_565     S
Ti7     F14    10.0   .     S
Ti7     F11    10.0   .     S
Ti8     Ti7    9.999   1_545     S
Ti8     F9    10.0   .     S
Ti8     F12    10.0   .     S
F9     H37    10.0   1_655     S
F9     Ne16    10.0   1_556     S
F9     Li10    10.0   .     S
F9     Na26    10.001   .     S
F9     S17    10.0   .     S
Li10     F11    10.0   1_545     S
Li10     Li42    10.001   1_655     S
F11     Li10    10.0   1_565     S
F11     H35    10.0   1_655     S
F11     Ne15    10.0   1_556     S
F11     Na26    10.001   .     S
F11     S19    10.0   .     S
F12     H38    10.0   1_655     S
F12     Ne16    10.0   .     S
F12     Li13    10.0   .     S
F12     Na32    10.001   .     S
F12     S18    10.0   .     S
Li13     F14    10.0   1_545     S
Li13     Li45    10.001   1_655     S
F14     Li13    10.0   1_565     S
F14     H36    10.0   1_655     S
F14     Ne15    10.0   .     S
F14     Na32    10.001   .     S
F14     S20    10.0   .     S
Ne15     F11    10.0   1_554     S
Ne15     Ne16    10.0   .     S
Ne16     F9    10.0   1_554     S
S17     S18    10.0   1_556     S
S17     C28    10.0   .     S
S18     S17    10.0   1_554     S
S18     C34    10.0   .     S
S19     S20    10.0   1_556     S
S19     C25    10.0   .     S
S20     S19    10.0   1_554     S
S20     C31    10.0   .     S
Be21     B71    10.0   .     S
Be21     C28    10.0   .     S
Be21     C34    10.0   .     S
Be22     B76    10.0   .     S
Be22     C31    10.0   .     S
Be22     C25    10.0   .     S
Er23     C34    10.0   .     S
Er23     C31    10.0   1_545     S
Er23     Er24    10.0   .     S
Er24     C28    10.0   .     S
Er24     C25    10.0   1_545     S
C25     Er24    10.0   1_565     S
C25     O27    10.0   .     S
C25     N30    10.0   1_556     S
Na26     O27    9.999   .     S
O27     C28    10.0   .     S
C28     N29    10.0   1_556     S
N29     N30    9.999   .     S
N29     C34    10.0   .     S
N29     C28    10.0   1_554     S
N30     C25    10.0   1_554     S
N30     C31    10.0   .     S
C31     Er23    10.0   1_565     S
C31     O33    10.0   .     S
C31     He68    10.001   .     S
Na32     O33    9.999   .     S
O33     C34    10.0   .     S
C34     He67    10.001   .     S
H35     F11    10.0   1_455     S
H35     H36    10.0   .     S
H35     F43    10.0   .     S
H36     F14    10.0   1_455     S
H36     F46    10.0   .     S
H37     F9    10.0   1_455     S
H37     H38    10.0   .     S
H37     F41    10.0   .     S
H38     F12    10.0   1_455     S
H38     F44    10.0   .     S
Ti39     Ti40    9.999   1_565     S
Ti39     F46    10.0   .     S
Ti39     F43    10.0   .     S
Ti40     Ti39    9.999   1_545     S
Ti40     F44    10.0   .     S
Ti40     F41    10.0   .     S
F41     Ne48    10.0   1_556     S
F41     Li42    10.0   .     S
F41     Na58    10.001   .     S
F41     S51    10.0   .     S
Li42     F43    10.0   1_545     S
Li42     Li10    10.001   1_455     S
F43     Li42    10.0   1_565     S
F43     Ne47    10.0   1_556     S
F43     Na58    10.001   .     S
F43     S49    10.0   .     S
F44     Ne48    10.0   .     S
F44     Li45    10.0   .     S
F44     Na64    10.001   .     S
F44     S52    10.0   .     S
Li45     F46    10.0   1_545     S
Li45     Li13    10.001   1_455     S
F46     Li45    10.0   1_565     S
F46     Ne47    10.0   .     S
F46     Na64    10.001   .     S
F46     S50    10.0   .     S
Ne47     F43    10.0   1_554     S
Ne47     Ne48    10.0   .     S
Ne48     F41    10.0   1_554     S
S49     S50    10.0   1_556     S
S49     C57    10.0   .     S
S50     S49    10.0   1_554     S
S50     C63    10.0   .     S
S51     S52    10.0   1_556     S
S51     C60    10.0   .     S
S52     S51    10.0   1_554     S
S52     C66    10.0   .     S
Be53     B92    10.0   .     S
Be53     C57    10.0   .     S
Be53     C63    10.0   .     S
Be54     B87    10.0   .     S
Be54     C66    10.0   .     S
Be54     C60    10.0   .     S
Er55     C66    10.0   .     S
Er55     C63    10.0   1_545     S
Er55     Er56    10.0   .     S
Er56     C60    10.0   .     S
Er56     C57    10.0   1_545     S
C57     Er56    10.0   1_565     S
C57     O59    10.0   .     S
C57     N62    10.0   1_556     S
Na58     O59    9.999   .     S
O59     C60    10.0   .     S
C60     N61    10.0   1_556     S
N61     N62    9.999   .     S
N61     C66    10.0   .     S
N61     C60    10.0   1_554     S
N62     C57    10.0   1_554     S
N62     C63    10.0   .     S
C63     Er55    10.0   1_565     S
C63     O65    10.0   .     S
Na64     O65    9.999   .     S
O65     C66    10.0   .     S
He67     Mg69    10.0   .     S
He67     He68    10.0   1_545     S
He68     Mg75    10.0   .     S
He68     He67    10.0   1_565     S
Mg69     Ce84    10.0   .     S
Mg69     Al77    10.0   .     S
Mg69     B71    10.0   .     S
Mg69     Si73    10.0   .     S
Mg69     V79    10.0   .     S
Mg70     Ce83    10.0   .     S
Mg70     Al77    10.0   1_556     S
Mg70     B71    10.0   .     S
Mg70     Si72    10.0   .     S
Mg70     V80    10.0   .     S
Si72     Mg74    10.0   .     S
Si72     Si89    10.001   .     S
Si73     Mg75    10.0   .     S
Si73     Si88    10.001   .     S
Mg74     Ce81    10.0   .     S
Mg74     Al78    10.0   1_556     S
Mg74     B76    10.0   .     S
Mg74     V80    10.0   1_565     S
Mg75     Ce82    10.0   .     S
Mg75     Al78    10.0   .     S
Mg75     B76    10.0   .     S
Mg75     V79    10.0   1_565     S
Al77     Mg70    10.0   1_554     S
Al77     Al78    10.0   .     S
Al78     Mg74    10.0   1_554     S
V79     Mg75    10.0   1_545     S
V79     V80    10.0   .     S
V80     Mg74    10.0   1_545     S
Ce81     Ce82    10.0   1_556     S
Ce81     Mg91    10.0   .     S
Ce82     Ce81    10.0   1_554     S
Ce82     Mg90    10.0   .     S
Ce83     Ce84    10.0   1_556     S
Ce83     Mg85    10.0   .     S
Ce84     Ce83    10.0   1_554     S
Ce84     Mg86    10.0   .     S
Mg85     Al93    10.0   1_556     S
Mg85     B87    10.0   .     S
Mg85     Si89    10.0   .     S
Mg85     V96    10.0   .     S
Mg86     Al93    10.0   .     S
Mg86     B87    10.0   .     S
Mg86     Si88    10.0   .     S
Mg86     V95    10.0   .     S
Si88     Mg90    10.0   .     S
Si89     Mg91    10.0   .     S
Mg90     Al94    10.0   .     S
Mg90     B92    10.0   .     S
Mg90     V95    10.0   1_565     S
Mg91     Al94    10.0   1_556     S
Mg91     B92    10.0   .     S
Mg91     V96    10.0   1_565     S
Al93     Mg85    10.0   1_554     S
Al93     Al94    10.0   .     S
Al94     Mg91    10.0   1_554     S
V95     Mg90    10.0   1_545     S
V95     V96    10.0   .     S
V96     Mg91    10.0   1_545     S
