data_acs
_audit_creation_date              2020-02-02
_audit_creation_method            'Pymatgen'
_symmetry_space_group_name_H-M    'P1'
_symmetry_Int_Tables_number       1
loop_
_symmetry_equiv_pos_as_xyz
  x,y,z
_cell_length_a                    14.142
_cell_length_b                    14.142
_cell_length_c                    11.5471
_cell_angle_alpha                 90.0
_cell_angle_beta                 90.0
_cell_angle_gamma                 120.0
loop_
_atom_site_label
_atom_site_type_symbol
_atom_site_fract_x
_atom_site_fract_y
_atom_site_fract_z
V1     V     0.3333   0.6667   0.75
V2     V     0.6667   0.3333   0.25
loop_
_geom_bond_atom_site_label_1
_geom_bond_atom_site_label_2
_geom_bond_distance
_geom_bond_site_symmetry_2
_ccdc_geom_bond_type
V1     V2    10.0   .     S
V1     V2    10.0   1_556     S
V1     V2    10.0   1_566     S
V1     V2    10.0   1_565     S
V1     V2    10.0   1_455     S
V1     V2    10.0   1_456     S
V2     V1    10.0   1_554     S
V2     V1    10.0   1_544     S
V2     V1    10.0   1_545     S
V2     V1    10.0   1_655     S
V2     V1    10.0   1_654     S
