data_aea
_audit_creation_date              2020-02-02
_audit_creation_method            'Pymatgen'
_symmetry_space_group_name_H-M    'P1'
_symmetry_Int_Tables_number       1
loop_
_symmetry_equiv_pos_as_xyz
  x,y,z
_cell_length_a                    24.6576
_cell_length_b                    24.6576
_cell_length_c                    23.4785
_cell_angle_alpha                 90.0
_cell_angle_beta                 90.0
_cell_angle_gamma                 120.0
loop_
_atom_site_label
_atom_site_type_symbol
_atom_site_fract_x
_atom_site_fract_y
_atom_site_fract_z
Er1     Er     0.6667   0.3333   0.5
Er2     Er     0.3333   0.6667   0.5
Ti3     Ti     0.294   0.0   0.2934
Ti4     Ti     0.294   0.0   0.7066
Ti5     Ti     0.0   0.706   0.2934
Ti6     Ti     0.0   0.706   0.7066
Ti7     Ti     0.706   0.0   0.2934
Ti8     Ti     0.706   0.0   0.7066
Ti9     Ti     0.0   0.294   0.2934
Ti10     Ti     0.294   0.294   0.2934
Ti11     Ti     0.294   0.294   0.7066
Ti12     Ti     0.0   0.294   0.7066
Ti13     Ti     0.706   0.706   0.2934
Ti14     Ti     0.706   0.706   0.7066
V15     V     0.0   0.0   0.0
loop_
_geom_bond_atom_site_label_1
_geom_bond_atom_site_label_2
_geom_bond_distance
_geom_bond_site_symmetry_2
_ccdc_geom_bond_type
Er1     Ti14    10.0   .     S
Er1     Ti6    10.0   1_655     S
Er1     Ti5    10.0   1_655     S
Er1     Ti13    10.0   .     S
Er1     Ti12    10.0   1_655     S
Er1     Ti8    10.0   .     S
Er1     Ti7    10.0   .     S
Er1     Ti9    10.0   1_655     S
Er1     Ti10    10.0   .     S
Er1     Ti3    10.0   .     S
Er1     Ti4    10.0   .     S
Er1     Ti11    10.0   .     S
Er2     Ti3    10.0   1_565     S
Er2     Ti5    10.0   .     S
Er2     Ti6    10.0   .     S
Er2     Ti4    10.0   1_565     S
Er2     Ti8    10.0   1_565     S
Er2     Ti14    10.0   .     S
Er2     Ti13    10.0   .     S
Er2     Ti7    10.0   1_565     S
Er2     Ti9    10.0   .     S
Er2     Ti10    10.0   .     S
Er2     Ti11    10.0   .     S
Er2     Ti12    10.0   .     S
Ti3     Er2    10.0   1_545     S
Ti3     V15    10.0   .     S
Ti4     Er2    10.0   1_545     S
Ti4     V15    10.0   1_556     S
Ti5     Er1    10.0   1_455     S
Ti5     V15    10.0   1_565     S
Ti6     Er1    10.0   1_455     S
Ti6     V15    10.0   1_566     S
Ti7     Er2    10.0   1_545     S
Ti7     V15    10.0   1_655     S
Ti8     Er2    10.0   1_545     S
Ti8     V15    10.0   1_656     S
Ti9     Er1    10.0   1_455     S
Ti9     V15    10.0   .     S
Ti10     V15    10.0   .     S
Ti11     V15    10.0   1_556     S
Ti12     Er1    10.0   1_455     S
Ti12     V15    10.0   1_556     S
Ti13     V15    10.0   1_665     S
Ti14     V15    10.0   1_666     S
V15     Ti4    10.0   1_554     S
V15     Ti11    10.0   1_554     S
V15     Ti8    10.0   1_454     S
V15     Ti14    10.0   1_444     S
V15     Ti12    10.0   1_554     S
V15     Ti6    10.0   1_544     S
V15     Ti7    10.0   1_455     S
V15     Ti13    10.0   1_445     S
V15     Ti5    10.0   1_545     S
