data_aeaa
_audit_creation_date              2020-02-02
_audit_creation_method            'Pymatgen'
_symmetry_space_group_name_H-M    'P1'
_symmetry_Int_Tables_number       1
loop_
_symmetry_equiv_pos_as_xyz
  x,y,z
_cell_length_a                    68.2763
_cell_length_b                    68.2763
_cell_length_c                    57.0132
_cell_angle_alpha                 90.0
_cell_angle_beta                 90.0
_cell_angle_gamma                 120.0
loop_
_atom_site_label
_atom_site_type_symbol
_atom_site_fract_x
_atom_site_fract_y
_atom_site_fract_z
V1     V     0.0   0.8535   0.5877
V2     V     0.1465   0.0   0.5877
V3     V     0.0   0.1465   0.5877
V4     V     0.1465   0.1465   0.5877
V5     V     0.8535   0.0   0.5877
V6     V     0.8535   0.8535   0.5877
V7     V     0.0   0.8535   0.4123
V8     V     0.1465   0.0   0.4123
V9     V     0.0   0.1465   0.4123
V10     V     0.1465   0.1465   0.4123
V11     V     0.8535   0.0   0.4123
V12     V     0.8535   0.8535   0.4123
Ti13     Ti     0.0846   0.6997   0.8157
Er14     Er     0.1869   0.6667   0.9123
Ti15     Ti     0.3003   0.9154   0.8157
Er16     Er     0.3333   0.8131   0.9123
Ti17     Ti     0.6152   0.9154   0.8157
Er18     Er     0.4798   0.8131   0.9123
Ti19     Ti     0.6152   0.6997   0.8157
Er20     Er     0.4798   0.6667   0.9123
Ti21     Ti     0.0846   0.3848   0.8157
Er22     Er     0.1869   0.5202   0.9123
Ti23     Ti     0.3003   0.3848   0.8157
Er24     Er     0.3333   0.5202   0.9123
Ti25     Ti     0.9154   0.6152   0.8157
Er26     Er     0.8131   0.4798   0.9123
Ti27     Ti     0.3848   0.0846   0.8157
Er28     Er     0.5202   0.1869   0.9123
Ti29     Ti     0.3848   0.3003   0.8157
Er30     Er     0.5202   0.3333   0.9123
Ti31     Ti     0.6997   0.6152   0.8157
Er32     Er     0.6667   0.4798   0.9123
Ti33     Ti     0.9154   0.3003   0.8157
Er34     Er     0.8131   0.3333   0.9123
Ti35     Ti     0.6997   0.0846   0.8157
Er36     Er     0.6667   0.1869   0.9123
Ce37     Ce     0.7489   0.0   0.7104
Ce38     Ce     0.7489   0.7489   0.7104
Ce39     Ce     0.2511   0.2511   0.7104
Ce40     Ce     0.0   0.2511   0.7104
Ce41     Ce     0.2511   0.0   0.7104
Ce42     Ce     0.0   0.7489   0.7104
Ti43     Ti     0.3003   0.9154   0.1843
Er44     Er     0.3333   0.8131   0.0877
Ti45     Ti     0.0846   0.6997   0.1843
Er46     Er     0.1869   0.6667   0.0877
Ti47     Ti     0.9154   0.6152   0.1843
Er48     Er     0.8131   0.4798   0.0877
Ti49     Ti     0.3848   0.0846   0.1843
Er50     Er     0.5202   0.1869   0.0877
Ti51     Ti     0.3848   0.3003   0.1843
Er52     Er     0.5202   0.3333   0.0877
Ti53     Ti     0.6997   0.6152   0.1843
Er54     Er     0.6667   0.4798   0.0877
Ti55     Ti     0.6152   0.9154   0.1843
Er56     Er     0.4798   0.8131   0.0877
Ti57     Ti     0.6152   0.6997   0.1843
Er58     Er     0.4798   0.6667   0.0877
Ti59     Ti     0.0846   0.3848   0.1843
Er60     Er     0.1869   0.5202   0.0877
Ti61     Ti     0.3003   0.3848   0.1843
Er62     Er     0.3333   0.5202   0.0877
Ti63     Ti     0.6997   0.0846   0.1843
Er64     Er     0.6667   0.1869   0.0877
Ti65     Ti     0.9154   0.3003   0.1843
Er66     Er     0.8131   0.3333   0.0877
Ce67     Ce     0.7489   0.0   0.2896
Ce68     Ce     0.7489   0.7489   0.2896
Ce69     Ce     0.2511   0.2511   0.2896
Ce70     Ce     0.0   0.2511   0.2896
Ce71     Ce     0.2511   0.0   0.2896
Ce72     Ce     0.0   0.7489   0.2896
loop_
_geom_bond_atom_site_label_1
_geom_bond_atom_site_label_2
_geom_bond_distance
_geom_bond_site_symmetry_2
_ccdc_geom_bond_type
V1     V6    10.0   1_455     S
V1     V2    10.0   1_565     S
V1     V7    10.0   .     S
V1     Ce42    10.0   .     S
V2     V1    10.0   1_545     S
V2     V4    10.0   .     S
V2     V8    10.0   .     S
V2     Ce41    10.0   .     S
V3     V5    10.0   1_455     S
V3     V4    10.0   .     S
V3     V9    10.0   .     S
V3     Ce40    10.0   .     S
V4     V10    10.0   .     S
V4     Ce39    10.0   .     S
V5     V3    10.0   1_655     S
V5     V6    10.0   1_545     S
V5     V11    10.0   .     S
V5     Ce37    10.0   .     S
V6     V1    10.0   1_655     S
V6     V5    10.0   1_565     S
V6     V12    10.0   .     S
V6     Ce38    10.0   .     S
V7     V12    10.0   1_455     S
V7     V8    10.0   1_565     S
V7     Ce72    10.0   .     S
V8     V7    10.0   1_545     S
V8     V10    10.0   .     S
V8     Ce71    10.0   .     S
V9     V11    10.0   1_455     S
V9     V10    10.0   .     S
V9     Ce70    10.0   .     S
V10     Ce69    10.0   .     S
V11     V9    10.0   1_655     S
V11     V12    10.0   1_545     S
V11     Ce67    10.0   .     S
V12     V7    10.0   1_655     S
V12     V11    10.0   1_565     S
V12     Ce68    10.0   .     S
Ti13     Ce42    10.0   .     S
Ti13     Ti25    10.0   1_455     S
Ti13     Er14    10.0   .     S
Er14     Er16    10.0   .     S
Er14     Er22    10.0   .     S
Er14     Er46    10.0   1_556     S
Ti15     Er16    10.0   .     S
Ti15     Ce41    10.0   1_565     S
Ti15     Ti27    10.0   1_565     S
Er16     Er18    10.0   .     S
Er16     Er44    10.0   1_556     S
Ti17     Er18    10.0   .     S
Ti17     Ti35    10.0   1_565     S
Ti17     Ce37    10.0   1_565     S
Er18     Er20    10.0   .     S
Er18     Er56    10.0   1_556     S
Ti19     Er20    10.0   .     S
Ti19     Ti31    10.0   .     S
Ti19     Ce38    10.0   .     S
Er20     Er24    10.0   .     S
Er20     Er58    10.0   1_556     S
Ti21     Er22    10.0   .     S
Ti21     Ce40    10.0   .     S
Ti21     Ti33    10.0   1_455     S
Er22     Er24    10.0   .     S
Er22     Er60    10.0   1_556     S
Ti23     Er24    10.0   .     S
Ti23     Ce39    10.0   .     S
Ti23     Ti29    10.0   .     S
Er24     Er62    10.0   1_556     S
Ti25     Ti13    10.0   1_655     S
Ti25     Ce42    10.0   1_655     S
Ti25     Er26    10.0   .     S
Er26     Er34    10.0   .     S
Er26     Er32    10.0   .     S
Er26     Er48    10.0   1_556     S
Ti27     Ti15    10.0   1_545     S
Ti27     Ce41    10.0   .     S
Ti27     Er28    10.0   .     S
Er28     Er30    10.0   .     S
Er28     Er36    10.0   .     S
Er28     Er50    10.0   1_556     S
Ti29     Ce39    10.0   .     S
Ti29     Er30    10.0   .     S
Er30     Er32    10.0   .     S
Er30     Er52    10.0   1_556     S
Ti31     Er32    10.0   .     S
Ti31     Ce38    10.0   .     S
Er32     Er54    10.0   1_556     S
Ti33     Er34    10.0   .     S
Ti33     Ti21    10.0   1_655     S
Ti33     Ce40    10.0   1_655     S
Er34     Er36    10.0   .     S
Er34     Er66    10.0   1_556     S
Ti35     Ce37    10.0   .     S
Ti35     Ti17    10.0   1_545     S
Ti35     Er36    10.0   .     S
Er36     Er64    10.0   1_556     S
Ce37     Ti17    10.0   1_545     S
Ce40     Ti33    10.0   1_455     S
Ce41     Ti15    10.0   1_545     S
Ce42     Ti25    10.0   1_455     S
Ti43     Er44    10.0   .     S
Ti43     Ce71    10.0   1_565     S
Ti43     Ti49    10.0   1_565     S
Er44     Er46    10.0   .     S
Er44     Er56    10.0   .     S
Er44     Er16    10.0   1_554     S
Ti45     Ce72    10.0   .     S
Ti45     Ti47    10.0   1_455     S
Ti45     Er46    10.0   .     S
Er46     Er60    10.0   .     S
Er46     Er14    10.0   1_554     S
Ti47     Ti45    10.0   1_655     S
Ti47     Ce72    10.0   1_655     S
Ti47     Er48    10.0   .     S
Er48     Er54    10.0   .     S
Er48     Er66    10.0   .     S
Er48     Er26    10.0   1_554     S
Ti49     Ti43    10.0   1_545     S
Ti49     Ce71    10.0   .     S
Ti49     Er50    10.0   .     S
Er50     Er64    10.0   .     S
Er50     Er52    10.0   .     S
Er50     Er28    10.0   1_554     S
Ti51     Ce69    10.0   .     S
Ti51     Ti61    10.0   .     S
Ti51     Er52    10.0   .     S
Er52     Er54    10.0   .     S
Er52     Er30    10.0   1_554     S
Ti53     Er54    10.0   .     S
Ti53     Ce68    10.0   .     S
Ti53     Ti57    10.0   .     S
Er54     Er32    10.0   1_554     S
Ti55     Er56    10.0   .     S
Ti55     Ti63    10.0   1_565     S
Ti55     Ce67    10.0   1_565     S
Er56     Er58    10.0   .     S
Er56     Er18    10.0   1_554     S
Ti57     Ce68    10.0   .     S
Ti57     Er58    10.0   .     S
Er58     Er62    10.0   .     S
Er58     Er20    10.0   1_554     S
Ti59     Er60    10.0   .     S
Ti59     Ce70    10.0   .     S
Ti59     Ti65    10.0   1_455     S
Er60     Er62    10.0   .     S
Er60     Er22    10.0   1_554     S
Ti61     Ce69    10.0   .     S
Ti61     Er62    10.0   .     S
Er62     Er24    10.0   1_554     S
Ti63     Ce67    10.0   .     S
Ti63     Ti55    10.0   1_545     S
Ti63     Er64    10.0   .     S
Er64     Er66    10.0   .     S
Er64     Er36    10.0   1_554     S
Ti65     Er66    10.0   .     S
Ti65     Ti59    10.0   1_655     S
Ti65     Ce70    10.0   1_655     S
Er66     Er34    10.0   1_554     S
Ce67     Ti55    10.0   1_545     S
Ce70     Ti65    10.0   1_455     S
Ce71     Ti43    10.0   1_545     S
Ce72     Ti47    10.0   1_455     S
