data_agw
_audit_creation_date              2020-02-02
_audit_creation_method            'Pymatgen'
_symmetry_space_group_name_H-M    'P1'
_symmetry_Int_Tables_number       1
loop_
_symmetry_equiv_pos_as_xyz
  x,y,z
_cell_length_a                    28.4795
_cell_length_b                    28.4795
_cell_length_c                    46.9327
_cell_angle_alpha                 90.0
_cell_angle_beta                 90.0
_cell_angle_gamma                 120.0
loop_
_atom_site_label
_atom_site_type_symbol
_atom_site_fract_x
_atom_site_fract_y
_atom_site_fract_z
V1     V     0.8532   0.1468   0.8969
V2     V     0.8532   0.7064   0.8969
V3     V     0.7064   0.8532   0.1031
V4     V     0.2936   0.1468   0.8969
V5     V     0.1468   0.8532   0.1031
Er6     Er     0.5   0.0   0.0
V7     V     0.1468   0.2936   0.1031
Er8     Er     0.0   0.5   0.0
Er9     Er     0.5   0.5   0.0
Ti10     Ti     0.0   0.0   0.75
V11     V     0.8532   0.1468   0.6031
V12     V     0.7064   0.8532   0.3969
V13     V     0.2936   0.1468   0.6031
V14     V     0.1468   0.8532   0.3969
Er15     Er     0.0   0.5   0.5
Er16     Er     0.5   0.0   0.5
V17     V     0.1468   0.2936   0.3969
V18     V     0.8532   0.7064   0.6031
Er19     Er     0.5   0.5   0.5
Ti20     Ti     0.0   0.0   0.25
loop_
_geom_bond_atom_site_label_1
_geom_bond_atom_site_label_2
_geom_bond_distance
_geom_bond_site_symmetry_2
_ccdc_geom_bond_type
V1     Ti10    10.0   1_655     S
V1     Er6    10.0   1_556     S
V1     Er8    10.0   1_656     S
V2     Er8    10.0   1_656     S
V2     Er9    10.0   1_556     S
V2     Ti10    10.0   1_665     S
V3     Er6    10.0   1_565     S
V3     Er9    10.0   .     S
V3     Ti20    10.0   1_665     S
V4     Er6    10.0   1_556     S
V4     Er9    10.0   1_556     S
V4     Ti10    10.0   .     S
V5     Ti20    10.0   1_565     S
V5     Er8    10.0   .     S
V5     Er6    10.0   1_565     S
Er6     V1    10.0   1_554     S
Er6     V3    10.0   1_545     S
Er6     V4    10.0   1_554     S
Er6     V5    10.0   1_545     S
V7     Er8    10.0   .     S
V7     Er9    10.0   .     S
V7     Ti20    10.0   .     S
Er8     V1    10.0   1_454     S
Er8     V2    10.0   1_454     S
Er9     V2    10.0   1_554     S
Er9     V4    10.0   1_554     S
Ti10     V1    10.0   1_455     S
Ti10     V2    10.0   1_445     S
Ti10     V11    10.0   1_455     S
Ti10     V13    10.0   .     S
Ti10     V18    10.0   1_445     S
V11     Ti10    10.0   1_655     S
V11     Er16    10.0   .     S
V11     Er15    10.0   1_655     S
V12     Er16    10.0   1_565     S
V12     Er19    10.0   .     S
V12     Ti20    10.0   1_665     S
V13     Er19    10.0   .     S
V13     Er16    10.0   .     S
V14     Ti20    10.0   1_565     S
V14     Er16    10.0   1_565     S
V14     Er15    10.0   .     S
Er15     V11    10.0   1_455     S
Er15     V17    10.0   .     S
Er15     V18    10.0   1_455     S
Er16     V12    10.0   1_545     S
Er16     V14    10.0   1_545     S
V17     Ti20    10.0   .     S
V17     Er19    10.0   .     S
V18     Ti10    10.0   1_665     S
V18     Er15    10.0   1_655     S
V18     Er19    10.0   .     S
Ti20     V5    10.0   1_545     S
Ti20     V14    10.0   1_545     S
Ti20     V12    10.0   1_445     S
Ti20     V3    10.0   1_445     S
