data_ahr
_audit_creation_date              2020-02-02
_audit_creation_method            'Pymatgen'
_symmetry_space_group_name_H-M    'P1'
_symmetry_Int_Tables_number       1
loop_
_symmetry_equiv_pos_as_xyz
  x,y,z
_cell_length_a                    25.7721
_cell_length_b                    25.7721
_cell_length_c                    63.1819
_cell_angle_alpha                 90.0
_cell_angle_beta                 90.0
_cell_angle_gamma                 120.0
loop_
_atom_site_label
_atom_site_type_symbol
_atom_site_fract_x
_atom_site_fract_y
_atom_site_fract_z
Ti1     Ti     0.2418   0.9838   0.1209
Ti2     Ti     0.4249   0.3495   0.2124
Ti3     Ti     0.0162   0.258   0.1209
Ti4     Ti     0.6505   0.0753   0.2124
Ti5     Ti     0.9247   0.5751   0.2124
Ti6     Ti     0.742   0.7582   0.1209
Er7     Er     0.3333   0.6667   0.1667
V8     V     0.6667   0.3333   0.3333
Ti9     Ti     0.5913   0.9085   0.5457
Ti10     Ti     0.4087   0.0915   0.4543
Ti11     Ti     0.3172   0.4087   0.5457
Ti12     Ti     0.6828   0.5913   0.4543
Ti13     Ti     0.0915   0.6828   0.5457
Ti14     Ti     0.9085   0.3172   0.4543
Er15     Er     0.0   0.0   0.5
Ti16     Ti     0.5751   0.6505   0.7876
Ti17     Ti     0.7582   0.0162   0.8791
Ti18     Ti     0.3495   0.9247   0.7876
Ti19     Ti     0.9838   0.742   0.8791
Ti20     Ti     0.258   0.2418   0.8791
Ti21     Ti     0.0753   0.4249   0.7876
Er22     Er     0.6667   0.3333   0.8333
V23     V     0.0   0.0   0.0
V24     V     0.3333   0.6667   0.6667
loop_
_geom_bond_atom_site_label_1
_geom_bond_atom_site_label_2
_geom_bond_distance
_geom_bond_site_symmetry_2
_ccdc_geom_bond_type
Ti1     V23    10.0   1_565     S
Ti1     Ti2    10.0   1_565     S
Ti1     Er7    10.0   .     S
Ti2     Ti1    10.0   1_545     S
Ti2     V8    10.0   .     S
Ti2     Er7    10.0   .     S
Ti3     V23    10.0   .     S
Ti3     Ti4    10.0   1_455     S
Ti3     Er7    10.0   .     S
Ti4     Ti3    10.0   1_655     S
Ti4     V8    10.0   .     S
Ti4     Er7    10.0   1_545     S
Ti5     V8    10.0   .     S
Ti5     Ti6    10.0   .     S
Ti5     Er7    10.0   1_655     S
Ti6     V23    10.0   1_665     S
Ti6     Er7    10.0   .     S
Er7     Ti5    10.0   1_455     S
Er7     Ti4    10.0   1_565     S
V8     Ti10    10.0   .     S
V8     Ti12    10.0   .     S
V8     Ti14    10.0   .     S
Ti9     V24    10.0   .     S
Ti9     Ti10    10.0   1_565     S
Ti9     Er15    10.0   1_665     S
Ti10     Ti9    10.0   1_545     S
Ti10     Er15    10.0   .     S
Ti11     V24    10.0   .     S
Ti11     Ti12    10.0   .     S
Ti11     Er15    10.0   .     S
Ti12     Er15    10.0   1_665     S
Ti13     V24    10.0   .     S
Ti13     Ti14    10.0   1_455     S
Ti13     Er15    10.0   1_565     S
Ti14     Ti13    10.0   1_655     S
Ti14     Er15    10.0   1_655     S
Er15     Ti13    10.0   1_545     S
Er15     Ti9    10.0   1_445     S
Er15     Ti12    10.0   1_445     S
Er15     Ti14    10.0   1_455     S
Ti16     V24    10.0   .     S
Ti16     Ti17    10.0   1_565     S
Ti16     Er22    10.0   .     S
Ti17     Ti16    10.0   1_545     S
Ti17     V23    10.0   1_656     S
Ti17     Er22    10.0   .     S
Ti18     V24    10.0   .     S
Ti18     Ti19    10.0   1_455     S
Ti18     Er22    10.0   1_565     S
Ti19     Ti18    10.0   1_655     S
Ti19     V23    10.0   1_666     S
Ti19     Er22    10.0   .     S
Ti20     V23    10.0   1_556     S
Ti20     Ti21    10.0   .     S
Ti20     Er22    10.0   .     S
Ti21     V24    10.0   .     S
Ti21     Er22    10.0   1_455     S
Er22     Ti18    10.0   1_545     S
Er22     Ti21    10.0   1_655     S
V23     Ti1    10.0   1_545     S
V23     Ti6    10.0   1_445     S
V23     Ti17    10.0   1_454     S
V23     Ti19    10.0   1_444     S
V23     Ti20    10.0   1_554     S
