data_alaa
_audit_creation_date              2020-02-02
_audit_creation_method            'Pymatgen'
_symmetry_space_group_name_H-M    'P1'
_symmetry_Int_Tables_number       1
loop_
_symmetry_equiv_pos_as_xyz
  x,y,z
_cell_length_a                    58.1192
_cell_length_b                    58.1192
_cell_length_c                    33.1292
_cell_angle_alpha                 90.0
_cell_angle_beta                 90.0
_cell_angle_gamma                 120.0
loop_
_atom_site_label
_atom_site_type_symbol
_atom_site_fract_x
_atom_site_fract_y
_atom_site_fract_z
V1     V     0.7685   0.3386   0.3491
V2     V     0.6614   0.4299   0.3491
V3     V     0.5701   0.2315   0.3491
V4     V     0.7685   0.3386   0.6509
V5     V     0.6614   0.4299   0.6509
V6     V     0.5701   0.2315   0.6509
Er7     Er     0.9007   0.3434   0.8491
Er8     Er     0.9007   0.3434   0.1509
Er9     Er     0.0993   0.4427   0.8491
Er10     Er     0.0993   0.4427   0.1509
Er11     Er     0.3434   0.9007   0.8491
Er12     Er     0.3434   0.9007   0.1509
Er13     Er     0.4427   0.0993   0.8491
Er14     Er     0.4427   0.0993   0.1509
Er15     Er     0.5573   0.6566   0.8491
Er16     Er     0.6566   0.5573   0.8491
Er17     Er     0.5573   0.6566   0.1509
Er18     Er     0.6566   0.5573   0.1509
Ti19     Ti     0.0   0.2714   0.0
Ce20     Ce     0.0   0.0993   0.0
Ti21     Ti     0.2714   0.0   0.0
Ce22     Ce     0.0993   0.0   0.0
Ti23     Ti     0.7286   0.7286   0.0
Ce24     Ce     0.9007   0.9007   0.0
V25     V     0.2315   0.5701   0.3491
V26     V     0.4299   0.6614   0.3491
V27     V     0.3386   0.7685   0.3491
V28     V     0.2315   0.5701   0.6509
V29     V     0.4299   0.6614   0.6509
V30     V     0.3386   0.7685   0.6509
loop_
_geom_bond_atom_site_label_1
_geom_bond_atom_site_label_2
_geom_bond_distance
_geom_bond_site_symmetry_2
_ccdc_geom_bond_type
V1     V3    10.0   .     S
V1     V2    10.0   .     S
V1     V4    10.0   .     S
V1     Er8    10.0   .     S
V2     V3    10.0   .     S
V2     V5    10.0   .     S
V2     Er18    10.0   .     S
V3     V6    10.0   .     S
V3     Er14    10.0   .     S
V4     V6    10.0   .     S
V4     V5    10.0   .     S
V4     Er7    10.0   .     S
V5     V6    10.0   .     S
V5     Er16    10.0   .     S
V6     Er13    10.0   .     S
Er7     Ti19    10.0   1_656     S
Er7     Er8    10.0   1_556     S
Er7     Er9    10.0   1_655     S
Er8     Er7    10.0   1_554     S
Er8     Ti19    10.0   1_655     S
Er8     Er10    10.0   1_655     S
Er9     Er10    10.0   1_556     S
Er9     Ti19    10.0   1_556     S
Er9     Er7    10.0   1_455     S
Er9     V28    10.0   .     S
Er10     Er9    10.0   1_554     S
Er10     Ti19    10.0   .     S
Er10     Er8    10.0   1_455     S
Er10     V25    10.0   .     S
Er11     Ti21    10.0   1_566     S
Er11     Er12    10.0   1_556     S
Er11     Er13    10.0   1_565     S
Er11     V30    10.0   .     S
Er12     Er11    10.0   1_554     S
Er12     Ti21    10.0   1_565     S
Er12     Er14    10.0   1_565     S
Er12     V27    10.0   .     S
Er13     Ti21    10.0   1_556     S
Er13     Er14    10.0   1_556     S
Er13     Er11    10.0   1_545     S
Er14     Er13    10.0   1_554     S
Er14     Ti21    10.0   .     S
Er14     Er12    10.0   1_545     S
Er15     Ti23    10.0   1_556     S
Er15     Er16    10.0   .     S
Er15     Er17    10.0   1_556     S
Er15     V29    10.0   .     S
Er16     Ti23    10.0   1_556     S
Er16     Er18    10.0   1_556     S
Er17     Er15    10.0   1_554     S
Er17     Ti23    10.0   .     S
Er17     Er18    10.0   .     S
Er17     V26    10.0   .     S
Er18     Er16    10.0   1_554     S
Er18     Ti23    10.0   .     S
Ti19     Er7    10.0   1_454     S
Ti19     Er8    10.0   1_455     S
Ti19     Er9    10.0   1_554     S
Ti19     Ce20    10.0   .     S
Ce20     Ce24    10.0   1_445     S
Ce20     Ce22    10.0   .     S
Ti21     Er11    10.0   1_544     S
Ti21     Er12    10.0   1_545     S
Ti21     Er13    10.0   1_554     S
Ti21     Ce22    10.0   .     S
Ce22     Ce24    10.0   1_445     S
Ti23     Er15    10.0   1_554     S
Ti23     Er16    10.0   1_554     S
Ti23     Ce24    10.0   .     S
Ce24     Ce22    10.0   1_665     S
Ce24     Ce20    10.0   1_665     S
V25     V26    10.0   .     S
V25     V27    10.0   .     S
V25     V28    10.0   .     S
V26     V27    10.0   .     S
V26     V29    10.0   .     S
V27     V30    10.0   .     S
V28     V30    10.0   .     S
V28     V29    10.0   .     S
V29     V30    10.0   .     S
