data_albx
_audit_creation_date              2020-02-02
_audit_creation_method            'Pymatgen'
_symmetry_space_group_name_H-M    'P1'
_symmetry_Int_Tables_number       1
loop_
_symmetry_equiv_pos_as_xyz
  x,y,z
_cell_length_a                    25.2606
_cell_length_b                    25.2606
_cell_length_c                    26.0042
_cell_angle_alpha                 90.0
_cell_angle_beta                 90.0
_cell_angle_gamma                 120.0
loop_
_atom_site_label
_atom_site_type_symbol
_atom_site_fract_x
_atom_site_fract_y
_atom_site_fract_z
V1     V     0.1667   0.3333   0.0
V2     V     0.1667   0.3333   0.5
V3     V     0.1667   0.8333   0.0
V4     V     0.1667   0.8333   0.5
V5     V     0.6667   0.3333   0.0
V6     V     0.6667   0.3333   0.5
V7     V     0.6667   0.8333   0.0
V8     V     0.6667   0.8333   0.5
V9     V     0.3333   0.1667   0.0
V10     V     0.3333   0.1667   0.5
V11     V     0.3333   0.6667   0.0
V12     V     0.3333   0.6667   0.5
V13     V     0.8333   0.1667   0.0
V14     V     0.8333   0.1667   0.5
V15     V     0.8333   0.6667   0.0
V16     V     0.8333   0.6667   0.5
Er17     Er     0.0   0.0   0.25
Er18     Er     0.0   0.0   0.75
Er19     Er     0.0   0.5   0.25
Er20     Er     0.0   0.5   0.75
Er21     Er     0.5   0.0   0.25
Er22     Er     0.5   0.0   0.75
Er23     Er     0.5   0.5   0.25
Er24     Er     0.5   0.5   0.75
loop_
_geom_bond_atom_site_label_1
_geom_bond_atom_site_label_2
_geom_bond_distance
_geom_bond_site_symmetry_2
_ccdc_geom_bond_type
V1     V9    7.292   .     S
V1     V11    7.292   .     S
V1     V13    7.292   1_455     S
V1     Er20    9.769   1_554     S
V1     Er24    9.769   1_554     S
V1     Er18    9.769   1_554     S
V1     Er19    9.769   .     S
V1     Er23    9.769   .     S
V1     Er17    9.769   .     S
V2     V10    7.292   .     S
V2     V12    7.292   .     S
V2     V14    7.292   1_455     S
V2     Er19    9.769   .     S
V2     Er23    9.769   .     S
V2     Er17    9.769   .     S
V2     Er20    9.769   .     S
V2     Er24    9.769   .     S
V2     Er18    9.769   .     S
V3     V11    7.292   .     S
V3     V9    7.292   1_565     S
V3     V15    7.292   1_455     S
V3     Er18    9.769   1_564     S
V3     Er22    9.769   1_564     S
V3     Er20    9.769   1_554     S
V3     Er17    9.769   1_565     S
V3     Er21    9.769   1_565     S
V3     Er19    9.769   .     S
V4     V12    7.292   .     S
V4     V10    7.292   1_565     S
V4     V16    7.292   1_455     S
V4     Er17    9.769   1_565     S
V4     Er21    9.769   1_565     S
V4     Er19    9.769   .     S
V4     Er18    9.769   1_565     S
V4     Er22    9.769   1_565     S
V4     Er20    9.769   .     S
V5     V13    7.292   .     S
V5     V15    7.292   .     S
V5     V9    7.292   .     S
V5     Er24    9.769   1_554     S
V5     Er20    9.769   1_654     S
V5     Er22    9.769   1_554     S
V5     Er23    9.769   .     S
V5     Er19    9.769   1_655     S
V5     Er21    9.769   .     S
V6     V14    7.292   .     S
V6     V16    7.292   .     S
V6     V10    7.292   .     S
V6     Er23    9.769   .     S
V6     Er19    9.769   1_655     S
V6     Er21    9.769   .     S
V6     Er24    9.769   .     S
V6     Er20    9.769   1_655     S
V6     Er22    9.769   .     S
V7     V15    7.292   .     S
V7     V13    7.292   1_565     S
V7     V11    7.292   .     S
V7     Er22    9.769   1_564     S
V7     Er18    9.769   1_664     S
V7     Er24    9.769   1_554     S
V7     Er21    9.769   1_565     S
V7     Er17    9.769   1_665     S
V7     Er23    9.769   .     S
V8     V16    7.292   .     S
V8     V14    7.292   1_565     S
V8     V12    7.292   .     S
V8     Er21    9.769   1_565     S
V8     Er17    9.769   1_665     S
V8     Er23    9.769   .     S
V8     Er22    9.769   1_565     S
V8     Er18    9.769   1_665     S
V8     Er24    9.769   .     S
V9     V3    7.292   1_545     S
V9     Er24    9.769   1_554     S
V9     Er18    9.769   1_554     S
V9     Er22    9.769   1_554     S
V9     Er23    9.769   .     S
V9     Er17    9.769   .     S
V9     Er21    9.769   .     S
V10     V4    7.292   1_545     S
V10     Er23    9.769   .     S
V10     Er17    9.769   .     S
V10     Er21    9.769   .     S
V10     Er24    9.769   .     S
V10     Er18    9.769   .     S
V10     Er22    9.769   .     S
V11     Er22    9.769   1_564     S
V11     Er20    9.769   1_554     S
V11     Er24    9.769   1_554     S
V11     Er21    9.769   1_565     S
V11     Er19    9.769   .     S
V11     Er23    9.769   .     S
V12     Er21    9.769   1_565     S
V12     Er19    9.769   .     S
V12     Er23    9.769   .     S
V12     Er22    9.769   1_565     S
V12     Er20    9.769   .     S
V12     Er24    9.769   .     S
V13     V7    7.292   1_545     S
V13     V1    7.292   1_655     S
V13     Er20    9.769   1_654     S
V13     Er22    9.769   1_554     S
V13     Er18    9.769   1_654     S
V13     Er19    9.769   1_655     S
V13     Er21    9.769   .     S
V13     Er17    9.769   1_655     S
V14     V8    7.292   1_545     S
V14     V2    7.292   1_655     S
V14     Er19    9.769   1_655     S
V14     Er21    9.769   .     S
V14     Er17    9.769   1_655     S
V14     Er20    9.769   1_655     S
V14     Er22    9.769   .     S
V14     Er18    9.769   1_655     S
V15     V3    7.292   1_655     S
V15     Er18    9.769   1_664     S
V15     Er24    9.769   1_554     S
V15     Er20    9.769   1_654     S
V15     Er17    9.769   1_665     S
V15     Er23    9.769   .     S
V15     Er19    9.769   1_655     S
V16     V4    7.292   1_655     S
V16     Er17    9.769   1_665     S
V16     Er23    9.769   .     S
V16     Er19    9.769   1_655     S
V16     Er18    9.769   1_665     S
V16     Er24    9.769   .     S
V16     Er20    9.769   1_655     S
Er17     Er18    13.002   1_554     S
Er17     Er18    13.002   .     S
Er17     V4    9.769   1_545     S
Er17     V16    9.769   1_445     S
Er17     V8    9.769   1_445     S
Er17     V14    9.769   1_455     S
Er17     V3    9.769   1_545     S
Er17     V15    9.769   1_445     S
Er17     V7    9.769   1_445     S
Er17     V13    9.769   1_455     S
Er17     Er19    12.63   .     S
Er17     Er19    12.63   1_545     S
Er17     Er21    12.63   .     S
Er17     Er21    12.63   1_455     S
Er17     Er23    12.63   .     S
Er17     Er23    12.63   1_445     S
Er18     Er17    13.002   1_556     S
Er18     V3    9.769   1_546     S
Er18     V15    9.769   1_446     S
Er18     V7    9.769   1_446     S
Er18     V9    9.769   1_556     S
Er18     V1    9.769   1_556     S
Er18     V13    9.769   1_456     S
Er18     V4    9.769   1_545     S
Er18     V16    9.769   1_445     S
Er18     V8    9.769   1_445     S
Er18     V14    9.769   1_455     S
Er18     Er20    12.63   .     S
Er18     Er20    12.63   1_545     S
Er18     Er22    12.63   .     S
Er18     Er22    12.63   1_455     S
Er18     Er24    12.63   .     S
Er18     Er24    12.63   1_445     S
Er19     Er20    13.002   1_554     S
Er19     Er20    13.002   .     S
Er19     V14    9.769   1_455     S
Er19     V6    9.769   1_455     S
Er19     V16    9.769   1_455     S
Er19     V13    9.769   1_455     S
Er19     V5    9.769   1_455     S
Er19     V15    9.769   1_455     S
Er19     Er17    12.63   1_565     S
Er19     Er23    12.63   .     S
Er19     Er23    12.63   1_455     S
Er19     Er21    12.63   1_565     S
Er19     Er21    12.63   1_455     S
Er20     Er19    13.002   1_556     S
Er20     V1    9.769   1_556     S
Er20     V13    9.769   1_456     S
Er20     V5    9.769   1_456     S
Er20     V11    9.769   1_556     S
Er20     V3    9.769   1_556     S
Er20     V15    9.769   1_456     S
Er20     V14    9.769   1_455     S
Er20     V6    9.769   1_455     S
Er20     V16    9.769   1_455     S
Er20     Er18    12.63   1_565     S
Er20     Er24    12.63   .     S
Er20     Er24    12.63   1_455     S
Er20     Er22    12.63   1_565     S
Er20     Er22    12.63   1_455     S
Er21     Er22    13.002   1_554     S
Er21     Er22    13.002   .     S
Er21     V8    9.769   1_545     S
Er21     V12    9.769   1_545     S
Er21     V4    9.769   1_545     S
Er21     V7    9.769   1_545     S
Er21     V11    9.769   1_545     S
Er21     V3    9.769   1_545     S
Er21     Er23    12.63   .     S
Er21     Er23    12.63   1_545     S
Er21     Er17    12.63   1_655     S
Er21     Er19    12.63   1_545     S
Er21     Er19    12.63   1_655     S
Er22     Er21    13.002   1_556     S
Er22     V7    9.769   1_546     S
Er22     V11    9.769   1_546     S
Er22     V3    9.769   1_546     S
Er22     V13    9.769   1_556     S
Er22     V5    9.769   1_556     S
Er22     V9    9.769   1_556     S
Er22     V8    9.769   1_545     S
Er22     V12    9.769   1_545     S
Er22     V4    9.769   1_545     S
Er22     Er24    12.63   .     S
Er22     Er24    12.63   1_545     S
Er22     Er18    12.63   1_655     S
Er22     Er20    12.63   1_545     S
Er22     Er20    12.63   1_655     S
Er23     Er24    13.002   1_554     S
Er23     Er24    13.002   .     S
Er23     Er21    12.63   1_565     S
Er23     Er19    12.63   1_655     S
Er23     Er17    12.63   1_665     S
Er24     Er23    13.002   1_556     S
Er24     V5    9.769   1_556     S
Er24     V9    9.769   1_556     S
Er24     V1    9.769   1_556     S
Er24     V15    9.769   1_556     S
Er24     V7    9.769   1_556     S
Er24     V11    9.769   1_556     S
Er24     Er22    12.63   1_565     S
Er24     Er20    12.63   1_655     S
Er24     Er18    12.63   1_665     S
