data_alca
_audit_creation_date              2020-02-02
_audit_creation_method            'Pymatgen'
_symmetry_space_group_name_H-M    'P1'
_symmetry_Int_Tables_number       1
loop_
_symmetry_equiv_pos_as_xyz
  x,y,z
_cell_length_a                    69.9706
_cell_length_b                    69.9706
_cell_length_c                    33.965
_cell_angle_alpha                 90.0
_cell_angle_beta                 90.0
_cell_angle_gamma                 120.0
loop_
_atom_site_label
_atom_site_type_symbol
_atom_site_fract_x
_atom_site_fract_y
_atom_site_fract_z
Ce1     Ce     0.1904   0.5238   0.6472
Ce2     Ce     0.3333   0.5238   0.6472
Ce3     Ce     0.1904   0.5238   0.3528
Ce4     Ce     0.3333   0.5238   0.3528
Ce5     Ce     0.4762   0.8096   0.6472
Ce6     Ce     0.4762   0.8096   0.3528
Ce7     Ce     0.4762   0.6667   0.3528
Ce8     Ce     0.4762   0.6667   0.6472
Ce9     Ce     0.1904   0.6667   0.3528
Ce10     Ce     0.3333   0.8096   0.3528
Ce11     Ce     0.1904   0.6667   0.6472
Ce12     Ce     0.3333   0.8096   0.6472
Ce13     Ce     0.5238   0.1904   0.6472
Ce14     Ce     0.5238   0.3333   0.6472
Ce15     Ce     0.5238   0.1904   0.3528
Ce16     Ce     0.5238   0.3333   0.3528
Ce17     Ce     0.6667   0.1904   0.6472
Ce18     Ce     0.8096   0.3333   0.6472
Ce19     Ce     0.6667   0.1904   0.3528
Ce20     Ce     0.8096   0.3333   0.3528
Ce21     Ce     0.8096   0.4762   0.3528
Ce22     Ce     0.8096   0.4762   0.6472
Ce23     Ce     0.6667   0.4762   0.6472
Ce24     Ce     0.6667   0.4762   0.3528
Er25     Er     0.9175   0.5718   0.1472
Er26     Er     0.0825   0.6544   0.1472
Er27     Er     0.9175   0.5718   0.8528
Er28     Er     0.0825   0.6544   0.8528
Er29     Er     0.6544   0.5718   0.1472
Er30     Er     0.5718   0.6544   0.1472
Er31     Er     0.6544   0.5718   0.8528
Er32     Er     0.5718   0.6544   0.8528
Er33     Er     0.4282   0.0825   0.1472
Er34     Er     0.3456   0.9175   0.1472
Er35     Er     0.4282   0.0825   0.8528
Er36     Er     0.3456   0.9175   0.8528
Er37     Er     0.6544   0.0825   0.1472
Er38     Er     0.5718   0.9175   0.1472
Er39     Er     0.6544   0.0825   0.8528
Er40     Er     0.5718   0.9175   0.8528
Er41     Er     0.0825   0.4282   0.1472
Er42     Er     0.9175   0.3456   0.1472
Er43     Er     0.0825   0.4282   0.8528
Er44     Er     0.9175   0.3456   0.8528
Er45     Er     0.3456   0.4282   0.1472
Er46     Er     0.4282   0.3456   0.1472
Er47     Er     0.4282   0.3456   0.8528
Er48     Er     0.3456   0.4282   0.8528
V49     V     0.7142   0.0   0.0
V50     V     0.0   0.7142   0.0
V51     V     0.7142   0.7142   0.0
V52     V     0.2858   0.2858   0.0
V53     V     0.2858   0.0   0.0
Ti54     Ti     0.8571   0.8571   0.0
Ti55     Ti     0.0   0.8571   0.0
Ti56     Ti     0.8571   0.0   0.0
Ti57     Ti     0.1429   0.1429   0.0
Ti58     Ti     0.0   0.1429   0.0
Ti59     Ti     0.1429   0.0   0.0
V60     V     0.0   0.2858   0.0
loop_
_geom_bond_atom_site_label_1
_geom_bond_atom_site_label_2
_geom_bond_distance
_geom_bond_site_symmetry_2
_ccdc_geom_bond_type
Ce1     Ce2    9.999   .     S
Ce1     Ce3    10.0   .     S
Ce1     Ce11    10.0   .     S
Ce1     Er43    10.0   .     S
Ce2     Ce4    10.0   .     S
Ce2     Ce8    10.0   .     S
Ce2     Er48    10.0   .     S
Ce3     Ce4    9.999   .     S
Ce3     Ce9    10.0   .     S
Ce3     Er41    10.0   .     S
Ce4     Ce7    10.0   .     S
Ce4     Er45    10.0   .     S
Ce5     Ce8    9.999   .     S
Ce5     Ce6    10.0   .     S
Ce5     Ce12    10.0   .     S
Ce5     Er40    10.0   .     S
Ce6     Ce7    9.999   .     S
Ce6     Ce10    10.0   .     S
Ce6     Er38    10.0   .     S
Ce7     Ce8    10.0   .     S
Ce7     Er30    10.0   .     S
Ce8     Er32    10.0   .     S
Ce9     Ce10    9.999   .     S
Ce9     Ce11    10.0   .     S
Ce9     Er26    10.0   .     S
Ce10     Ce12    10.0   .     S
Ce10     Er34    10.0   .     S
Ce11     Ce12    9.999   .     S
Ce11     Er28    10.0   .     S
Ce12     Er36    10.0   .     S
Ce13     Ce14    9.999   .     S
Ce13     Ce15    10.0   .     S
Ce13     Ce17    10.0   .     S
Ce13     Er35    10.0   .     S
Ce14     Ce16    10.0   .     S
Ce14     Ce23    10.0   .     S
Ce14     Er47    10.0   .     S
Ce15     Ce16    9.999   .     S
Ce15     Ce19    10.0   .     S
Ce15     Er33    10.0   .     S
Ce16     Ce24    10.0   .     S
Ce16     Er46    10.0   .     S
Ce17     Ce18    9.999   .     S
Ce17     Ce19    10.0   .     S
Ce17     Er39    10.0   .     S
Ce18     Ce20    10.0   .     S
Ce18     Ce22    10.0   .     S
Ce18     Er44    10.0   .     S
Ce19     Ce20    9.999   .     S
Ce19     Er37    10.0   .     S
Ce20     Ce21    10.0   .     S
Ce20     Er42    10.0   .     S
Ce21     Ce24    9.999   .     S
Ce21     Ce22    10.0   .     S
Ce21     Er25    10.0   .     S
Ce22     Ce23    9.999   .     S
Ce22     Er27    10.0   .     S
Ce23     Ce24    10.0   .     S
Ce23     Er31    10.0   .     S
Ce24     Er29    10.0   .     S
Er25     V50    10.0   1_655     S
Er25     Er26    10.0   1_655     S
Er25     Er27    10.0   1_554     S
Er26     V50    10.0   .     S
Er26     Er25    10.0   1_455     S
Er26     Er28    10.0   1_554     S
Er27     V50    10.0   1_656     S
Er27     Er28    10.0   1_655     S
Er27     Er25    10.0   1_556     S
Er28     V50    10.0   1_556     S
Er28     Er27    10.0   1_455     S
Er28     Er26    10.0   1_556     S
Er29     V51    10.0   .     S
Er29     Er30    10.0   .     S
Er29     Er31    10.0   1_554     S
Er30     V51    10.0   .     S
Er30     Er32    10.0   1_554     S
Er31     V51    10.0   1_556     S
Er31     Er32    10.0   .     S
Er31     Er29    10.0   1_556     S
Er32     V51    10.0   1_556     S
Er32     Er30    10.0   1_556     S
Er33     V53    10.0   .     S
Er33     Er34    10.0   1_545     S
Er33     Er35    10.0   1_554     S
Er34     V53    10.0   1_565     S
Er34     Er33    10.0   1_565     S
Er34     Er36    10.0   1_554     S
Er35     V53    10.0   1_556     S
Er35     Er36    10.0   1_545     S
Er35     Er33    10.0   1_556     S
Er36     V53    10.0   1_566     S
Er36     Er35    10.0   1_565     S
Er36     Er34    10.0   1_556     S
Er37     V49    10.0   .     S
Er37     Er38    10.0   1_545     S
Er37     Er39    10.0   1_554     S
Er38     V49    10.0   1_565     S
Er38     Er37    10.0   1_565     S
Er38     Er40    10.0   1_554     S
Er39     V49    10.0   1_556     S
Er39     Er40    10.0   1_545     S
Er39     Er37    10.0   1_556     S
Er40     V49    10.0   1_566     S
Er40     Er39    10.0   1_565     S
Er40     Er38    10.0   1_556     S
Er41     V60    10.0   .     S
Er41     Er42    10.0   1_455     S
Er41     Er43    10.0   1_554     S
Er42     V60    10.0   1_655     S
Er42     Er41    10.0   1_655     S
Er42     Er44    10.0   1_554     S
Er43     V60    10.0   1_556     S
Er43     Er44    10.0   1_455     S
Er43     Er41    10.0   1_556     S
Er44     V60    10.0   1_656     S
Er44     Er43    10.0   1_655     S
Er44     Er42    10.0   1_556     S
Er45     V52    10.0   .     S
Er45     Er46    10.0   .     S
Er45     Er48    10.0   1_554     S
Er46     V52    10.0   .     S
Er46     Er47    10.0   1_554     S
Er47     V52    10.0   1_556     S
Er47     Er48    10.0   .     S
Er47     Er46    10.0   1_556     S
Er48     V52    10.0   1_556     S
Er48     Er45    10.0   1_556     S
V49     Er38    10.0   1_545     S
V49     Er39    10.0   1_554     S
V49     Er40    10.0   1_544     S
V49     Ti56    10.0   .     S
V50     Er25    10.0   1_455     S
V50     Er27    10.0   1_454     S
V50     Er28    10.0   1_554     S
V50     Ti55    10.0   .     S
V51     Er31    10.0   1_554     S
V51     Er32    10.0   1_554     S
V51     Ti54    10.0   .     S
V52     Er47    10.0   1_554     S
V52     Er48    10.0   1_554     S
V52     Ti57    10.0   .     S
V53     Er34    10.0   1_545     S
V53     Er35    10.0   1_554     S
V53     Er36    10.0   1_544     S
V53     Ti59    10.0   .     S
Ti54     Ti55    10.0   1_655     S
Ti54     Ti56    10.0   1_565     S
Ti55     Ti54    10.0   1_455     S
Ti55     Ti59    10.0   1_565     S
Ti56     Ti54    10.0   1_545     S
Ti56     Ti58    10.0   1_655     S
Ti57     Ti58    10.0   .     S
Ti57     Ti59    10.0   .     S
Ti58     Ti56    10.0   1_455     S
Ti58     V60    10.0   .     S
Ti59     Ti55    10.0   1_545     S
V60     Er42    10.0   1_455     S
V60     Er43    10.0   1_554     S
V60     Er44    10.0   1_454     S
