data_alw
_audit_creation_date              2020-02-02
_audit_creation_method            'Pymatgen'
_symmetry_space_group_name_H-M    'P1'
_symmetry_Int_Tables_number       1
loop_
_symmetry_equiv_pos_as_xyz
  x,y,z
_cell_length_a                    36.1213
_cell_length_b                    25.3676
_cell_length_c                    25.6835
_cell_angle_alpha                 90.0
_cell_angle_beta                 90.0
_cell_angle_gamma                 90.0
loop_
_atom_site_label
_atom_site_type_symbol
_atom_site_fract_x
_atom_site_fract_y
_atom_site_fract_z
Er1     Er     0.1514   0.3787   0.1029
Ti2     Ti     0.1071   0.7431   0.968
V3     V     0.0   0.968   0.25
Er4     Er     0.8486   0.3787   0.3971
Ti5     Ti     0.8929   0.7431   0.532
Er6     Er     0.8486   0.6213   0.8971
Ti7     Ti     0.8929   0.2569   0.032
V8     V     0.0   0.032   0.75
Er9     Er     0.1514   0.6213   0.6029
Ti10     Ti     0.1071   0.2569   0.468
Er11     Er     0.6514   0.1213   0.8971
Ti12     Ti     0.6071   0.7569   0.0321
V13     V     0.5   0.532   0.75
Er14     Er     0.3486   0.1213   0.6029
Ti15     Ti     0.3929   0.7569   0.468
Er16     Er     0.3486   0.8787   0.1029
Ti17     Ti     0.3929   0.2431   0.968
V18     V     0.5   0.468   0.25
Er19     Er     0.6514   0.8787   0.3971
Ti20     Ti     0.6071   0.2431   0.532
loop_
_geom_bond_atom_site_label_1
_geom_bond_atom_site_label_2
_geom_bond_distance
_geom_bond_site_symmetry_2
_ccdc_geom_bond_type
Er1     Ti7    10.0   1_455     S
Er1     Ti10    10.0   .     S
Er1     Ti2    10.0   1_554     S
Er1     Ti17    10.0   1_554     S
Ti2     Er16    10.0   1_556     S
Ti2     Er1    10.0   1_556     S
Ti2     V3    10.0   1_556     S
Ti2     Er6    10.0   1_455     S
Ti2     V8    10.0   1_565     S
Ti2     Er9    10.0   .     S
V3     Ti2    10.0   1_554     S
V3     Ti10    10.0   1_565     S
V3     Ti7    10.0   1_465     S
V3     Ti5    10.0   1_455     S
Er4     Ti10    10.0   1_655     S
Er4     Ti7    10.0   .     S
Er4     Ti5    10.0   .     S
Er4     Ti20    10.0   .     S
Ti5     Er19    10.0   .     S
Ti5     V3    10.0   1_655     S
Ti5     Er6    10.0   .     S
Ti5     V8    10.0   1_665     S
Ti5     Er9    10.0   1_655     S
Er6     Ti2    10.0   1_655     S
Er6     Ti7    10.0   1_556     S
Er6     Ti12    10.0   1_556     S
Ti7     Er1    10.0   1_655     S
Ti7     V3    10.0   1_645     S
Ti7     Er11    10.0   1_554     S
Ti7     Er6    10.0   1_554     S
Ti7     V8    10.0   1_654     S
V8     Ti7    10.0   1_456     S
V8     Ti5    10.0   1_445     S
V8     Ti2    10.0   1_545     S
V8     Ti10    10.0   .     S
Er9     Ti5    10.0   1_455     S
Er9     Ti10    10.0   .     S
Er9     Ti15    10.0   .     S
Ti10     V3    10.0   1_545     S
Ti10     Er4    10.0   1_455     S
Ti10     Er14    10.0   .     S
Er11     Ti7    10.0   1_556     S
Er11     Ti17    10.0   .     S
Er11     Ti20    10.0   .     S
Er11     Ti12    10.0   1_546     S
Ti12     Er6    10.0   1_554     S
Ti12     Er11    10.0   1_564     S
Ti12     V13    10.0   1_554     S
Ti12     Er16    10.0   .     S
Ti12     V18    10.0   .     S
Ti12     Er19    10.0   .     S
V13     Ti12    10.0   1_556     S
V13     Ti17    10.0   .     S
V13     Ti20    10.0   .     S
V13     Ti15    10.0   .     S
Er14     Ti20    10.0   .     S
Er14     Ti17    10.0   .     S
Er14     Ti15    10.0   1_545     S
Ti15     Er14    10.0   1_565     S
Ti15     Er16    10.0   .     S
Ti15     V18    10.0   .     S
Ti15     Er19    10.0   .     S
Er16     Ti2    10.0   1_554     S
Er16     Ti17    10.0   1_564     S
Ti17     Er1    10.0   1_556     S
Ti17     Er16    10.0   1_546     S
Ti17     V18    10.0   1_556     S
V18     Ti17    10.0   1_554     S
V18     Ti20    10.0   .     S
Er19     Ti20    10.0   1_565     S
Ti20     Er19    10.0   1_545     S
