data_amn
_audit_creation_date              2020-02-02
_audit_creation_method            'Pymatgen'
_symmetry_space_group_name_H-M    'P1'
_symmetry_Int_Tables_number       1
loop_
_symmetry_equiv_pos_as_xyz
  x,y,z
_cell_length_a                    33.7942
_cell_length_b                    33.7942
_cell_length_c                    33.7942
_cell_angle_alpha                 90.0
_cell_angle_beta                 90.0
_cell_angle_gamma                 90.0
loop_
_atom_site_label
_atom_site_type_symbol
_atom_site_fract_x
_atom_site_fract_y
_atom_site_fract_z
Ti1     Ti     0.6441   0.6441   0.9678
Ce2     Ce     0.4126   0.4126   0.2215
Ce3     Ce     0.5874   0.5874   0.2215
Ti4     Ti     0.3559   0.3559   0.9678
Ti5     Ti     0.6441   0.9678   0.6441
Ce6     Ce     0.4126   0.2215   0.4126
Ce7     Ce     0.5874   0.2215   0.5874
Ti8     Ti     0.3559   0.9678   0.3559
Ti9     Ti     0.9678   0.6441   0.6441
Ce10     Ce     0.2215   0.5874   0.5874
Ce11     Ce     0.2215   0.4126   0.4126
Ti12     Ti     0.9678   0.3559   0.3559
Ce13     Ce     0.7785   0.5874   0.4126
Ce14     Ce     0.7785   0.4126   0.5874
Ti15     Ti     0.0322   0.3559   0.6441
Ti16     Ti     0.0322   0.6441   0.3559
Ce17     Ce     0.4126   0.5874   0.7785
Ce18     Ce     0.5874   0.4126   0.7785
Ti19     Ti     0.6441   0.3559   0.0322
Ti20     Ti     0.3559   0.6441   0.0322
Ce21     Ce     0.4126   0.7785   0.5874
Ce22     Ce     0.5874   0.7785   0.4126
Ti23     Ti     0.6441   0.0322   0.3559
Ti24     Ti     0.3559   0.0322   0.6441
Ce25     Ce     0.0874   0.0874   0.7215
Ce26     Ce     0.9126   0.9126   0.7215
Ti27     Ti     0.8559   0.8559   0.4678
Ti28     Ti     0.1441   0.1441   0.4678
Ce29     Ce     0.0874   0.7215   0.0874
Ce30     Ce     0.9126   0.7215   0.9126
Ti31     Ti     0.8559   0.4678   0.8559
Ti32     Ti     0.1441   0.4678   0.1441
Ce33     Ce     0.7215   0.9126   0.9126
Ce34     Ce     0.7215   0.0874   0.0874
Ti35     Ti     0.4678   0.1441   0.1441
Ti36     Ti     0.4678   0.8559   0.8559
Ti37     Ti     0.5322   0.1441   0.8559
Ce38     Ce     0.2785   0.0874   0.9126
Ce39     Ce     0.2785   0.9126   0.0874
Ti40     Ti     0.5322   0.8559   0.1441
Ti41     Ti     0.8559   0.1441   0.5322
Ce42     Ce     0.9126   0.0874   0.2785
Ce43     Ce     0.0874   0.9126   0.2785
Ti44     Ti     0.1441   0.8559   0.5322
Ti45     Ti     0.8559   0.5322   0.1441
Ce46     Ce     0.9126   0.2785   0.0874
Ce47     Ce     0.0874   0.2785   0.9126
Ti48     Ti     0.1441   0.5322   0.8559
Er49     Er     0.6886   0.6886   0.6886
Er50     Er     0.6886   0.3114   0.3114
Er51     Er     0.3114   0.3114   0.6886
Er52     Er     0.3114   0.6886   0.3114
Er53     Er     0.1886   0.8114   0.8114
Er54     Er     0.8114   0.1886   0.8114
Er55     Er     0.1886   0.1886   0.1886
Er56     Er     0.8114   0.8114   0.1886
V57     V     0.0   0.0   0.0
V58     V     0.5   0.5   0.5
loop_
_geom_bond_atom_site_label_1
_geom_bond_atom_site_label_2
_geom_bond_distance
_geom_bond_site_symmetry_2
_ccdc_geom_bond_type
Ti1     Er56    10.936   1_556     S
Ti1     Ti45    10.051   1_556     S
Ti1     Ti40    10.051   1_556     S
Ti1     Ti31    10.051   .     S
Ti1     Ti36    10.051   .     S
Ti1     Ce18    10.286   .     S
Ti1     Ce17    10.286   .     S
Ti1     Ce3    8.992   1_556     S
Ti1     Ti19    9.981   1_556     S
Ti1     Ti20    9.981   1_556     S
Ti1     Er49    9.673   .     S
Ti1     Ce30    9.625   .     S
Ti1     Ce33    9.625   .     S
Ce2     V58    10.297   .     S
Ce2     Ti19    10.286   .     S
Ce2     Ti20    10.286   .     S
Ce2     Ce3    8.352   .     S
Ce2     Ti4    8.992   1_554     S
Ce2     Er52    10.387   .     S
Ce2     Er50    10.387   .     S
Ce2     Ce6    9.135   .     S
Ce2     Ce11    9.135   .     S
Ce2     Er55    10.767   .     S
Ce2     Ti32    9.625   .     S
Ce2     Ti35    9.625   .     S
Ce3     V58    10.297   .     S
Ce3     Ti19    10.286   .     S
Ce3     Ti20    10.286   .     S
Ce3     Ti1    8.992   1_554     S
Ce3     Er52    10.387   .     S
Ce3     Er50    10.387   .     S
Ce3     Ce22    9.135   .     S
Ce3     Ce13    9.135   .     S
Ce3     Er56    10.767   .     S
Ce3     Ti45    9.625   .     S
Ce3     Ti40    9.625   .     S
Ti4     Er55    10.936   1_556     S
Ti4     Ti37    10.051   .     S
Ti4     Ti48    10.051   .     S
Ti4     Ti32    10.051   1_556     S
Ti4     Ti35    10.051   1_556     S
Ti4     Ce17    10.286   .     S
Ti4     Ce18    10.286   .     S
Ti4     Ce2    8.992   1_556     S
Ti4     Ti19    9.981   1_556     S
Ti4     Ti20    9.981   1_556     S
Ti4     Er51    9.673   .     S
Ti4     Ce38    9.625   .     S
Ti4     Ce47    9.625   .     S
Ti5     Er54    10.936   1_565     S
Ti5     Ti37    10.051   1_565     S
Ti5     Ti41    10.051   1_565     S
Ti5     Ti27    10.051   .     S
Ti5     Ti36    10.051   .     S
Ti5     Ce22    10.286   .     S
Ti5     Ce21    10.286   .     S
Ti5     Ce7    8.992   1_565     S
Ti5     Ti24    9.981   1_565     S
Ti5     Ti23    9.981   1_565     S
Ti5     Er49    9.673   .     S
Ti5     Ce26    9.625   .     S
Ti5     Ce33    9.625   .     S
Ce6     V58    10.297   .     S
Ce6     Ti24    10.286   .     S
Ce6     Ti23    10.286   .     S
Ce6     Ce7    8.352   .     S
Ce6     Ti8    8.992   1_545     S
Ce6     Er51    10.387   .     S
Ce6     Er50    10.387   .     S
Ce6     Ce11    9.135   .     S
Ce6     Er55    10.767   .     S
Ce6     Ti35    9.625   .     S
Ce6     Ti28    9.625   .     S
Ce7     V58    10.297   .     S
Ce7     Ti24    10.286   .     S
Ce7     Ti23    10.286   .     S
Ce7     Ti5    8.992   1_545     S
Ce7     Er51    10.387   .     S
Ce7     Er50    10.387   .     S
Ce7     Ce14    9.135   .     S
Ce7     Ce18    9.135   .     S
Ce7     Er54    10.767   .     S
Ce7     Ti37    9.625   .     S
Ce7     Ti41    9.625   .     S
Ti8     Er55    10.936   1_565     S
Ti8     Ti40    10.051   .     S
Ti8     Ti44    10.051   .     S
Ti8     Ti35    10.051   1_565     S
Ti8     Ti28    10.051   1_565     S
Ti8     Ce21    10.286   .     S
Ti8     Ce22    10.286   .     S
Ti8     Ce6    8.992   1_565     S
Ti8     Ti23    9.981   1_565     S
Ti8     Ti24    9.981   1_565     S
Ti8     Er52    9.673   .     S
Ti8     Ce39    9.625   .     S
Ti8     Ce43    9.625   .     S
Ti9     Er53    10.936   1_655     S
Ti9     Ti48    10.051   1_655     S
Ti9     Ti44    10.051   1_655     S
Ti9     Ti27    10.051   .     S
Ti9     Ti31    10.051   .     S
Ti9     Ce13    10.286   .     S
Ti9     Ce14    10.286   .     S
Ti9     Ce10    8.992   1_655     S
Ti9     Ti15    9.981   1_655     S
Ti9     Ti16    9.981   1_655     S
Ti9     Er49    9.673   .     S
Ti9     Ce26    9.625   .     S
Ti9     Ce30    9.625   .     S
Ce10     V58    10.297   .     S
Ce10     Ti15    10.286   .     S
Ce10     Ti16    10.286   .     S
Ce10     Ce11    8.352   .     S
Ce10     Ti9    8.992   1_455     S
Ce10     Er51    10.387   .     S
Ce10     Er52    10.387   .     S
Ce10     Ce21    9.135   .     S
Ce10     Ce17    9.135   .     S
Ce10     Er53    10.767   .     S
Ce10     Ti48    9.625   .     S
Ce10     Ti44    9.625   .     S
Ce11     V58    10.297   .     S
Ce11     Ti15    10.286   .     S
Ce11     Ti16    10.286   .     S
Ce11     Ti12    8.992   1_455     S
Ce11     Er51    10.387   .     S
Ce11     Er52    10.387   .     S
Ce11     Er55    10.767   .     S
Ce11     Ti32    9.625   .     S
Ce11     Ti28    9.625   .     S
Ti12     Er55    10.936   1_655     S
Ti12     Ti45    10.051   .     S
Ti12     Ti41    10.051   .     S
Ti12     Ti32    10.051   1_655     S
Ti12     Ti28    10.051   1_655     S
Ti12     Ce14    10.286   .     S
Ti12     Ce13    10.286   .     S
Ti12     Ce11    8.992   1_655     S
Ti12     Ti16    9.981   1_655     S
Ti12     Ti15    9.981   1_655     S
Ti12     Er50    9.673   .     S
Ti12     Ce46    9.625   .     S
Ti12     Ce42    9.625   .     S
Ce13     V58    10.297   .     S
Ce13     Ce14    8.352   .     S
Ce13     Ti16    8.992   1_655     S
Ce13     Er49    10.387   .     S
Ce13     Er50    10.387   .     S
Ce13     Ce22    9.135   .     S
Ce13     Er56    10.767   .     S
Ce13     Ti27    9.625   .     S
Ce13     Ti45    9.625   .     S
Ce14     V58    10.297   .     S
Ce14     Ti15    8.992   1_655     S
Ce14     Er49    10.387   .     S
Ce14     Er50    10.387   .     S
Ce14     Ce18    9.135   .     S
Ce14     Er54    10.767   .     S
Ce14     Ti31    9.625   .     S
Ce14     Ti41    9.625   .     S
Ti15     Er54    10.936   1_455     S
Ti15     Ti31    10.051   1_455     S
Ti15     Ti41    10.051   1_455     S
Ti15     Ti48    10.051   .     S
Ti15     Ti28    10.051   .     S
Ti15     Ce14    8.992   1_455     S
Ti15     Ti12    9.981   1_455     S
Ti15     Ti9    9.981   1_455     S
Ti15     Er51    9.673   .     S
Ti15     Ce47    9.625   .     S
Ti15     Ce25    9.625   .     S
Ti16     Er56    10.936   1_455     S
Ti16     Ti27    10.051   1_455     S
Ti16     Ti45    10.051   1_455     S
Ti16     Ti44    10.051   .     S
Ti16     Ti32    10.051   .     S
Ti16     Ce13    8.992   1_455     S
Ti16     Ti12    9.981   1_455     S
Ti16     Ti9    9.981   1_455     S
Ti16     Er52    9.673   .     S
Ti16     Ce43    9.625   .     S
Ti16     Ce29    9.625   .     S
Ce17     V58    10.297   .     S
Ce17     Ce18    8.352   .     S
Ce17     Ti20    8.992   1_556     S
Ce17     Er49    10.387   .     S
Ce17     Er51    10.387   .     S
Ce17     Ce21    9.135   .     S
Ce17     Er53    10.767   .     S
Ce17     Ti36    9.625   .     S
Ce17     Ti48    9.625   .     S
Ce18     V58    10.297   .     S
Ce18     Ti19    8.992   1_556     S
Ce18     Er49    10.387   .     S
Ce18     Er51    10.387   .     S
Ce18     Er54    10.767   .     S
Ce18     Ti31    9.625   .     S
Ce18     Ti37    9.625   .     S
Ti19     Er54    10.936   1_554     S
Ti19     Ti31    10.051   1_554     S
Ti19     Ti37    10.051   1_554     S
Ti19     Ti45    10.051   .     S
Ti19     Ti35    10.051   .     S
Ti19     Ce18    8.992   1_554     S
Ti19     Ti1    9.981   1_554     S
Ti19     Ti4    9.981   1_554     S
Ti19     Er50    9.673   .     S
Ti19     Ce46    9.625   .     S
Ti19     Ce34    9.625   .     S
Ti20     Er53    10.936   1_554     S
Ti20     Ti36    10.051   1_554     S
Ti20     Ti48    10.051   1_554     S
Ti20     Ti40    10.051   .     S
Ti20     Ti32    10.051   .     S
Ti20     Ce17    8.992   1_554     S
Ti20     Ti1    9.981   1_554     S
Ti20     Ti4    9.981   1_554     S
Ti20     Er52    9.673   .     S
Ti20     Ce39    9.625   .     S
Ti20     Ce29    9.625   .     S
Ce21     V58    10.297   .     S
Ce21     Ce22    8.352   .     S
Ce21     Ti24    8.992   1_565     S
Ce21     Er49    10.387   .     S
Ce21     Er52    10.387   .     S
Ce21     Er53    10.767   .     S
Ce21     Ti36    9.625   .     S
Ce21     Ti44    9.625   .     S
Ce22     V58    10.297   .     S
Ce22     Ti23    8.992   1_565     S
Ce22     Er49    10.387   .     S
Ce22     Er52    10.387   .     S
Ce22     Er56    10.767   .     S
Ce22     Ti27    9.625   .     S
Ce22     Ti40    9.625   .     S
Ti23     Er56    10.936   1_545     S
Ti23     Ti27    10.051   1_545     S
Ti23     Ti40    10.051   1_545     S
Ti23     Ti41    10.051   .     S
Ti23     Ti35    10.051   .     S
Ti23     Ce22    8.992   1_545     S
Ti23     Ti8    9.981   1_545     S
Ti23     Ti5    9.981   1_545     S
Ti23     Er50    9.673   .     S
Ti23     Ce42    9.625   .     S
Ti23     Ce34    9.625   .     S
Ti24     Er53    10.936   1_545     S
Ti24     Ti36    10.051   1_545     S
Ti24     Ti44    10.051   1_545     S
Ti24     Ti37    10.051   .     S
Ti24     Ti28    10.051   .     S
Ti24     Ce21    8.992   1_545     S
Ti24     Ti8    9.981   1_545     S
Ti24     Ti5    9.981   1_545     S
Ti24     Er51    9.673   .     S
Ti24     Ce38    9.625   .     S
Ti24     Ce25    9.625   .     S
Ce25     V57    10.297   1_556     S
Ce25     Ti41    10.286   1_455     S
Ce25     Ti44    10.286   1_545     S
Ce25     Ce26    8.352   1_445     S
Ce25     Ti28    8.992   .     S
Ce25     Er53    10.387   1_545     S
Ce25     Er54    10.387   1_455     S
Ce25     Ce47    9.135   .     S
Ce25     Ce38    9.135   .     S
Ce25     Er51    10.767   .     S
Ce26     V57    10.297   1_666     S
Ce26     Ti41    10.286   1_565     S
Ce26     Ti44    10.286   1_655     S
Ce26     Ce25    8.352   1_665     S
Ce26     Ti27    8.992   .     S
Ce26     Er53    10.387   1_655     S
Ce26     Er54    10.387   1_565     S
Ce26     Ce30    9.135   .     S
Ce26     Ce33    9.135   .     S
Ce26     Er49    10.767   .     S
Ti27     Er49    10.936   .     S
Ti27     Ti23    10.051   1_565     S
Ti27     Ti16    10.051   1_655     S
Ti27     Ce42    10.286   1_565     S
Ti27     Ce43    10.286   1_655     S
Ti27     Ti44    9.981   1_655     S
Ti27     Ti41    9.981   1_565     S
Ti27     Er56    9.673   .     S
Ti28     Er51    10.936   .     S
Ti28     Ti8    10.051   1_545     S
Ti28     Ti12    10.051   1_455     S
Ti28     Ce43    10.286   1_545     S
Ti28     Ce42    10.286   1_455     S
Ti28     Ti44    9.981   1_545     S
Ti28     Ti41    9.981   1_455     S
Ti28     Er55    9.673   .     S
Ce29     V57    10.297   1_565     S
Ce29     Ti48    10.286   1_554     S
Ce29     Ti45    10.286   1_455     S
Ce29     Ce30    8.352   1_454     S
Ce29     Ti32    8.992   .     S
Ce29     Er53    10.387   1_554     S
Ce29     Er56    10.387   1_455     S
Ce29     Ce39    9.135   .     S
Ce29     Ce43    9.135   .     S
Ce29     Er52    10.767   .     S
Ce30     V57    10.297   1_666     S
Ce30     Ti48    10.286   1_655     S
Ce30     Ti45    10.286   1_556     S
Ce30     Ce29    8.352   1_656     S
Ce30     Ti31    8.992   .     S
Ce30     Er53    10.387   1_655     S
Ce30     Er56    10.387   1_556     S
Ce30     Ce33    9.135   .     S
Ce30     Er49    10.767   .     S
Ti31     Er49    10.936   .     S
Ti31     Ti19    10.051   1_556     S
Ti31     Ti15    10.051   1_655     S
Ti31     Ce46    10.286   1_556     S
Ti31     Ce47    10.286   1_655     S
Ti31     Ti45    9.981   1_556     S
Ti31     Ti48    9.981   1_655     S
Ti31     Er54    9.673   .     S
Ti32     Er52    10.936   .     S
Ti32     Ti4    10.051   1_554     S
Ti32     Ti12    10.051   1_455     S
Ti32     Ce47    10.286   1_554     S
Ti32     Ce46    10.286   1_455     S
Ti32     Ti45    9.981   1_455     S
Ti32     Ti48    9.981   1_554     S
Ti32     Er55    9.673   .     S
Ce33     V57    10.297   1_666     S
Ce33     Ti37    10.286   1_565     S
Ce33     Ti40    10.286   1_556     S
Ce33     Ce34    8.352   1_566     S
Ce33     Ti36    8.992   .     S
Ce33     Er54    10.387   1_565     S
Ce33     Er56    10.387   1_556     S
Ce33     Er49    10.767   .     S
Ce34     V57    10.297   1_655     S
Ce34     Ti37    10.286   1_554     S
Ce34     Ti40    10.286   1_545     S
Ce34     Ce33    8.352   1_544     S
Ce34     Ti35    8.992   .     S
Ce34     Er54    10.387   1_554     S
Ce34     Er56    10.387   1_545     S
Ce34     Ce46    9.135   .     S
Ce34     Ce42    9.135   .     S
Ce34     Er50    10.767   .     S
Ti35     Er50    10.936   .     S
Ti35     Ti4    10.051   1_554     S
Ti35     Ti8    10.051   1_545     S
Ti35     Ce38    10.286   1_554     S
Ti35     Ce39    10.286   1_545     S
Ti35     Ti40    9.981   1_545     S
Ti35     Ti37    9.981   1_554     S
Ti35     Er55    9.673   .     S
Ti36     Er49    10.936   .     S
Ti36     Ti20    10.051   1_556     S
Ti36     Ti24    10.051   1_565     S
Ti36     Ce39    10.286   1_556     S
Ti36     Ce38    10.286   1_565     S
Ti36     Ti40    9.981   1_556     S
Ti36     Ti37    9.981   1_565     S
Ti36     Er53    9.673   .     S
Ti37     Er51    10.936   .     S
Ti37     Ti5    10.051   1_545     S
Ti37     Ti19    10.051   1_556     S
Ti37     Ce34    10.286   1_556     S
Ti37     Ce33    10.286   1_545     S
Ti37     Ce38    8.992   .     S
Ti37     Ti35    9.981   1_556     S
Ti37     Ti36    9.981   1_545     S
Ti37     Er54    9.673   .     S
Ce38     V57    10.297   1_556     S
Ce38     Ti35    10.286   1_556     S
Ce38     Ti36    10.286   1_545     S
Ce38     Ce39    8.352   1_546     S
Ce38     Er53    10.387   1_545     S
Ce38     Er55    10.387   1_556     S
Ce38     Ce47    9.135   .     S
Ce38     Er51    10.767   .     S
Ce39     V57    10.297   1_565     S
Ce39     Ti35    10.286   1_565     S
Ce39     Ti36    10.286   1_554     S
Ce39     Ce38    8.352   1_564     S
Ce39     Ti40    8.992   .     S
Ce39     Er53    10.387   1_554     S
Ce39     Er55    10.387   1_565     S
Ce39     Ce43    9.135   .     S
Ce39     Er52    10.767   .     S
Ti40     Er52    10.936   .     S
Ti40     Ti1    10.051   1_554     S
Ti40     Ti23    10.051   1_565     S
Ti40     Ce33    10.286   1_554     S
Ti40     Ce34    10.286   1_565     S
Ti40     Ti35    9.981   1_565     S
Ti40     Ti36    9.981   1_554     S
Ti40     Er56    9.673   .     S
Ti41     Er50    10.936   .     S
Ti41     Ti5    10.051   1_545     S
Ti41     Ti15    10.051   1_655     S
Ti41     Ce25    10.286   1_655     S
Ti41     Ce26    10.286   1_545     S
Ti41     Ce42    8.992   .     S
Ti41     Ti28    9.981   1_655     S
Ti41     Ti27    9.981   1_545     S
Ti41     Er54    9.673   .     S
Ce42     V57    10.297   1_655     S
Ce42     Ti28    10.286   1_655     S
Ce42     Ti27    10.286   1_545     S
Ce42     Ce43    8.352   1_645     S
Ce42     Er56    10.387   1_545     S
Ce42     Er55    10.387   1_655     S
Ce42     Ce46    9.135   .     S
Ce42     Er50    10.767   .     S
Ce43     V57    10.297   1_565     S
Ce43     Ti28    10.286   1_565     S
Ce43     Ti27    10.286   1_455     S
Ce43     Ce42    8.352   1_465     S
Ce43     Ti44    8.992   .     S
Ce43     Er56    10.387   1_455     S
Ce43     Er55    10.387   1_565     S
Ce43     Er52    10.767   .     S
Ti44     Er52    10.936   .     S
Ti44     Ti9    10.051   1_455     S
Ti44     Ti24    10.051   1_565     S
Ti44     Ce26    10.286   1_455     S
Ti44     Ce25    10.286   1_565     S
Ti44     Ti28    9.981   1_565     S
Ti44     Ti27    9.981   1_455     S
Ti44     Er53    9.673   .     S
Ti45     Er50    10.936   .     S
Ti45     Ti1    10.051   1_554     S
Ti45     Ti16    10.051   1_655     S
Ti45     Ce30    10.286   1_554     S
Ti45     Ce29    10.286   1_655     S
Ti45     Ce46    8.992   .     S
Ti45     Ti32    9.981   1_655     S
Ti45     Ti31    9.981   1_554     S
Ti45     Er56    9.673   .     S
Ce46     V57    10.297   1_655     S
Ce46     Ti32    10.286   1_655     S
Ce46     Ti31    10.286   1_554     S
Ce46     Ce47    8.352   1_654     S
Ce46     Er54    10.387   1_554     S
Ce46     Er55    10.387   1_655     S
Ce46     Er50    10.767   .     S
Ce47     V57    10.297   1_556     S
Ce47     Ti32    10.286   1_556     S
Ce47     Ti31    10.286   1_455     S
Ce47     Ce46    8.352   1_456     S
Ce47     Ti48    8.992   .     S
Ce47     Er54    10.387   1_455     S
Ce47     Er55    10.387   1_556     S
Ce47     Er51    10.767   .     S
Ti48     Er51    10.936   .     S
Ti48     Ti9    10.051   1_455     S
Ti48     Ti20    10.051   1_556     S
Ti48     Ce29    10.286   1_556     S
Ti48     Ce30    10.286   1_455     S
Ti48     Ti32    9.981   1_556     S
Ti48     Ti31    9.981   1_455     S
Ti48     Er53    9.673   .     S
Er49     V58    11.036   .     S
Er50     V58    11.036   .     S
Er51     V58    11.036   .     S
Er52     V58    11.036   .     S
Er53     V57    11.036   1_566     S
Er53     Ti9    10.936   1_455     S
Er53     Ti24    10.936   1_565     S
Er53     Ti20    10.936   1_556     S
Er53     Ce25    10.387   1_565     S
Er53     Ce26    10.387   1_455     S
Er53     Ce39    10.387   1_556     S
Er53     Ce38    10.387   1_565     S
Er53     Ce29    10.387   1_556     S
Er53     Ce30    10.387   1_455     S
Er54     V57    11.036   1_656     S
Er54     Ti5    10.936   1_545     S
Er54     Ti15    10.936   1_655     S
Er54     Ti19    10.936   1_556     S
Er54     Ce26    10.387   1_545     S
Er54     Ce25    10.387   1_655     S
Er54     Ce46    10.387   1_556     S
Er54     Ce47    10.387   1_655     S
Er54     Ce34    10.387   1_556     S
Er54     Ce33    10.387   1_545     S
Er55     V57    11.036   .     S
Er55     Ti8    10.936   1_545     S
Er55     Ti12    10.936   1_455     S
Er55     Ti4    10.936   1_554     S
Er55     Ce42    10.387   1_455     S
Er55     Ce43    10.387   1_545     S
Er55     Ce47    10.387   1_554     S
Er55     Ce46    10.387   1_455     S
Er55     Ce38    10.387   1_554     S
Er55     Ce39    10.387   1_545     S
Er56     V57    11.036   1_665     S
Er56     Ti1    10.936   1_554     S
Er56     Ti16    10.936   1_655     S
Er56     Ti23    10.936   1_565     S
Er56     Ce33    10.387   1_554     S
Er56     Ce34    10.387   1_565     S
Er56     Ce43    10.387   1_655     S
Er56     Ce42    10.387   1_565     S
Er56     Ce30    10.387   1_554     S
Er56     Ce29    10.387   1_655     S
V57     Er53    11.036   1_544     S
V57     Er56    11.036   1_445     S
V57     Er54    11.036   1_454     S
V57     Ce39    10.297   1_545     S
V57     Ce38    10.297   1_554     S
V57     Ce47    10.297   1_554     S
V57     Ce46    10.297   1_455     S
V57     Ce43    10.297   1_545     S
V57     Ce42    10.297   1_455     S
V57     Ce34    10.297   1_455     S
V57     Ce33    10.297   1_444     S
V57     Ce25    10.297   1_554     S
V57     Ce26    10.297   1_444     S
V57     Ce30    10.297   1_444     S
V57     Ce29    10.297   1_545     S
