data_amu
_audit_creation_date              2020-02-02
_audit_creation_method            'Pymatgen'
_symmetry_space_group_name_H-M    'P1'
_symmetry_Int_Tables_number       1
loop_
_symmetry_equiv_pos_as_xyz
  x,y,z
_cell_length_a                    33.0451
_cell_length_b                    33.0451
_cell_length_c                    33.0451
_cell_angle_alpha                 90.0
_cell_angle_beta                 90.0
_cell_angle_gamma                 90.0
loop_
_atom_site_label
_atom_site_type_symbol
_atom_site_fract_x
_atom_site_fract_y
_atom_site_fract_z
Er1     Er     0.2948   0.7052   0.5
Er2     Er     0.7052   0.7052   0.5
Er3     Er     0.7052   0.2948   0.5
Er4     Er     0.7052   0.5   0.2948
Er5     Er     0.2948   0.5   0.7052
Er6     Er     0.5   0.7052   0.7052
Er7     Er     0.5   0.7052   0.2948
Er8     Er     0.7052   0.5   0.7052
Er9     Er     0.5   0.2948   0.7052
Er10     Er     0.2948   0.2948   0.5
Er11     Er     0.5   0.2948   0.2948
Er12     Er     0.2948   0.5   0.2948
Er13     Er     0.2052   0.0   0.2052
Ti14     Ti     0.25   0.75   0.25
Er15     Er     0.7948   0.0   0.2052
Ti16     Ti     0.75   0.75   0.25
Er17     Er     0.0   0.7948   0.2052
Er18     Er     0.0   0.2052   0.2052
Ti19     Ti     0.75   0.25   0.25
Er20     Er     0.0   0.7948   0.7948
Ti21     Ti     0.75   0.75   0.75
Er22     Er     0.7948   0.0   0.7948
Er23     Er     0.7948   0.7948   0.0
Er24     Er     0.2052   0.0   0.7948
Ti25     Ti     0.25   0.75   0.75
Er26     Er     0.2052   0.7948   0.0
Ti27     Ti     0.25   0.25   0.75
Er28     Er     0.2052   0.2052   0.0
Er29     Er     0.0   0.2052   0.7948
Ti30     Ti     0.75   0.25   0.75
Er31     Er     0.7948   0.2052   0.0
Ti32     Ti     0.25   0.25   0.25
Ce33     Ce     0.0   0.0   0.0
Ce34     Ce     0.5   0.5   0.5
V35     V     0.0   0.25   0.5
V36     V     0.75   0.0   0.5
V37     V     0.0   0.75   0.5
V38     V     0.25   0.0   0.5
V39     V     0.5   0.0   0.25
V40     V     0.0   0.5   0.25
V41     V     0.5   0.0   0.75
V42     V     0.0   0.5   0.75
V43     V     0.25   0.5   0.0
V44     V     0.5   0.25   0.0
V45     V     0.75   0.5   0.0
V46     V     0.5   0.75   0.0
loop_
_geom_bond_atom_site_label_1
_geom_bond_atom_site_label_2
_geom_bond_distance
_geom_bond_site_symmetry_2
_ccdc_geom_bond_type
Er1     Ce34    9.588   .     S
Er1     Ti14    8.523   .     S
Er1     Ti25    8.523   .     S
Er2     Ce34    9.588   .     S
Er2     Ti16    8.523   .     S
Er2     Ti21    8.523   .     S
Er3     Ce34    9.588   .     S
Er3     Ti19    8.523   .     S
Er3     Ti30    8.523   .     S
Er4     Ce34    9.588   .     S
Er4     Ti19    8.523   .     S
Er4     Ti16    8.523   .     S
Er5     Ce34    9.588   .     S
Er5     Ti27    8.523   .     S
Er5     Ti25    8.523   .     S
Er6     Ce34    9.588   .     S
Er6     Ti25    8.523   .     S
Er6     Ti21    8.523   .     S
Er7     Ce34    9.588   .     S
Er7     Ti14    8.523   .     S
Er7     Ti16    8.523   .     S
Er8     Ce34    9.588   .     S
Er8     Ti30    8.523   .     S
Er8     Ti21    8.523   .     S
Er9     Ce34    9.588   .     S
Er9     Ti27    8.523   .     S
Er9     Ti30    8.523   .     S
Er10     Ce34    9.588   .     S
Er10     Ti32    8.523   .     S
Er10     Ti27    8.523   .     S
Er11     Ce34    9.588   .     S
Er11     Ti32    8.523   .     S
Er11     Ti19    8.523   .     S
Er12     Ce34    9.588   .     S
Er12     Ti32    8.523   .     S
Er12     Ti14    8.523   .     S
Er13     Ce33    9.588   .     S
Er13     Ti14    8.523   1_545     S
Er13     Ti32    8.523   .     S
Ti14     V40    11.683   .     S
Ti14     V46    11.683   .     S
Ti14     V37    11.683   .     S
Ti14     V43    11.683   .     S
Ti14     V38    11.683   1_565     S
Ti14     V39    11.683   1_565     S
Ti14     Er13    8.523   1_565     S
Ti14     Er17    8.523   .     S
Ti14     Er26    8.523   .     S
Er15     Ce33    9.588   1_655     S
Er15     Ti16    8.523   1_545     S
Er15     Ti19    8.523   .     S
Ti16     V45    11.683   .     S
Ti16     V46    11.683   .     S
Ti16     V37    11.683   1_655     S
Ti16     V36    11.683   1_565     S
Ti16     V39    11.683   1_565     S
Ti16     V40    11.683   1_655     S
Ti16     Er15    8.523   1_565     S
Ti16     Er17    8.523   1_655     S
Ti16     Er23    8.523   .     S
Er17     Ce33    9.588   1_565     S
Er17     Ti16    8.523   1_455     S
Er18     Ce33    9.588   .     S
Er18     Ti19    8.523   1_455     S
Er18     Ti32    8.523   .     S
Ti19     V36    11.683   .     S
Ti19     V44    11.683   .     S
Ti19     V39    11.683   .     S
Ti19     V45    11.683   .     S
Ti19     V40    11.683   1_655     S
Ti19     V35    11.683   1_655     S
Ti19     Er18    8.523   1_655     S
Ti19     Er31    8.523   .     S
Er20     Ce33    9.588   1_566     S
Er20     Ti21    8.523   1_455     S
Er20     Ti25    8.523   .     S
Ti21     V36    11.683   1_565     S
Ti21     V42    11.683   1_655     S
Ti21     V46    11.683   1_556     S
Ti21     V37    11.683   1_655     S
Ti21     V41    11.683   1_565     S
Ti21     V45    11.683   1_556     S
Ti21     Er20    8.523   1_655     S
Ti21     Er22    8.523   1_565     S
Ti21     Er23    8.523   1_556     S
Er22     Ce33    9.588   1_656     S
Er22     Ti21    8.523   1_545     S
Er22     Ti30    8.523   .     S
Er23     Ce33    9.588   1_665     S
Er23     Ti21    8.523   1_554     S
Er24     Ce33    9.588   1_556     S
Er24     Ti25    8.523   1_545     S
Er24     Ti27    8.523   .     S
Ti25     V37    11.683   .     S
Ti25     V42    11.683   .     S
Ti25     V41    11.683   1_565     S
Ti25     V46    11.683   1_556     S
Ti25     V43    11.683   1_556     S
Ti25     V38    11.683   1_565     S
Ti25     Er24    8.523   1_565     S
Ti25     Er26    8.523   1_556     S
Er26     Ce33    9.588   1_565     S
Er26     Ti25    8.523   1_554     S
Ti27     V38    11.683   .     S
Ti27     V42    11.683   .     S
Ti27     V35    11.683   .     S
Ti27     V41    11.683   .     S
Ti27     V44    11.683   1_556     S
Ti27     V43    11.683   1_556     S
Ti27     Er28    8.523   1_556     S
Ti27     Er29    8.523   .     S
Er28     Ce33    9.588   .     S
Er28     Ti27    8.523   1_554     S
Er28     Ti32    8.523   .     S
Er29     Ce33    9.588   1_556     S
Er29     Ti30    8.523   1_455     S
Ti30     V41    11.683   .     S
Ti30     V36    11.683   .     S
Ti30     V45    11.683   1_556     S
Ti30     V42    11.683   1_655     S
Ti30     V35    11.683   1_655     S
Ti30     V44    11.683   1_556     S
Ti30     Er29    8.523   1_655     S
Ti30     Er31    8.523   1_556     S
Er31     Ce33    9.588   1_655     S
Er31     Ti30    8.523   1_554     S
Ti32     V35    11.683   .     S
Ti32     V39    11.683   .     S
Ti32     V43    11.683   .     S
Ti32     V38    11.683   .     S
Ti32     V40    11.683   .     S
Ti32     V44    11.683   .     S
Ce33     Er29    9.588   1_554     S
Ce33     Er31    9.588   1_455     S
Ce33     Er24    9.588   1_554     S
Ce33     Er26    9.588   1_545     S
Ce33     Er15    9.588   1_455     S
Ce33     Er17    9.588   1_545     S
Ce33     Er20    9.588   1_544     S
Ce33     Er22    9.588   1_454     S
Ce33     Er23    9.588   1_445     S
V35     Ti19    11.683   1_455     S
V35     Ti30    11.683   1_455     S
V36     Ti16    11.683   1_545     S
V36     Ti21    11.683   1_545     S
V37     Ti16    11.683   1_455     S
V37     Ti21    11.683   1_455     S
V38     Ti14    11.683   1_545     S
V38     Ti25    11.683   1_545     S
V39     Ti14    11.683   1_545     S
V39     Ti16    11.683   1_545     S
V40     Ti19    11.683   1_455     S
V40     Ti16    11.683   1_455     S
V41     Ti25    11.683   1_545     S
V41     Ti21    11.683   1_545     S
V42     Ti30    11.683   1_455     S
V42     Ti21    11.683   1_455     S
V43     Ti27    11.683   1_554     S
V43     Ti25    11.683   1_554     S
V44     Ti27    11.683   1_554     S
V44     Ti30    11.683   1_554     S
V45     Ti30    11.683   1_554     S
V45     Ti21    11.683   1_554     S
V46     Ti25    11.683   1_554     S
V46     Ti21    11.683   1_554     S
