data_ana
_audit_creation_date              2020-02-02
_audit_creation_method            'Pymatgen'
_symmetry_space_group_name_H-M    'P1'
_symmetry_Int_Tables_number       1
loop_
_symmetry_equiv_pos_as_xyz
  x,y,z
_cell_length_a                    43.8178
_cell_length_b                    43.8178
_cell_length_c                    43.8178
_cell_angle_alpha                 90.0
_cell_angle_beta                 90.0
_cell_angle_gamma                 90.0
loop_
_atom_site_label
_atom_site_type_symbol
_atom_site_fract_x
_atom_site_fract_y
_atom_site_fract_z
V1     V     0.125   0.3333   0.9167
V2     V     0.1667   0.4167   0.125
V3     V     0.125   0.8333   0.0833
V4     V     0.0833   0.625   0.1667
V5     V     0.0833   0.375   0.3333
V6     V     0.375   0.3333   0.0833
V7     V     0.875   0.6667   0.0833
V8     V     0.6667   0.0833   0.875
V9     V     0.5833   0.125   0.6667
V10     V     0.375   0.1667   0.5833
V11     V     0.0833   0.875   0.6667
V12     V     0.6667   0.9167   0.625
V13     V     0.5833   0.875   0.8333
V14     V     0.9167   0.875   0.1667
V15     V     0.5833   0.625   0.3333
V16     V     0.6667   0.4167   0.375
V17     V     0.6667   0.5833   0.125
V18     V     0.5833   0.375   0.1667
V19     V     0.8333   0.9167   0.375
V20     V     0.4167   0.875   0.3333
V21     V     0.625   0.8333   0.4167
V22     V     0.4167   0.375   0.6667
V23     V     0.625   0.3333   0.5833
V24     V     0.125   0.6667   0.5833
V25     V     0.1667   0.5833   0.375
V26     V     0.375   0.6667   0.4167
V27     V     0.3333   0.5833   0.625
V28     V     0.1667   0.9167   0.875
V29     V     0.3333   0.4167   0.875
V30     V     0.375   0.8333   0.9167
V31     V     0.4167   0.625   0.8333
V32     V     0.875   0.1667   0.9167
V33     V     0.625   0.6667   0.9167
V34     V     0.875   0.8333   0.5833
V35     V     0.9167   0.625   0.6667
V36     V     0.8333   0.5833   0.875
V37     V     0.9167   0.375   0.8333
V38     V     0.875   0.3333   0.4167
V39     V     0.8333   0.4167   0.625
V40     V     0.3333   0.9167   0.125
V41     V     0.9167   0.125   0.3333
V42     V     0.0833   0.125   0.8333
V43     V     0.125   0.1667   0.4167
V44     V     0.1667   0.0833   0.625
V45     V     0.8333   0.0833   0.125
V46     V     0.625   0.1667   0.0833
V47     V     0.3333   0.0833   0.375
V48     V     0.4167   0.125   0.1667
loop_
_geom_bond_atom_site_label_1
_geom_bond_atom_site_label_2
_geom_bond_distance
_geom_bond_site_symmetry_2
_ccdc_geom_bond_type
V1     V29    10.0   .     S
V1     V37    10.0   1_455     S
V1     V2    10.0   1_556     S
V1     V42    10.0   .     S
V2     V5    10.0   .     S
V2     V1    10.0   1_554     S
V2     V4    10.0   .     S
V2     V6    10.0   .     S
V3     V14    10.0   1_455     S
V3     V40    10.0   .     S
V3     V4    10.0   .     S
V3     V28    10.0   1_554     S
V4     V7    10.0   1_455     S
V4     V25    10.0   .     S
V5     V43    10.0   .     S
V5     V25    10.0   .     S
V5     V38    10.0   1_455     S
V6     V18    10.0   .     S
V6     V29    10.0   1_554     S
V6     V48    10.0   .     S
V7     V4    10.0   1_655     S
V7     V17    10.0   .     S
V7     V14    10.0   .     S
V7     V36    10.0   1_554     S
V8     V46    10.0   1_556     S
V8     V9    10.0   .     S
V8     V13    10.0   1_545     S
V8     V32    10.0   .     S
V9     V23    10.0   .     S
V9     V12    10.0   1_545     S
V9     V10    10.0   .     S
V10     V44    10.0   .     S
V10     V22    10.0   .     S
V10     V47    10.0   .     S
V11     V44    10.0   1_565     S
V11     V24    10.0   .     S
V11     V28    10.0   .     S
V11     V34    10.0   1_455     S
V12     V9    10.0   1_565     S
V12     V13    10.0   .     S
V12     V21    10.0   .     S
V12     V34    10.0   .     S
V13     V8    10.0   1_565     S
V13     V33    10.0   .     S
V13     V30    10.0   .     S
V14     V3    10.0   1_655     S
V14     V45    10.0   1_565     S
V14     V19    10.0   .     S
V15     V21    10.0   .     S
V15     V16    10.0   .     S
V15     V17    10.0   .     S
V15     V26    10.0   .     S
V16     V18    10.0   .     S
V16     V23    10.0   .     S
V16     V38    10.0   .     S
V17     V33    10.0   1_554     S
V17     V18    10.0   .     S
V18     V46    10.0   .     S
V19     V34    10.0   .     S
V19     V21    10.0   .     S
V19     V41    10.0   1_565     S
V20     V47    10.0   1_565     S
V20     V26    10.0   .     S
V20     V21    10.0   .     S
V20     V40    10.0   .     S
V22     V27    10.0   .     S
V22     V23    10.0   .     S
V22     V29    10.0   .     S
V23     V39    10.0   .     S
V24     V27    10.0   .     S
V24     V35    10.0   1_455     S
V24     V25    10.0   .     S
V25     V26    10.0   .     S
V26     V27    10.0   .     S
V27     V31    10.0   .     S
V28     V3    10.0   1_556     S
V28     V30    10.0   .     S
V28     V42    10.0   1_565     S
V29     V6    10.0   1_556     S
V29     V31    10.0   .     S
V30     V31    10.0   .     S
V30     V40    10.0   1_556     S
V31     V33    10.0   .     S
V32     V42    10.0   1_655     S
V32     V37    10.0   .     S
V32     V45    10.0   1_556     S
V33     V17    10.0   1_556     S
V33     V36    10.0   .     S
V34     V11    10.0   1_655     S
V34     V35    10.0   .     S
V35     V24    10.0   1_655     S
V35     V39    10.0   .     S
V35     V36    10.0   .     S
V36     V7    10.0   1_556     S
V36     V37    10.0   .     S
V37     V1    10.0   1_655     S
V37     V39    10.0   .     S
V38     V5    10.0   1_655     S
V38     V39    10.0   .     S
V38     V41    10.0   .     S
V40     V30    10.0   1_554     S
V40     V48    10.0   1_565     S
V41     V19    10.0   1_545     S
V41     V43    10.0   1_655     S
V41     V45    10.0   .     S
V42     V32    10.0   1_455     S
V42     V28    10.0   1_545     S
V42     V44    10.0   .     S
V43     V47    10.0   .     S
V43     V41    10.0   1_455     S
V43     V44    10.0   .     S
V44     V11    10.0   1_545     S
V45     V14    10.0   1_545     S
V45     V32    10.0   1_554     S
V45     V46    10.0   .     S
V46     V8    10.0   1_554     S
V46     V48    10.0   .     S
V47     V20    10.0   1_545     S
V47     V48    10.0   .     S
V48     V40    10.0   1_545     S
