data_anaa
_audit_creation_date              2020-02-02
_audit_creation_method            'Pymatgen'
_symmetry_space_group_name_H-M    'P1'
_symmetry_Int_Tables_number       1
loop_
_symmetry_equiv_pos_as_xyz
  x,y,z
_cell_length_a                    95.5336
_cell_length_b                    95.5336
_cell_length_c                    95.5336
_cell_angle_alpha                 90.0
_cell_angle_beta                 90.0
_cell_angle_gamma                 90.0
loop_
_atom_site_label
_atom_site_type_symbol
_atom_site_fract_x
_atom_site_fract_y
_atom_site_fract_z
V1     V     0.5972   0.3737   0.2268
V2     V     0.5232   0.3763   0.1528
Er3     Er     0.6116   0.3227   0.1365
Er4     Er     0.6135   0.4273   0.1384
V5     V     0.1528   0.5232   0.3763
V6     V     0.2268   0.5972   0.3737
Er7     Er     0.1365   0.6116   0.3227
Er8     Er     0.1384   0.6135   0.4273
V9     V     0.3763   0.1528   0.5232
V10     V     0.3737   0.2268   0.5972
Er11     Er     0.3227   0.1365   0.6116
Er12     Er     0.4273   0.1384   0.6135
V13     V     0.4768   0.1237   0.1528
V14     V     0.4028   0.1263   0.2268
Er15     Er     0.3865   0.0727   0.1384
Er16     Er     0.3884   0.1773   0.1365
V17     V     0.1237   0.1528   0.4768
V18     V     0.1263   0.2268   0.4028
Er19     Er     0.0727   0.1384   0.3865
Er20     Er     0.1773   0.1365   0.3884
V21     V     0.3472   0.9768   0.1237
V22     V     0.2732   0.9028   0.1263
Er23     Er     0.3616   0.8865   0.0727
Er24     Er     0.3635   0.8884   0.1773
V25     V     0.3737   0.7732   0.9028
V26     V     0.3763   0.8472   0.9768
Er27     Er     0.3227   0.8635   0.8884
Er28     Er     0.4273   0.8616   0.8865
V29     V     0.3472   0.5232   0.6237
V30     V     0.2732   0.5972   0.6263
Er31     Er     0.3635   0.6116   0.6773
Er32     Er     0.3616   0.6135   0.5727
V33     V     0.3472   0.0232   0.3763
V34     V     0.2732   0.0972   0.3737
Er35     Er     0.3635   0.1116   0.3227
Er36     Er     0.3616   0.1135   0.4273
V37     V     0.4768   0.8763   0.3472
V38     V     0.4028   0.8737   0.2732
Er39     Er     0.3865   0.9273   0.3616
Er40     Er     0.3884   0.8227   0.3635
V41     V     0.3737   0.7268   0.4028
V42     V     0.3763   0.6528   0.4768
Er43     Er     0.3227   0.6365   0.3884
Er44     Er     0.4273   0.6384   0.3865
V45     V     0.6263   0.7732   0.4028
V46     V     0.6237   0.8472   0.4768
Er47     Er     0.6773   0.8635   0.3884
Er48     Er     0.5727   0.8616   0.3865
V49     V     0.7268   0.9028   0.6263
V50     V     0.6528   0.9768   0.6237
Er51     Er     0.6365   0.8884   0.6773
Er52     Er     0.6384   0.8865   0.5727
V53     V     0.1528   0.0232   0.6237
V54     V     0.2268   0.0972   0.6263
Er55     Er     0.1365   0.1116   0.6773
Er56     Er     0.1384   0.1135   0.5727
V57     V     0.8737   0.7732   0.5972
V58     V     0.8763   0.8472   0.5232
Er59     Er     0.9273   0.8616   0.6135
Er60     Er     0.8227   0.8635   0.6116
V61     V     0.1528   0.9768   0.8763
V62     V     0.2268   0.9028   0.8737
Er63     Er     0.1365   0.8884   0.8227
Er64     Er     0.1384   0.8865   0.9273
V65     V     0.1263   0.7732   0.0972
V66     V     0.1237   0.8472   0.0232
Er67     Er     0.0727   0.8616   0.1135
Er68     Er     0.1773   0.8635   0.1116
V69     V     0.0972   0.8737   0.7268
V70     V     0.0232   0.8763   0.6528
Er71     Er     0.1116   0.8227   0.6365
Er72     Er     0.1135   0.9273   0.6384
V73     V     0.1237   0.6528   0.5232
V74     V     0.1263   0.7268   0.5972
Er75     Er     0.0727   0.6384   0.6135
Er76     Er     0.1773   0.6365   0.6116
V77     V     0.1237   0.3472   0.9768
V78     V     0.1263   0.2732   0.9028
Er79     Er     0.0727   0.3616   0.8865
Er80     Er     0.1773   0.3635   0.8884
V81     V     0.9028   0.3737   0.7732
V82     V     0.9768   0.3763   0.8472
Er83     Er     0.8865   0.4273   0.8616
Er84     Er     0.8884   0.3227   0.8635
V85     V     0.1528   0.4768   0.1237
V86     V     0.2268   0.4028   0.1263
Er87     Er     0.1384   0.3865   0.0727
Er88     Er     0.1365   0.3884   0.1773
V89     V     0.5232   0.6237   0.3472
V90     V     0.5972   0.6263   0.2732
Er91     Er     0.6116   0.6773   0.3635
Er92     Er     0.6135   0.5727   0.3616
V93     V     0.7268   0.5972   0.1263
V94     V     0.6528   0.5232   0.1237
Er95     Er     0.6365   0.6116   0.1773
Er96     Er     0.6384   0.6135   0.0727
V97     V     0.7732   0.4028   0.6263
V98     V     0.8472   0.4768   0.6237
Er99     Er     0.8616   0.3865   0.5727
Er100     Er     0.8635   0.3884   0.6773
V101     V     0.9028   0.6263   0.7268
V102     V     0.9768   0.6237   0.6528
Er103     Er     0.8884   0.6773   0.6365
Er104     Er     0.8865   0.5727   0.6384
V105     V     0.0232   0.6237   0.1528
V106     V     0.0972   0.6263   0.2268
Er107     Er     0.1135   0.5727   0.1384
Er108     Er     0.1116   0.6773   0.1365
V109     V     0.8472   0.5232   0.8763
V110     V     0.7732   0.5972   0.8737
Er111     Er     0.8635   0.6116   0.8227
Er112     Er     0.8616   0.6135   0.9273
V113     V     0.8737   0.7268   0.0972
V114     V     0.8763   0.6528   0.0232
Er115     Er     0.9273   0.6384   0.1135
Er116     Er     0.8227   0.6365   0.1116
V117     V     0.7732   0.0972   0.1263
V118     V     0.8472   0.0232   0.1237
Er119     Er     0.8635   0.1116   0.1773
Er120     Er     0.8616   0.1135   0.0727
V121     V     0.9768   0.8763   0.1528
V122     V     0.9028   0.8737   0.2268
Er123     Er     0.8865   0.9273   0.1384
Er124     Er     0.8884   0.8227   0.1365
V125     V     0.7732   0.9028   0.3737
V126     V     0.8472   0.9768   0.3763
Er127     Er     0.8616   0.8865   0.4273
Er128     Er     0.8635   0.8884   0.3227
V129     V     0.9028   0.1263   0.2732
V130     V     0.9768   0.1237   0.3472
Er131     Er     0.8884   0.1773   0.3635
Er132     Er     0.8865   0.0727   0.3616
V133     V     0.0232   0.3763   0.3472
V134     V     0.0972   0.3737   0.2732
Er135     Er     0.1116   0.3227   0.3635
Er136     Er     0.1135   0.4273   0.3616
V137     V     0.8763   0.3472   0.4768
V138     V     0.8737   0.2732   0.4028
Er139     Er     0.8227   0.3635   0.3884
Er140     Er     0.9273   0.3616   0.3865
V141     V     0.7268   0.4028   0.3737
V142     V     0.6528   0.4768   0.3763
Er143     Er     0.6365   0.3884   0.3227
Er144     Er     0.6384   0.3865   0.4273
V145     V     0.3763   0.3472   0.0232
V146     V     0.3737   0.2732   0.0972
Er147     Er     0.3227   0.3635   0.1116
Er148     Er     0.4273   0.3616   0.1135
V149     V     0.3472   0.4768   0.8763
V150     V     0.2732   0.4028   0.8737
Er151     Er     0.3616   0.3865   0.9273
Er152     Er     0.3635   0.3884   0.8227
V153     V     0.4028   0.3737   0.7268
V154     V     0.4768   0.3763   0.6528
Er155     Er     0.3884   0.3227   0.6365
Er156     Er     0.3865   0.4273   0.6384
V157     V     0.6237   0.3472   0.5232
V158     V     0.6263   0.2732   0.5972
Er159     Er     0.5727   0.3616   0.6135
Er160     Er     0.6773   0.3635   0.6116
V161     V     0.5232   0.1237   0.6528
V162     V     0.5972   0.1263   0.7268
Er163     Er     0.6116   0.1773   0.6365
Er164     Er     0.6135   0.0727   0.6384
V165     V     0.4028   0.6263   0.7732
V166     V     0.4768   0.6237   0.8472
Er167     Er     0.3865   0.5727   0.8616
Er168     Er     0.3884   0.6773   0.8635
V169     V     0.6263   0.7268   0.9028
V170     V     0.6237   0.6528   0.9768
Er171     Er     0.6773   0.6365   0.8884
Er172     Er     0.5727   0.6384   0.8865
V173     V     0.6237   0.1528   0.0232
V174     V     0.6263   0.2268   0.0972
Er175     Er     0.6773   0.1365   0.1116
Er176     Er     0.5727   0.1384   0.1135
V177     V     0.8763   0.1528   0.9768
V178     V     0.8737   0.2268   0.9028
Er179     Er     0.9273   0.1384   0.8865
Er180     Er     0.8227   0.1365   0.8884
V181     V     0.0972   0.1263   0.7732
V182     V     0.0232   0.1237   0.8472
Er183     Er     0.1135   0.0727   0.8616
Er184     Er     0.1116   0.1773   0.8635
V185     V     0.5232   0.8763   0.8472
V186     V     0.5972   0.8737   0.7732
Er187     Er     0.6116   0.8227   0.8635
Er188     Er     0.6135   0.9273   0.8616
V189     V     0.7268   0.0972   0.8737
V190     V     0.6528   0.0232   0.8763
Er191     Er     0.6384   0.1135   0.9273
Er192     Er     0.6365   0.1116   0.8227
loop_
_geom_bond_atom_site_label_1
_geom_bond_atom_site_label_2
_geom_bond_distance
_geom_bond_site_symmetry_2
_ccdc_geom_bond_type
V1     Er143    10.0   .     S
V1     Er3    10.0   .     S
V1     Er4    10.0   .     S
V1     V2    10.001   .     S
V2     Er148    10.0   .     S
V2     Er3    10.0   .     S
V2     Er4    10.0   .     S
Er3     Er4    10.0   .     S
Er3     V174    10.0   .     S
Er4     V94    10.0   .     S
V5     Er136    10.0   .     S
V5     Er7    10.0   .     S
V5     Er8    10.0   .     S
V5     V6    10.001   .     S
V6     Er43    10.0   .     S
V6     Er7    10.0   .     S
V6     Er8    10.0   .     S
Er7     Er8    10.0   .     S
Er7     V106    10.0   .     S
Er8     V73    10.0   .     S
V9     Er36    10.0   .     S
V9     Er11    10.0   .     S
V9     Er12    10.0   .     S
V9     V10    10.001   .     S
V10     Er155    10.0   .     S
V10     Er11    10.0   .     S
V10     Er12    10.0   .     S
Er11     Er12    10.0   .     S
Er11     V54    10.0   .     S
Er12     V161    10.0   .     S
V13     Er176    10.0   .     S
V13     Er15    10.0   .     S
V13     Er16    10.0   .     S
V13     V14    10.001   .     S
V14     Er35    10.0   .     S
V14     Er15    10.0   .     S
V14     Er16    10.0   .     S
Er15     Er16    10.0   .     S
Er15     V21    10.0   1_545     S
Er16     V146    10.0   .     S
V17     Er56    10.0   .     S
V17     Er19    10.0   .     S
V17     Er20    10.0   .     S
V17     V18    10.001   .     S
V18     Er135    10.0   .     S
V18     Er19    10.0   .     S
V18     Er20    10.0   .     S
Er19     Er20    10.0   .     S
Er19     V130    10.0   1_455     S
Er20     V34    10.0   .     S
V21     Er15    10.0   1_565     S
V21     Er23    10.0   .     S
V21     Er24    10.0   .     S
V21     V22    10.001   .     S
V22     Er68    10.0   .     S
V22     Er23    10.0   .     S
V22     Er24    10.0   .     S
Er23     Er24    10.0   .     S
Er23     V26    10.0   1_554     S
Er24     V38    10.0   .     S
V25     Er168    10.0   .     S
V25     Er27    10.0   .     S
V25     Er28    10.0   .     S
V25     V26    10.001   .     S
V26     Er23    10.0   1_556     S
V26     Er27    10.0   .     S
V26     Er28    10.0   .     S
Er27     Er28    10.0   .     S
Er27     V62    10.0   .     S
Er28     V185    10.0   .     S
V29     Er156    10.0   .     S
V29     Er31    10.0   .     S
V29     Er32    10.0   .     S
V29     V30    10.001   .     S
V30     Er76    10.0   .     S
V30     Er31    10.0   .     S
V30     Er32    10.0   .     S
Er31     Er32    10.0   .     S
Er31     V165    10.0   .     S
Er32     V42    10.0   .     S
V33     Er39    10.0   1_545     S
V33     Er35    10.0   .     S
V33     Er36    10.0   .     S
V33     V34    10.001   .     S
V34     Er35    10.0   .     S
V34     Er36    10.0   .     S
Er35     Er36    10.0   .     S
V37     Er48    10.0   .     S
V37     Er39    10.0   .     S
V37     Er40    10.0   .     S
V37     V38    10.001   .     S
V38     Er39    10.0   .     S
V38     Er40    10.0   .     S
Er39     V33    10.0   1_565     S
Er39     Er40    10.0   .     S
Er40     V41    10.0   .     S
V41     Er43    10.0   .     S
V41     Er44    10.0   .     S
V41     V42    10.001   .     S
V42     Er43    10.0   .     S
V42     Er44    10.0   .     S
Er43     Er44    10.0   .     S
Er44     V89    10.0   .     S
V45     Er91    10.0   .     S
V45     Er47    10.0   .     S
V45     Er48    10.0   .     S
V45     V46    10.001   .     S
V46     Er52    10.0   .     S
V46     Er47    10.0   .     S
V46     Er48    10.0   .     S
Er47     Er48    10.0   .     S
Er47     V125    10.0   .     S
V49     Er60    10.0   .     S
V49     Er51    10.0   .     S
V49     Er52    10.0   .     S
V49     V50    10.001   .     S
V50     Er164    10.0   1_565     S
V50     Er51    10.0   .     S
V50     Er52    10.0   .     S
Er51     Er52    10.0   .     S
Er51     V186    10.0   .     S
V53     Er72    10.0   1_545     S
V53     Er55    10.0   .     S
V53     Er56    10.0   .     S
V53     V54    10.001   .     S
V54     Er55    10.0   .     S
V54     Er56    10.0   .     S
Er55     Er56    10.0   .     S
Er55     V181    10.0   .     S
V57     Er103    10.0   .     S
V57     Er59    10.0   .     S
V57     Er60    10.0   .     S
V57     V58    10.001   .     S
V58     Er127    10.0   .     S
V58     Er59    10.0   .     S
V58     Er60    10.0   .     S
Er59     Er60    10.0   .     S
Er59     V70    10.0   1_655     S
V61     Er183    10.0   1_565     S
V61     Er63    10.0   .     S
V61     Er64    10.0   .     S
V61     V62    10.001   .     S
V62     Er63    10.0   .     S
V62     Er64    10.0   .     S
Er63     Er64    10.0   .     S
Er63     V69    10.0   .     S
Er64     V66    10.0   1_556     S
V65     Er108    10.0   .     S
V65     Er67    10.0   .     S
V65     Er68    10.0   .     S
V65     V66    10.001   .     S
V66     Er64    10.0   1_554     S
V66     Er67    10.0   .     S
V66     Er68    10.0   .     S
Er67     Er68    10.0   .     S
Er67     V121    10.0   1_455     S
V69     Er71    10.0   .     S
V69     Er72    10.0   .     S
V69     V70    10.001   .     S
V70     Er59    10.0   1_455     S
V70     Er71    10.0   .     S
V70     Er72    10.0   .     S
Er71     Er72    10.0   .     S
Er71     V74    10.0   .     S
Er72     V53    10.0   1_565     S
V73     Er75    10.0   .     S
V73     Er76    10.0   .     S
V73     V74    10.001   .     S
V74     Er75    10.0   .     S
V74     Er76    10.0   .     S
Er75     Er76    10.0   .     S
Er75     V102    10.0   1_455     S
V77     Er87    10.0   1_556     S
V77     Er79    10.0   .     S
V77     Er80    10.0   .     S
V77     V78    10.001   .     S
V78     Er184    10.0   .     S
V78     Er79    10.0   .     S
V78     Er80    10.0   .     S
Er79     Er80    10.0   .     S
Er79     V82    10.0   1_455     S
Er80     V150    10.0   .     S
V81     Er100    10.0   .     S
V81     Er83    10.0   .     S
V81     Er84    10.0   .     S
V81     V82    10.001   .     S
V82     Er79    10.0   1_655     S
V82     Er83    10.0   .     S
V82     Er84    10.0   .     S
Er83     Er84    10.0   .     S
Er83     V109    10.0   .     S
Er84     V178    10.0   .     S
V85     Er107    10.0   .     S
V85     Er87    10.0   .     S
V85     Er88    10.0   .     S
V85     V86    10.001   .     S
V86     Er147    10.0   .     S
V86     Er87    10.0   .     S
V86     Er88    10.0   .     S
Er87     V77    10.0   1_554     S
Er87     Er88    10.0   .     S
Er88     V134    10.0   .     S
V89     Er91    10.0   .     S
V89     Er92    10.0   .     S
V89     V90    10.001   .     S
V90     Er95    10.0   .     S
V90     Er91    10.0   .     S
V90     Er92    10.0   .     S
Er91     Er92    10.0   .     S
Er92     V142    10.0   .     S
V93     Er116    10.0   .     S
V93     Er95    10.0   .     S
V93     Er96    10.0   .     S
V93     V94    10.001   .     S
V94     Er95    10.0   .     S
V94     Er96    10.0   .     S
Er95     Er96    10.0   .     S
Er96     V170    10.0   1_554     S
V97     Er160    10.0   .     S
V97     Er99    10.0   .     S
V97     Er100    10.0   .     S
V97     V98    10.001   .     S
V98     Er104    10.0   .     S
V98     Er99    10.0   .     S
V98     Er100    10.0   .     S
Er99     Er100    10.0   .     S
Er99     V137    10.0   .     S
V101     Er111    10.0   .     S
V101     Er103    10.0   .     S
V101     Er104    10.0   .     S
V101     V102    10.001   .     S
V102     Er75    10.0   1_655     S
V102     Er103    10.0   .     S
V102     Er104    10.0   .     S
Er103     Er104    10.0   .     S
V105     Er115    10.0   1_455     S
V105     Er107    10.0   .     S
V105     Er108    10.0   .     S
V105     V106    10.001   .     S
V106     Er107    10.0   .     S
V106     Er108    10.0   .     S
Er107     Er108    10.0   .     S
V109     Er111    10.0   .     S
V109     Er112    10.0   .     S
V109     V110    10.001   .     S
V110     Er171    10.0   .     S
V110     Er111    10.0   .     S
V110     Er112    10.0   .     S
Er111     Er112    10.0   .     S
Er112     V114    10.0   1_556     S
V113     Er124    10.0   .     S
V113     Er115    10.0   .     S
V113     Er116    10.0   .     S
V113     V114    10.001   .     S
V114     Er112    10.0   1_554     S
V114     Er115    10.0   .     S
V114     Er116    10.0   .     S
Er115     V105    10.0   1_655     S
Er115     Er116    10.0   .     S
V117     Er175    10.0   .     S
V117     Er119    10.0   .     S
V117     Er120    10.0   .     S
V117     V118    10.001   .     S
V118     Er123    10.0   1_545     S
V118     Er119    10.0   .     S
V118     Er120    10.0   .     S
Er119     Er120    10.0   .     S
Er119     V129    10.0   .     S
Er120     V177    10.0   1_554     S
V121     Er67    10.0   1_655     S
V121     Er123    10.0   .     S
V121     Er124    10.0   .     S
V121     V122    10.001   .     S
V122     Er128    10.0   .     S
V122     Er123    10.0   .     S
V122     Er124    10.0   .     S
Er123     V118    10.0   1_565     S
Er123     Er124    10.0   .     S
V125     Er127    10.0   .     S
V125     Er128    10.0   .     S
V125     V126    10.001   .     S
V126     Er132    10.0   1_565     S
V126     Er127    10.0   .     S
V126     Er128    10.0   .     S
Er127     Er128    10.0   .     S
V129     Er131    10.0   .     S
V129     Er132    10.0   .     S
V129     V130    10.001   .     S
V130     Er19    10.0   1_655     S
V130     Er131    10.0   .     S
V130     Er132    10.0   .     S
Er131     Er132    10.0   .     S
Er131     V138    10.0   .     S
Er132     V126    10.0   1_545     S
V133     Er140    10.0   1_455     S
V133     Er135    10.0   .     S
V133     Er136    10.0   .     S
V133     V134    10.001   .     S
V134     Er135    10.0   .     S
V134     Er136    10.0   .     S
Er135     Er136    10.0   .     S
V137     Er139    10.0   .     S
V137     Er140    10.0   .     S
V137     V138    10.001   .     S
V138     Er139    10.0   .     S
V138     Er140    10.0   .     S
Er139     Er140    10.0   .     S
Er139     V141    10.0   .     S
Er140     V133    10.0   1_655     S
V141     Er143    10.0   .     S
V141     Er144    10.0   .     S
V141     V142    10.001   .     S
V142     Er143    10.0   .     S
V142     Er144    10.0   .     S
Er143     Er144    10.0   .     S
Er144     V157    10.0   .     S
V145     Er151    10.0   1_554     S
V145     Er147    10.0   .     S
V145     Er148    10.0   .     S
V145     V146    10.001   .     S
V146     Er147    10.0   .     S
V146     Er148    10.0   .     S
Er147     Er148    10.0   .     S
V149     Er167    10.0   .     S
V149     Er151    10.0   .     S
V149     Er152    10.0   .     S
V149     V150    10.001   .     S
V150     Er151    10.0   .     S
V150     Er152    10.0   .     S
Er151     V145    10.0   1_556     S
Er151     Er152    10.0   .     S
Er152     V153    10.0   .     S
V153     Er155    10.0   .     S
V153     Er156    10.0   .     S
V153     V154    10.001   .     S
V154     Er159    10.0   .     S
V154     Er155    10.0   .     S
V154     Er156    10.0   .     S
Er155     Er156    10.0   .     S
V157     Er159    10.0   .     S
V157     Er160    10.0   .     S
V157     V158    10.001   .     S
V158     Er163    10.0   .     S
V158     Er159    10.0   .     S
V158     Er160    10.0   .     S
Er159     Er160    10.0   .     S
V161     Er163    10.0   .     S
V161     Er164    10.0   .     S
V161     V162    10.001   .     S
V162     Er192    10.0   .     S
V162     Er163    10.0   .     S
V162     Er164    10.0   .     S
Er163     Er164    10.0   .     S
Er164     V50    10.0   1_545     S
V165     Er167    10.0   .     S
V165     Er168    10.0   .     S
V165     V166    10.001   .     S
V166     Er172    10.0   .     S
V166     Er167    10.0   .     S
V166     Er168    10.0   .     S
Er167     Er168    10.0   .     S
V169     Er187    10.0   .     S
V169     Er171    10.0   .     S
V169     Er172    10.0   .     S
V169     V170    10.001   .     S
V170     Er96    10.0   1_556     S
V170     Er171    10.0   .     S
V170     Er172    10.0   .     S
Er171     Er172    10.0   .     S
V173     Er191    10.0   1_554     S
V173     Er175    10.0   .     S
V173     Er176    10.0   .     S
V173     V174    10.001   .     S
V174     Er175    10.0   .     S
V174     Er176    10.0   .     S
Er175     Er176    10.0   .     S
V177     Er120    10.0   1_556     S
V177     Er179    10.0   .     S
V177     Er180    10.0   .     S
V177     V178    10.001   .     S
V178     Er179    10.0   .     S
V178     Er180    10.0   .     S
Er179     Er180    10.0   .     S
Er179     V182    10.0   1_655     S
Er180     V189    10.0   .     S
V181     Er183    10.0   .     S
V181     Er184    10.0   .     S
V181     V182    10.001   .     S
V182     Er179    10.0   1_455     S
V182     Er183    10.0   .     S
V182     Er184    10.0   .     S
Er183     V61    10.0   1_545     S
Er183     Er184    10.0   .     S
V185     Er187    10.0   .     S
V185     Er188    10.0   .     S
V185     V186    10.001   .     S
V186     Er187    10.0   .     S
V186     Er188    10.0   .     S
Er187     Er188    10.0   .     S
Er188     V190    10.0   1_565     S
V189     Er191    10.0   .     S
V189     Er192    10.0   .     S
V189     V190    10.001   .     S
V190     Er188    10.0   1_545     S
V190     Er191    10.0   .     S
V190     Er192    10.0   .     S
Er191     V173    10.0   1_556     S
Er191     Er192    10.0   .     S
