data_ant
_audit_creation_date              2020-02-02
_audit_creation_method            'Pymatgen'
_symmetry_space_group_name_H-M    'P1'
_symmetry_Int_Tables_number       1
loop_
_symmetry_equiv_pos_as_xyz
  x,y,z
_cell_length_a                    18.8616
_cell_length_b                    18.8616
_cell_length_c                    53.3027
_cell_angle_alpha                 90.0
_cell_angle_beta                 90.0
_cell_angle_gamma                 90.0
loop_
_atom_site_label
_atom_site_type_symbol
_atom_site_fract_x
_atom_site_fract_y
_atom_site_fract_z
V1     V     0.5   0.75   0.5626
Er2     Er     0.5   0.25   0.625
V3     V     0.0   0.25   0.6874
V4     V     0.0   0.75   0.9374
Er5     Er     0.0   0.25   0.875
V6     V     0.5   0.25   0.8126
V7     V     0.5   0.75   0.1874
Er8     Er     0.0   0.75   0.125
V9     V     0.0   0.25   0.0626
V10     V     0.0   0.75   0.3126
Er11     Er     0.5   0.75   0.375
V12     V     0.5   0.25   0.4374
loop_
_geom_bond_atom_site_label_1
_geom_bond_atom_site_label_2
_geom_bond_distance
_geom_bond_site_symmetry_2
_ccdc_geom_bond_type
V1     Er2    10.0   1_565     S
V1     Er2    10.0   .     S
V1     Er11    10.0   .     S
Er2     V1    10.0   1_545     S
Er2     V6    10.0   .     S
Er2     V12    10.0   .     S
Er2     V3    10.0   1_655     S
Er2     V3    10.0   .     S
V3     Er2    10.0   1_455     S
V3     Er5    10.0   .     S
V4     Er5    10.0   1_565     S
V4     Er5    10.0   .     S
V4     Er8    10.0   1_556     S
Er5     V4    10.0   1_545     S
Er5     V9    10.0   1_556     S
Er5     V6    10.0   .     S
Er5     V6    10.0   1_455     S
V6     Er5    10.0   1_655     S
V7     Er8    10.0   .     S
V7     Er8    10.0   1_655     S
V7     Er11    10.0   .     S
Er8     V7    10.0   1_455     S
Er8     V10    10.0   .     S
Er8     V4    10.0   1_554     S
Er8     V9    10.0   .     S
Er8     V9    10.0   1_565     S
V9     Er5    10.0   1_554     S
V9     Er8    10.0   1_545     S
V10     Er11    10.0   1_455     S
V10     Er11    10.0   .     S
Er11     V10    10.0   1_655     S
Er11     V12    10.0   1_565     S
Er11     V12    10.0   .     S
V12     Er11    10.0   1_545     S
