data_apc
_audit_creation_date              2020-02-02
_audit_creation_method            'Pymatgen'
_symmetry_space_group_name_H-M    'P1'
_symmetry_Int_Tables_number       1
loop_
_symmetry_equiv_pos_as_xyz
  x,y,z
_cell_length_a                    30.1557
_cell_length_b                    65.6277
_cell_length_c                    30.6531
_cell_angle_alpha                 90.0
_cell_angle_beta                 90.0
_cell_angle_gamma                 90.0
loop_
_atom_site_label
_atom_site_type_symbol
_atom_site_fract_x
_atom_site_fract_y
_atom_site_fract_z
Er1     Er     0.8342   0.7088   0.6095
Er2     Er     0.6658   0.7088   0.8905
Er3     Er     0.8342   0.7912   0.1095
Er4     Er     0.6658   0.7912   0.3905
Er5     Er     0.1658   0.7088   0.6095
Er6     Er     0.3342   0.7088   0.8905
Er7     Er     0.1658   0.7912   0.1095
Er8     Er     0.3342   0.7912   0.3905
V9     V     0.8342   0.0565   0.8905
V10     V     0.6658   0.0565   0.6095
V11     V     0.1658   0.0565   0.8905
V12     V     0.3342   0.0565   0.6095
V13     V     0.6658   0.9435   0.3905
V14     V     0.8342   0.9435   0.1095
V15     V     0.3342   0.9435   0.3905
V16     V     0.1658   0.9435   0.1095
Er17     Er     0.3342   0.2912   0.1095
Er18     Er     0.1658   0.2912   0.3905
Er19     Er     0.3342   0.2088   0.6095
Er20     Er     0.1658   0.2088   0.8905
Er21     Er     0.6658   0.2912   0.1095
Er22     Er     0.8342   0.2912   0.3905
Er23     Er     0.6658   0.2088   0.6095
Er24     Er     0.8342   0.2088   0.8905
V25     V     0.1658   0.4435   0.3905
V26     V     0.3342   0.4435   0.1095
V27     V     0.8342   0.4435   0.3905
V28     V     0.6658   0.4435   0.1095
V29     V     0.3342   0.5565   0.8905
V30     V     0.1658   0.5565   0.6095
V31     V     0.6658   0.5565   0.8905
V32     V     0.8342   0.5565   0.6095
loop_
_geom_bond_atom_site_label_1
_geom_bond_atom_site_label_2
_geom_bond_distance
_geom_bond_site_symmetry_2
_ccdc_geom_bond_type
Er1     V32    10.0   .     S
Er1     Er2    10.0   .     S
Er1     Er4    10.0   .     S
Er1     Er5    10.0   1_655     S
Er2     V31    10.0   .     S
Er2     Er3    10.0   1_556     S
Er2     Er6    10.0   .     S
Er3     V14    10.0   .     S
Er3     Er4    10.0   .     S
Er3     Er2    10.0   1_554     S
Er3     Er7    10.0   1_655     S
Er4     V13    10.0   .     S
Er4     Er8    10.0   .     S
Er5     Er1    10.0   1_455     S
Er5     V30    10.0   .     S
Er5     Er6    10.0   .     S
Er5     Er8    10.0   .     S
Er6     V29    10.0   .     S
Er6     Er7    10.0   1_556     S
Er7     Er3    10.0   1_455     S
Er7     V16    10.0   .     S
Er7     Er8    10.0   .     S
Er7     Er6    10.0   1_554     S
Er8     V15    10.0   .     S
V9     V10    10.0   .     S
V9     V11    10.0   1_655     S
V9     V14    10.0   1_546     S
V9     Er24    10.0   .     S
V10     V12    10.0   .     S
V10     V13    10.0   1_545     S
V10     Er23    10.0   .     S
V11     V9    10.0   1_455     S
V11     V12    10.0   .     S
V11     V16    10.0   1_546     S
V11     Er20    10.0   .     S
V12     V15    10.0   1_545     S
V12     Er19    10.0   .     S
V13     V14    10.0   .     S
V13     V15    10.0   .     S
V13     V10    10.0   1_565     S
V14     V16    10.0   1_655     S
V14     V9    10.0   1_564     S
V15     V16    10.0   .     S
V15     V12    10.0   1_565     S
V16     V14    10.0   1_455     S
V16     V11    10.0   1_564     S
Er17     V26    10.0   .     S
Er17     Er18    10.0   .     S
Er17     Er20    10.0   1_554     S
Er17     Er21    10.0   .     S
Er18     V25    10.0   .     S
Er18     Er19    10.0   .     S
Er18     Er22    10.0   1_455     S
Er19     Er20    10.0   .     S
Er19     Er23    10.0   .     S
Er20     Er17    10.0   1_556     S
Er20     Er24    10.0   1_455     S
Er21     V28    10.0   .     S
Er21     Er22    10.0   .     S
Er21     Er24    10.0   1_554     S
Er22     V27    10.0   .     S
Er22     Er23    10.0   .     S
Er22     Er18    10.0   1_655     S
Er23     Er24    10.0   .     S
Er24     Er21    10.0   1_556     S
Er24     Er20    10.0   1_655     S
V25     V26    10.0   .     S
V25     V27    10.0   1_455     S
V25     V30    10.0   .     S
V26     V28    10.0   .     S
V26     V29    10.0   1_554     S
V27     V28    10.0   .     S
V27     V25    10.0   1_655     S
V27     V32    10.0   .     S
V28     V31    10.0   1_554     S
V29     V30    10.0   .     S
V29     V31    10.0   .     S
V29     V26    10.0   1_556     S
V30     V32    10.0   1_455     S
V31     V32    10.0   .     S
V31     V28    10.0   1_556     S
V32     V30    10.0   1_655     S
