data_apoa
_audit_creation_date              2020-02-02
_audit_creation_method            'Pymatgen'
_symmetry_space_group_name_H-M    'P1'
_symmetry_Int_Tables_number       1
loop_
_symmetry_equiv_pos_as_xyz
  x,y,z
_cell_length_a                    52.3447
_cell_length_b                    63.9839
_cell_length_c                    57.8006
_cell_angle_alpha                 90.0
_cell_angle_beta                 90.0
_cell_angle_gamma                 90.0
loop_
_atom_site_label
_atom_site_type_symbol
_atom_site_fract_x
_atom_site_fract_y
_atom_site_fract_z
Er1     Er     0.7832   0.813   0.3662
Er2     Er     0.2168   0.813   0.1338
Ce3     Ce     0.8341   0.6482   0.9958
H4     H     0.8296   0.5616   0.8518
H5     H     0.1704   0.5616   0.6482
Ce6     Ce     0.1659   0.6482   0.5042
S7     S     0.0817   0.5669   0.2052
S8     S     0.9183   0.5669   0.2948
Ti9     Ti     0.0699   0.6451   0.3547
Ti10     Ti     0.9301   0.6451   0.1453
V11     V     0.9183   0.7232   0.2948
V12     V     0.0817   0.7232   0.2052
Er13     Er     0.7168   0.687   0.8662
Er14     Er     0.2832   0.687   0.6338
H15     H     0.3296   0.9384   0.1482
Ce16     Ce     0.3341   0.8518   0.0042
H17     H     0.6704   0.9384   0.3518
Ce18     Ce     0.6659   0.8518   0.4958
S19     S     0.5817   0.9331   0.7948
S20     S     0.4183   0.9331   0.7052
Ti21     Ti     0.4301   0.8549   0.8547
Ti22     Ti     0.5699   0.8549   0.6453
V23     V     0.4183   0.7768   0.7052
V24     V     0.5817   0.7768   0.7948
Er25     Er     0.7168   0.313   0.3662
Er26     Er     0.2832   0.313   0.1338
Ce27     Ce     0.6659   0.1482   0.9958
H28     H     0.6704   0.0616   0.8518
H29     H     0.3296   0.0616   0.6482
Ce30     Ce     0.3341   0.1482   0.5042
S31     S     0.5817   0.0669   0.2948
S32     S     0.4183   0.0669   0.2052
Ti33     Ti     0.4301   0.1451   0.3547
Ti34     Ti     0.5699   0.1451   0.1453
V35     V     0.5817   0.2232   0.2948
V36     V     0.4183   0.2232   0.2052
Er37     Er     0.7832   0.187   0.8662
Er38     Er     0.2168   0.187   0.6338
H39     H     0.1704   0.4384   0.1482
Ce40     Ce     0.1659   0.3518   0.0042
H41     H     0.8296   0.4384   0.3518
Ce42     Ce     0.8341   0.3518   0.4958
S43     S     0.0817   0.4331   0.7052
S44     S     0.9183   0.4331   0.7948
Ti45     Ti     0.9301   0.3549   0.6453
Ti46     Ti     0.0699   0.3549   0.8547
V47     V     0.0817   0.2768   0.7052
V48     V     0.9183   0.2768   0.7948
loop_
_geom_bond_atom_site_label_1
_geom_bond_atom_site_label_2
_geom_bond_distance
_geom_bond_site_symmetry_2
_ccdc_geom_bond_type
Er1     V11    10.0   .     S
Er1     H17    10.0   .     S
Er1     Ce18    10.0   .     S
Er2     V12    10.0   .     S
Er2     H15    10.0   .     S
Er2     Ce16    10.0   .     S
Ce3     Er13    10.0   .     S
Ce3     H4    10.0   .     S
Ce3     Ti10    10.0   1_556     S
H4     Er13    10.0   .     S
H4     S44    10.0   .     S
H5     Er14    10.0   .     S
H5     Ce6    10.0   .     S
H5     S43    10.0   .     S
Ce6     Er14    10.0   .     S
Ce6     Ti9    10.0   .     S
S7     Ti9    10.0   .     S
S7     V12    10.0   .     S
S7     S8    10.0   1_455     S
S7     Ti10    10.0   1_455     S
S7     H39    10.0   .     S
S8     Ti10    10.0   .     S
S8     V11    10.0   .     S
S8     Ti9    10.0   1_655     S
S8     S7    10.0   1_655     S
S8     H41    10.0   .     S
Ti9     V12    10.0   .     S
Ti9     S8    10.0   1_455     S
Ti9     V11    10.0   1_455     S
Ti10     V11    10.0   .     S
Ti10     S7    10.0   1_655     S
Ti10     V12    10.0   1_655     S
Ti10     Ce3    10.0   1_554     S
V11     Ti9    10.0   1_655     S
V11     V12    10.0   1_655     S
V12     Ti10    10.0   1_455     S
V12     V11    10.0   1_455     S
Er13     V24    10.0   .     S
Er14     V23    10.0   .     S
H15     Ce16    10.0   .     S
H15     S32    10.0   1_565     S
Ce16     Ti21    10.0   1_554     S
H17     Ce18    10.0   .     S
H17     S31    10.0   1_565     S
Ce18     Ti22    10.0   .     S
S19     Ti22    10.0   .     S
S19     V24    10.0   .     S
S19     S20    10.0   .     S
S19     Ti21    10.0   .     S
S19     H28    10.0   1_565     S
S20     V23    10.0   .     S
S20     Ti21    10.0   .     S
S20     Ti22    10.0   .     S
S20     H29    10.0   1_565     S
Ti21     V23    10.0   .     S
Ti21     V24    10.0   .     S
Ti21     Ce16    10.0   1_556     S
Ti22     V24    10.0   .     S
Ti22     V23    10.0   .     S
V23     V24    10.0   .     S
Er25     V35    10.0   .     S
Er25     H41    10.0   .     S
Er25     Ce42    10.0   .     S
Er26     V36    10.0   .     S
Er26     H39    10.0   .     S
Er26     Ce40    10.0   .     S
Ce27     Er37    10.0   .     S
Ce27     H28    10.0   .     S
Ce27     Ti34    10.0   1_556     S
H28     Er37    10.0   .     S
H28     S19    10.0   1_545     S
H29     Er38    10.0   .     S
H29     Ce30    10.0   .     S
H29     S20    10.0   1_545     S
Ce30     Er38    10.0   .     S
Ce30     Ti33    10.0   .     S
S31     H17    10.0   1_545     S
S31     V35    10.0   .     S
S31     Ti34    10.0   .     S
S31     S32    10.0   .     S
S31     Ti33    10.0   .     S
S32     H15    10.0   1_545     S
S32     V36    10.0   .     S
S32     Ti33    10.0   .     S
S32     Ti34    10.0   .     S
Ti33     V36    10.0   .     S
Ti33     V35    10.0   .     S
Ti34     V35    10.0   .     S
Ti34     V36    10.0   .     S
Ti34     Ce27    10.0   1_554     S
V35     V36    10.0   .     S
Er37     V48    10.0   .     S
Er38     V47    10.0   .     S
H39     Ce40    10.0   .     S
Ce40     Ti46    10.0   1_554     S
H41     Ce42    10.0   .     S
Ce42     Ti45    10.0   .     S
S43     Ti46    10.0   .     S
S43     V47    10.0   .     S
S43     Ti45    10.0   1_455     S
S43     S44    10.0   1_455     S
S44     Ti45    10.0   .     S
S44     V48    10.0   .     S
S44     S43    10.0   1_655     S
S44     Ti46    10.0   1_655     S
Ti45     V48    10.0   .     S
Ti45     S43    10.0   1_655     S
Ti45     V47    10.0   1_655     S
Ti46     V47    10.0   .     S
Ti46     S44    10.0   1_455     S
Ti46     V48    10.0   1_455     S
Ti46     Ce40    10.0   1_556     S
V47     Ti45    10.0   1_455     S
V47     V48    10.0   1_455     S
V48     Ti46    10.0   1_655     S
V48     V47    10.0   1_655     S
