data_asca
_audit_creation_date              2020-02-02
_audit_creation_method            'Pymatgen'
_symmetry_space_group_name_H-M    'P1'
_symmetry_Int_Tables_number       1
loop_
_symmetry_equiv_pos_as_xyz
  x,y,z
_cell_length_a                    58.4201
_cell_length_b                    58.4201
_cell_length_c                    36.0423
_cell_angle_alpha                 90.0
_cell_angle_beta                 90.0
_cell_angle_gamma                 120.0
loop_
_atom_site_label
_atom_site_type_symbol
_atom_site_fract_x
_atom_site_fract_y
_atom_site_fract_z
Ce1     Ce     0.3715   0.0988   0.0
Er2     Er     0.5584   0.248   0.0
Ce3     Ce     0.7273   0.6285   0.0
Er4     Er     0.6897   0.4416   0.0
Ti5     Ti     0.0988   0.0   0.3613
V6     V     0.201   0.0   0.1387
V7     V     0.201   0.0   0.8613
Ti8     Ti     0.0988   0.0   0.6387
Ce9     Ce     0.2727   0.9012   0.0
Er10     Er     0.3103   0.752   0.0
Ce11     Ce     0.6285   0.7273   0.0
Er12     Er     0.4416   0.6897   0.0
V13     V     0.799   0.799   0.1387
V14     V     0.799   0.799   0.8613
Ti15     Ti     0.9012   0.9012   0.3613
Ti16     Ti     0.9012   0.9012   0.6387
Ce17     Ce     0.0988   0.3715   0.0
Er18     Er     0.248   0.5584   0.0
Ti19     Ti     0.0   0.0988   0.3613
V20     V     0.0   0.201   0.1387
V21     V     0.0   0.201   0.8613
Ti22     Ti     0.0   0.0988   0.6387
Ce23     Ce     0.9012   0.2727   0.0
Er24     Er     0.752   0.3103   0.0
loop_
_geom_bond_atom_site_label_1
_geom_bond_atom_site_label_2
_geom_bond_distance
_geom_bond_site_symmetry_2
_ccdc_geom_bond_type
Ce1     Er2    10.0   .     S
Ce1     V6    10.0   .     S
Ce1     V7    10.0   1_554     S
Ce1     Ce9    10.0   1_545     S
Er2     Er24    10.0   .     S
Er2     Er4    10.0   .     S
Ce3     Er4    10.0   .     S
Ce3     V13    10.0   .     S
Ce3     V14    10.0   1_554     S
Ce3     Ce11    10.0   .     S
Er4     Er24    10.0   .     S
Ti5     V6    10.0   .     S
Ti5     Ti15    10.0   1_445     S
Ti5     Ti19    10.0   .     S
Ti5     Ti8    10.0   .     S
V6     Ce9    10.0   1_545     S
V6     V7    10.0   1_554     S
V7     Ce9    10.0   1_546     S
V7     Ce1    10.0   1_556     S
V7     V6    10.0   1_556     S
V7     Ti8    10.0   .     S
Ti8     Ti16    10.0   1_445     S
Ti8     Ti22    10.0   .     S
Ce9     V6    10.0   1_565     S
Ce9     V7    10.0   1_564     S
Ce9     Ce1    10.0   1_565     S
Ce9     Er10    10.0   .     S
Er10     Er18    10.0   .     S
Er10     Er12    10.0   .     S
Ce11     Er12    10.0   .     S
Ce11     V13    10.0   .     S
Ce11     V14    10.0   1_554     S
Er12     Er18    10.0   .     S
V13     V14    10.0   1_554     S
V13     Ti15    10.0   .     S
V14     Ce11    10.0   1_556     S
V14     Ce3    10.0   1_556     S
V14     V13    10.0   1_556     S
V14     Ti16    10.0   .     S
Ti15     Ti19    10.0   1_665     S
Ti15     Ti5    10.0   1_665     S
Ti15     Ti16    10.0   .     S
Ti16     Ti8    10.0   1_665     S
Ti16     Ti22    10.0   1_665     S
Ce17     Er18    10.0   .     S
Ce17     V20    10.0   .     S
Ce17     V21    10.0   1_554     S
Ce17     Ce23    10.0   1_455     S
Ti19     Ti15    10.0   1_445     S
Ti19     V20    10.0   .     S
Ti19     Ti22    10.0   .     S
V20     Ce23    10.0   1_455     S
V20     V21    10.0   1_554     S
V21     Ce17    10.0   1_556     S
V21     Ce23    10.0   1_456     S
V21     V20    10.0   1_556     S
V21     Ti22    10.0   .     S
Ti22     Ti16    10.0   1_445     S
Ce23     V20    10.0   1_655     S
Ce23     V21    10.0   1_654     S
Ce23     Ce17    10.0   1_655     S
Ce23     Er24    10.0   .     S
