data_asd
_audit_creation_date              2020-02-02
_audit_creation_method            'Pymatgen'
_symmetry_space_group_name_H-M    'P1'
_symmetry_Int_Tables_number       1
loop_
_symmetry_equiv_pos_as_xyz
  x,y,z
_cell_length_a                    25.8237
_cell_length_b                    25.8237
_cell_length_c                    17.2637
_cell_angle_alpha                 90.0
_cell_angle_beta                 90.0
_cell_angle_gamma                 90.0
loop_
_atom_site_label
_atom_site_type_symbol
_atom_site_fract_x
_atom_site_fract_y
_atom_site_fract_z
V1     V     0.5   0.0   0.0
Er2     Er     0.862   0.862   0.0
Ti3     Ti     0.0   0.0   0.5
Er4     Er     0.862   0.138   0.0
Er5     Er     0.138   0.862   0.0
Er6     Er     0.138   0.138   0.0
V7     V     0.0   0.5   0.0
loop_
_geom_bond_atom_site_label_1
_geom_bond_atom_site_label_2
_geom_bond_distance
_geom_bond_site_symmetry_2
_ccdc_geom_bond_type
V1     Er4    10.004   .     S
V1     Er2    10.004   1_545     S
V1     Er5    10.004   1_545     S
V1     Er6    10.004   .     S
Er2     V1    10.004   1_565     S
Er2     Ti3    9.996   1_664     S
Er2     Ti3    9.996   1_665     S
Er2     V7    10.004   1_655     S
Ti3     Er5    9.996   1_546     S
Ti3     Er2    9.996   1_446     S
Ti3     Er6    9.996   1_556     S
Ti3     Er4    9.996   1_456     S
Ti3     Er6    9.996   .     S
Ti3     Er4    9.996   1_455     S
Ti3     Er2    9.996   1_445     S
Ti3     Er5    9.996   1_545     S
Er4     Ti3    9.996   1_654     S
Er4     Ti3    9.996   1_655     S
Er4     V7    10.004   1_655     S
Er5     V1    10.004   1_565     S
Er5     Ti3    9.996   1_564     S
Er5     Ti3    9.996   1_565     S
Er5     V7    10.004   .     S
Er6     Ti3    9.996   1_554     S
Er6     V7    10.004   .     S
V7     Er4    10.004   1_455     S
V7     Er2    10.004   1_455     S
