data_asf
_audit_creation_date              2020-02-02
_audit_creation_method            'Pymatgen'
_symmetry_space_group_name_H-M    'P1'
_symmetry_Int_Tables_number       1
loop_
_symmetry_equiv_pos_as_xyz
  x,y,z
_cell_length_a                    46.188
_cell_length_b                    46.188
_cell_length_c                    32.6599
_cell_angle_alpha                 90.0
_cell_angle_beta                 90.0
_cell_angle_gamma                 90.0
loop_
_atom_site_label
_atom_site_type_symbol
_atom_site_fract_x
_atom_site_fract_y
_atom_site_fract_z
V1     V     0.5   0.5   0.0
V2     V     0.75   0.75   0.75
Er3     Er     0.8125   0.4375   0.375
Er4     Er     0.8125   0.5625   0.625
Er5     Er     0.6875   0.4375   0.125
Er6     Er     0.8125   0.9375   0.625
Er7     Er     0.8125   0.0625   0.375
V8     V     0.75   0.25   0.25
Er9     Er     0.6875   0.0625   0.125
V10     V     0.5   0.0   0.0
Er11     Er     0.3125   0.9375   0.875
Er12     Er     0.6875   0.9375   0.875
V13     V     0.25   0.75   0.75
Er14     Er     0.1875   0.9375   0.625
V15     V     0.0   0.0   0.5
Er16     Er     0.1875   0.0625   0.375
V17     V     0.25   0.25   0.25
Er18     Er     0.3125   0.0625   0.125
Er19     Er     0.3125   0.4375   0.125
Er20     Er     0.1875   0.4375   0.375
V21     V     0.0   0.5   0.5
Er22     Er     0.1875   0.5625   0.625
Er23     Er     0.6875   0.5625   0.875
Er24     Er     0.3125   0.5625   0.875
loop_
_geom_bond_atom_site_label_1
_geom_bond_atom_site_label_2
_geom_bond_distance
_geom_bond_site_symmetry_2
_ccdc_geom_bond_type
V1     Er5    10.0   .     S
V1     Er23    10.0   1_554     S
V1     Er19    10.0   .     S
V1     Er24    10.0   1_554     S
V2     Er12    10.0   .     S
V2     Er6    10.0   .     S
V2     Er4    10.0   .     S
V2     Er23    10.0   .     S
Er3     V21    10.0   1_655     S
Er3     Er4    10.0   .     S
Er3     V8    10.0   .     S
Er3     Er5    10.0   .     S
Er4     V21    10.0   1_655     S
Er4     Er23    10.0   .     S
Er5     V8    10.0   .     S
Er5     Er23    10.0   1_554     S
Er6     V15    10.0   1_665     S
Er6     Er7    10.0   1_565     S
Er6     Er12    10.0   .     S
Er7     V15    10.0   1_655     S
Er7     Er6    10.0   1_545     S
Er7     Er9    10.0   .     S
Er7     V8    10.0   .     S
V8     Er9    10.0   .     S
Er9     V10    10.0   .     S
Er9     Er12    10.0   1_544     S
V10     Er18    10.0   .     S
V10     Er11    10.0   1_544     S
V10     Er12    10.0   1_544     S
Er11     V10    10.0   1_566     S
Er11     V13    10.0   .     S
Er11     Er18    10.0   1_566     S
Er11     Er14    10.0   .     S
Er12     V10    10.0   1_566     S
Er12     Er9    10.0   1_566     S
V13     Er14    10.0   .     S
V13     Er24    10.0   .     S
V13     Er22    10.0   .     S
Er14     V15    10.0   1_565     S
Er14     Er16    10.0   1_565     S
V15     Er6    10.0   1_445     S
V15     Er7    10.0   1_455     S
V15     Er14    10.0   1_545     S
V15     Er16    10.0   .     S
Er16     Er14    10.0   1_545     S
Er16     V17    10.0   .     S
Er16     Er18    10.0   .     S
V17     Er18    10.0   .     S
V17     Er20    10.0   .     S
V17     Er19    10.0   .     S
Er18     Er11    10.0   1_544     S
Er19     Er20    10.0   .     S
Er19     Er24    10.0   1_554     S
Er20     V21    10.0   .     S
Er20     Er22    10.0   .     S
V21     Er3    10.0   1_455     S
V21     Er4    10.0   1_455     S
V21     Er22    10.0   .     S
Er22     Er24    10.0   .     S
Er23     V1    10.0   1_556     S
Er23     Er5    10.0   1_556     S
Er24     V1    10.0   1_556     S
Er24     Er19    10.0   1_556     S
