data_asp
_audit_creation_date              2020-02-02
_audit_creation_method            'Pymatgen'
_symmetry_space_group_name_H-M    'P1'
_symmetry_Int_Tables_number       1
loop_
_symmetry_equiv_pos_as_xyz
  x,y,z
_cell_length_a                    28.1777
_cell_length_b                    28.1777
_cell_length_c                    33.3046
_cell_angle_alpha                 90.0
_cell_angle_beta                 90.0
_cell_angle_gamma                 90.0
loop_
_atom_site_label
_atom_site_type_symbol
_atom_site_fract_x
_atom_site_fract_y
_atom_site_fract_z
V1     V     0.5   0.5   0.0
V2     V     0.0   0.0   0.5
Er3     Er     0.796   0.25   0.625
Ti4     Ti     0.75   0.4411   0.375
Er5     Er     0.704   0.25   0.125
Ti6     Ti     0.75   0.0589   0.875
V7     V     0.0   0.5   0.75
Er8     Er     0.296   0.75   0.125
Er9     Er     0.204   0.75   0.625
Ti10     Ti     0.25   0.5589   0.375
Ti11     Ti     0.25   0.9411   0.875
Er12     Er     0.25   0.296   0.875
Er13     Er     0.25   0.204   0.375
Ti14     Ti     0.4411   0.25   0.625
Ti15     Ti     0.0589   0.25   0.125
V16     V     0.5   0.0   0.25
Er17     Er     0.75   0.796   0.375
Ti18     Ti     0.5589   0.75   0.625
Er19     Er     0.75   0.704   0.875
Ti20     Ti     0.9411   0.75   0.125
loop_
_geom_bond_atom_site_label_1
_geom_bond_atom_site_label_2
_geom_bond_distance
_geom_bond_site_symmetry_2
_ccdc_geom_bond_type
V1     Er19    10.0   1_554     S
V1     Er5    10.0   .     S
V1     Er12    10.0   1_554     S
V1     Er8    10.0   .     S
V2     Er13    10.0   .     S
V2     Er9    10.0   1_545     S
V2     Er17    10.0   1_445     S
V2     Er3    10.0   1_455     S
Er3     V2    10.0   1_655     S
Er3     Ti14    10.0   .     S
Er3     Ti4    10.0   .     S
Er3     Ti6    10.0   .     S
Er3     V7    10.0   1_655     S
Ti4     Er5    10.0   .     S
Ti4     Er17    10.0   .     S
Er5     Ti15    10.0   1_655     S
Er5     Ti6    10.0   1_554     S
Er5     V16    10.0   .     S
Ti6     Er5    10.0   1_556     S
Ti6     Er19    10.0   1_545     S
V7     Er19    10.0   1_455     S
V7     Er12    10.0   .     S
V7     Er3    10.0   1_455     S
V7     Er9    10.0   .     S
Er8     Ti20    10.0   1_455     S
Er8     Ti11    10.0   1_554     S
Er8     Ti10    10.0   .     S
Er8     V16    10.0   1_565     S
Er9     V2    10.0   1_565     S
Er9     Ti18    10.0   .     S
Er9     Ti10    10.0   .     S
Er9     Ti11    10.0   .     S
Ti10     Er13    10.0   .     S
Ti11     Er8    10.0   1_556     S
Ti11     Er12    10.0   1_565     S
Er12     V1    10.0   1_556     S
Er12     Ti11    10.0   1_545     S
Er12     Ti15    10.0   1_556     S
Er12     Ti14    10.0   .     S
Er13     Ti14    10.0   .     S
Er13     Ti15    10.0   .     S
Er13     V16    10.0   .     S
Ti15     Er5    10.0   1_455     S
Ti15     Er12    10.0   1_554     S
V16     Er8    10.0   1_545     S
V16     Er17    10.0   1_545     S
Er17     V2    10.0   1_665     S
Er17     V16    10.0   1_565     S
Er17     Ti18    10.0   .     S
Er17     Ti20    10.0   .     S
Ti18     Er19    10.0   .     S
Er19     V1    10.0   1_556     S
Er19     V7    10.0   1_655     S
Er19     Ti6    10.0   1_565     S
Er19     Ti20    10.0   1_556     S
Ti20     Er8    10.0   1_655     S
Ti20     Er19    10.0   1_554     S
