data_asv
_audit_creation_date              2020-02-02
_audit_creation_method            'Pymatgen'
_symmetry_space_group_name_H-M    'P1'
_symmetry_Int_Tables_number       1
loop_
_symmetry_equiv_pos_as_xyz
  x,y,z
_cell_length_a                    30.4469
_cell_length_b                    30.4469
_cell_length_c                    21.5826
_cell_angle_alpha                 90.0
_cell_angle_beta                 90.0
_cell_angle_gamma                 90.0
loop_
_atom_site_label
_atom_site_type_symbol
_atom_site_fract_x
_atom_site_fract_y
_atom_site_fract_z
Er1     Er     0.5   0.2678   0.7317
Er2     Er     0.2678   0.5   0.7317
Er3     Er     0.7322   0.5   0.7317
Er4     Er     0.5   0.7322   0.7317
Er5     Er     0.5   0.2678   0.2683
Er6     Er     0.2678   0.5   0.2683
Er7     Er     0.7322   0.5   0.2683
Er8     Er     0.5   0.7322   0.2683
V9     V     0.0   0.5   0.0
V10     V     0.5   0.0   0.0
loop_
_geom_bond_atom_site_label_1
_geom_bond_atom_site_label_2
_geom_bond_distance
_geom_bond_site_symmetry_2
_ccdc_geom_bond_type
Er1     Er3    10.0   .     S
Er1     Er2    10.0   .     S
Er1     V10    10.0   1_556     S
Er1     Er5    10.0   .     S
Er2     Er4    10.0   .     S
Er2     V9    10.0   1_556     S
Er2     Er6    10.0   .     S
Er3     Er4    10.0   .     S
Er3     V9    10.0   1_656     S
Er3     Er7    10.0   .     S
Er4     V10    10.0   1_566     S
Er4     Er8    10.0   .     S
Er5     Er7    10.0   .     S
Er5     Er6    10.0   .     S
Er5     V10    10.0   .     S
Er6     Er8    10.0   .     S
Er6     V9    10.0   .     S
Er7     Er8    10.0   .     S
Er7     V9    10.0   1_655     S
Er8     V10    10.0   1_565     S
V9     Er3    10.0   1_454     S
V9     Er2    10.0   1_554     S
V9     Er7    10.0   1_455     S
V10     Er4    10.0   1_544     S
V10     Er1    10.0   1_554     S
V10     Er8    10.0   1_545     S
