data_att
_audit_creation_date              2020-02-02
_audit_creation_method            'Pymatgen'
_symmetry_space_group_name_H-M    'P1'
_symmetry_Int_Tables_number       1
loop_
_symmetry_equiv_pos_as_xyz
  x,y,z
_cell_length_a                    33.0155
_cell_length_b                    24.9604
_cell_length_c                    28.459
_cell_angle_alpha                 90.0
_cell_angle_beta                 90.0
_cell_angle_gamma                 90.0
loop_
_atom_site_label
_atom_site_type_symbol
_atom_site_fract_x
_atom_site_fract_y
_atom_site_fract_z
V1     V     0.0986   0.7997   0.3666
V2     V     0.4014   0.7997   0.3666
Er3     Er     0.0986   0.5   0.1334
Er4     Er     0.4014   0.5   0.1334
V5     V     0.0986   0.2003   0.3666
V6     V     0.4014   0.2003   0.3666
V7     V     0.9014   0.2003   0.6334
V8     V     0.5986   0.2003   0.6334
V9     V     0.5986   0.7997   0.6334
V10     V     0.9014   0.7997   0.6334
Er11     Er     0.5986   0.5   0.8666
Er12     Er     0.9014   0.5   0.8666
loop_
_geom_bond_atom_site_label_1
_geom_bond_atom_site_label_2
_geom_bond_distance
_geom_bond_site_symmetry_2
_ccdc_geom_bond_type
V1     V2    10.0   .     S
V1     Er3    10.0   .     S
V1     V5    10.0   1_565     S
V1     V10    10.0   1_455     S
V2     Er4    10.0   .     S
V2     V6    10.0   1_565     S
V2     V9    10.0   .     S
Er3     Er4    10.0   .     S
Er3     V5    10.0   .     S
Er3     Er12    10.0   1_454     S
Er4     V6    10.0   .     S
Er4     Er11    10.0   1_554     S
V5     V6    10.0   .     S
V5     V1    10.0   1_545     S
V5     V7    10.0   1_455     S
V6     V2    10.0   1_545     S
V6     V8    10.0   .     S
V7     V8    10.0   .     S
V7     Er12    10.0   .     S
V7     V10    10.0   1_545     S
V7     V5    10.0   1_655     S
V8     Er11    10.0   .     S
V8     V9    10.0   1_545     S
V9     V10    10.0   .     S
V9     Er11    10.0   .     S
V9     V8    10.0   1_565     S
V10     Er12    10.0   .     S
V10     V7    10.0   1_565     S
V10     V1    10.0   1_655     S
Er11     Er12    10.0   .     S
Er11     Er4    10.0   1_556     S
Er12     Er3    10.0   1_656     S
