data_atv
_audit_creation_date              2020-02-02
_audit_creation_method            'Pymatgen'
_symmetry_space_group_name_H-M    'P1'
_symmetry_Int_Tables_number       1
loop_
_symmetry_equiv_pos_as_xyz
  x,y,z
_cell_length_a                    48.1719
_cell_length_b                    26.7073
_cell_length_c                    30.6717
_cell_angle_alpha                 90.0
_cell_angle_beta                 90.0
_cell_angle_gamma                 90.0
loop_
_atom_site_label
_atom_site_type_symbol
_atom_site_fract_x
_atom_site_fract_y
_atom_site_fract_z
V1     V     0.6522   0.9372   0.6536
V2     V     0.6522   0.5628   0.6536
V3     V     0.6522   0.0628   0.3464
V4     V     0.6522   0.4372   0.3464
Er5     Er     0.5   0.0628   0.8464
Er6     Er     0.5   0.9372   0.1536
Er7     Er     0.5   0.4372   0.8464
Er8     Er     0.5   0.5628   0.1536
V9     V     0.3478   0.9372   0.6536
V10     V     0.3478   0.5628   0.6536
V11     V     0.3478   0.0628   0.3464
V12     V     0.3478   0.4372   0.3464
V13     V     0.1522   0.0628   0.6536
V14     V     0.1522   0.4372   0.6536
V15     V     0.1522   0.9372   0.3464
V16     V     0.1522   0.5628   0.3464
Er17     Er     0.0   0.9372   0.8464
Er18     Er     0.0   0.0628   0.1536
Er19     Er     0.0   0.5628   0.8464
Er20     Er     0.0   0.4372   0.1536
V21     V     0.8478   0.0628   0.6536
V22     V     0.8478   0.4372   0.6536
V23     V     0.8478   0.9372   0.3464
V24     V     0.8478   0.5628   0.3464
loop_
_geom_bond_atom_site_label_1
_geom_bond_atom_site_label_2
_geom_bond_distance
_geom_bond_site_symmetry_2
_ccdc_geom_bond_type
V1     Er5    10.0   1_565     S
V1     V2    10.0   .     S
V1     V3    10.0   1_565     S
V1     V21    10.001   1_565     S
V2     Er7    10.0   .     S
V2     V4    10.0   .     S
V2     V22    10.001   .     S
V3     Er6    10.0   1_545     S
V3     V4    10.0   .     S
V3     V1    10.0   1_545     S
V3     V23    10.001   1_545     S
V4     Er8    10.0   .     S
V4     V24    10.001   .     S
Er5     V1    10.0   1_545     S
Er5     Er6    10.0   1_546     S
Er5     Er7    10.0   .     S
Er5     V9    10.0   1_545     S
Er6     V3    10.0   1_565     S
Er6     Er5    10.0   1_564     S
Er6     Er8    10.0   .     S
Er6     V11    10.0   1_565     S
Er7     Er8    10.0   1_556     S
Er7     V10    10.0   .     S
Er8     Er7    10.0   1_554     S
Er8     V12    10.0   .     S
V9     Er5    10.0   1_565     S
V9     V10    10.0   .     S
V9     V11    10.0   1_565     S
V9     V13    10.001   1_565     S
V10     V12    10.0   .     S
V10     V14    10.001   .     S
V11     Er6    10.0   1_545     S
V11     V12    10.0   .     S
V11     V9    10.0   1_545     S
V11     V15    10.001   1_545     S
V12     V16    10.001   .     S
V13     Er17    10.0   1_545     S
V13     V14    10.0   .     S
V13     V15    10.0   1_545     S
V13     V9    10.001   1_545     S
V14     Er19    10.0   .     S
V14     V16    10.0   .     S
V15     Er18    10.0   1_565     S
V15     V16    10.0   .     S
V15     V13    10.0   1_565     S
V15     V11    10.001   1_565     S
V16     Er20    10.0   .     S
Er17     V13    10.0   1_565     S
Er17     Er18    10.0   1_566     S
Er17     Er19    10.0   .     S
Er17     V21    10.0   1_465     S
Er18     V15    10.0   1_545     S
Er18     Er17    10.0   1_544     S
Er18     Er20    10.0   .     S
Er18     V23    10.0   1_445     S
Er19     Er20    10.0   1_556     S
Er19     V22    10.0   1_455     S
Er20     Er19    10.0   1_554     S
Er20     V24    10.0   1_455     S
V21     Er17    10.0   1_645     S
V21     V22    10.0   .     S
V21     V23    10.0   1_545     S
V21     V1    10.001   1_545     S
V22     Er19    10.0   1_655     S
V22     V24    10.0   .     S
V23     Er18    10.0   1_665     S
V23     V24    10.0   .     S
V23     V21    10.0   1_565     S
V23     V3    10.001   1_565     S
V24     Er20    10.0   1_655     S
