data_baa
_audit_creation_date              2020-02-02
_audit_creation_method            'Pymatgen'
_symmetry_space_group_name_H-M    'P1'
_symmetry_Int_Tables_number       1
loop_
_symmetry_equiv_pos_as_xyz
  x,y,z
_cell_length_a                    31.72
_cell_length_b                    31.72
_cell_length_c                    17.8393
_cell_angle_alpha                 90.0
_cell_angle_beta                 90.0
_cell_angle_gamma                 90.0
loop_
_atom_site_label
_atom_site_type_symbol
_atom_site_fract_x
_atom_site_fract_y
_atom_site_fract_z
Er1     Er     0.3213   0.25   0.125
Er2     Er     0.75   0.3213   0.875
Er3     Er     0.25   0.6787   0.875
V4     V     0.5   0.5   0.0
Er5     Er     0.75   0.1787   0.375
Er6     Er     0.6787   0.75   0.125
Er7     Er     0.8213   0.75   0.625
V8     V     0.0   0.0   0.5
Er9     Er     0.25   0.8213   0.375
V10     V     0.5   0.0   0.25
Er11     Er     0.1787   0.25   0.625
V12     V     0.0   0.5   0.75
loop_
_geom_bond_atom_site_label_1
_geom_bond_atom_site_label_2
_geom_bond_distance
_geom_bond_site_symmetry_2
_ccdc_geom_bond_type
Er1     V10    10.0   .     S
Er1     V4    10.0   .     S
Er1     Er11    10.0   1_554     S
Er1     Er11    10.0   .     S
Er2     V12    10.0   1_655     S
Er2     V4    10.0   1_556     S
Er2     Er5    10.0   .     S
Er2     Er5    10.0   1_556     S
Er3     V12    10.0   .     S
Er3     V4    10.0   1_556     S
Er3     Er9    10.0   .     S
Er3     Er9    10.0   1_556     S
V4     Er2    10.0   1_554     S
V4     Er3    10.0   1_554     S
V4     Er6    10.0   .     S
Er5     V8    10.0   1_655     S
Er5     V10    10.0   .     S
Er5     Er2    10.0   1_554     S
Er6     V10    10.0   1_565     S
Er6     Er7    10.0   1_554     S
Er6     Er7    10.0   .     S
Er7     V12    10.0   1_655     S
Er7     V8    10.0   1_665     S
Er7     Er6    10.0   1_556     S
V8     Er5    10.0   1_455     S
V8     Er7    10.0   1_445     S
V8     Er9    10.0   1_545     S
V8     Er11    10.0   .     S
Er9     V8    10.0   1_565     S
Er9     V10    10.0   1_565     S
Er9     Er3    10.0   1_554     S
V10     Er6    10.0   1_545     S
V10     Er9    10.0   1_545     S
Er11     V12    10.0   .     S
Er11     Er1    10.0   1_556     S
V12     Er2    10.0   1_455     S
V12     Er7    10.0   1_455     S
