data_baae
_audit_creation_date              2020-02-02
_audit_creation_method            'Pymatgen'
_symmetry_space_group_name_H-M    'P1'
_symmetry_Int_Tables_number       1
loop_
_symmetry_equiv_pos_as_xyz
  x,y,z
_cell_length_a                    37.3437
_cell_length_b                    37.3437
_cell_length_c                    19.5131
_cell_angle_alpha                 90.0
_cell_angle_beta                 90.0
_cell_angle_gamma                 90.0
loop_
_atom_site_label
_atom_site_type_symbol
_atom_site_fract_x
_atom_site_fract_y
_atom_site_fract_z
V1     V     0.4394   0.6194   0.1812
V2     V     0.4394   0.8806   0.0688
V3     V     0.0606   0.8806   0.6812
V4     V     0.0607   0.6194   0.5688
Er5     Er     0.25   0.7206   0.875
Er6     Er     0.25   0.7794   0.375
V7     V     0.6194   0.9394   0.4312
V8     V     0.8806   0.9394   0.3188
V9     V     0.6194   0.5606   0.8188
V10     V     0.8806   0.5606   0.9312
Er11     Er     0.7794   0.75   0.625
Er12     Er     0.7206   0.75   0.125
V13     V     0.5606   0.3806   0.1812
V14     V     0.5606   0.1194   0.0688
V15     V     0.9394   0.1194   0.6812
V16     V     0.9394   0.3806   0.5688
Er17     Er     0.75   0.2794   0.875
Er18     Er     0.75   0.2206   0.375
V19     V     0.3806   0.0607   0.4312
V20     V     0.1194   0.0606   0.3188
V21     V     0.3806   0.4394   0.8188
V22     V     0.1194   0.4394   0.9312
Er23     Er     0.2206   0.25   0.625
Er24     Er     0.2794   0.25   0.125
loop_
_geom_bond_atom_site_label_1
_geom_bond_atom_site_label_2
_geom_bond_distance
_geom_bond_site_symmetry_2
_ccdc_geom_bond_type
V1     Er5    10.0   1_554     S
V1     V2    10.0   .     S
V1     Er6    10.0   .     S
V1     V21    10.0   1_554     S
V1     V9    10.0   1_554     S
V1     V13    10.0   .     S
V2     Er5    10.0   1_554     S
V2     Er6    10.0   .     S
V2     V14    10.0   1_565     S
V2     V19    10.0   1_565     S
V2     V7    10.0   .     S
V3     Er6    10.0   .     S
V3     V4    10.0   .     S
V3     Er5    10.0   .     S
V3     V8    10.0   1_455     S
V3     V20    10.0   1_565     S
V3     V15    10.0   1_465     S
V4     Er6    10.0   .     S
V4     Er5    10.0   .     S
V4     V22    10.0   .     S
V4     V10    10.0   1_455     S
V4     V16    10.0   1_455     S
Er5     V1    10.0   1_556     S
Er5     V2    10.0   1_556     S
Er5     Er6    10.0   .     S
Er5     Er6    10.0   1_556     S
Er6     Er5    10.0   1_554     S
V7     Er12    10.0   .     S
V7     V8    10.0   .     S
V7     Er11    10.0   .     S
V7     V14    10.0   1_565     S
V7     V19    10.0   1_565     S
V8     V3    10.0   1_655     S
V8     Er12    10.0   .     S
V8     Er11    10.0   .     S
V8     V15    10.0   1_565     S
V8     V20    10.0   1_665     S
V9     Er12    10.0   1_556     S
V9     V10    10.0   .     S
V9     Er11    10.0   .     S
V9     V1    10.0   1_556     S
V9     V13    10.0   1_556     S
V9     V21    10.0   .     S
V10     Er12    10.0   1_556     S
V10     Er11    10.0   .     S
V10     V16    10.0   .     S
V10     V22    10.0   1_655     S
V10     V4    10.0   1_655     S
Er11     Er12    10.0   1_556     S
Er11     Er12    10.0   .     S
Er12     V9    10.0   1_554     S
Er12     V10    10.0   1_554     S
Er12     Er11    10.0   1_554     S
V13     Er17    10.0   1_554     S
V13     V14    10.0   .     S
V13     Er18    10.0   .     S
V13     V9    10.0   1_554     S
V13     V21    10.0   1_554     S
V14     V2    10.0   1_545     S
V14     V7    10.0   1_545     S
V14     Er17    10.0   1_554     S
V14     Er18    10.0   .     S
V14     V19    10.0   .     S
V15     Er18    10.0   .     S
V15     V16    10.0   .     S
V15     Er17    10.0   .     S
V15     V20    10.0   1_655     S
V15     V8    10.0   1_545     S
V15     V3    10.0   1_645     S
V16     Er18    10.0   .     S
V16     Er17    10.0   .     S
V16     V22    10.0   1_655     S
V16     V4    10.0   1_655     S
Er17     V13    10.0   1_556     S
Er17     V14    10.0   1_556     S
Er17     Er18    10.0   .     S
Er17     Er18    10.0   1_556     S
Er18     Er17    10.0   1_554     S
V19     V2    10.0   1_545     S
V19     Er24    10.0   .     S
V19     V20    10.0   .     S
V19     Er23    10.0   .     S
V19     V7    10.0   1_545     S
V20     Er24    10.0   .     S
V20     Er23    10.0   .     S
V20     V3    10.0   1_545     S
V20     V15    10.0   1_455     S
V20     V8    10.0   1_445     S
V21     V1    10.0   1_556     S
V21     Er24    10.0   1_556     S
V21     V22    10.0   .     S
V21     Er23    10.0   .     S
V21     V13    10.0   1_556     S
V22     V16    10.0   1_455     S
V22     Er24    10.0   1_556     S
V22     Er23    10.0   .     S
V22     V10    10.0   1_455     S
Er23     Er24    10.0   1_556     S
Er23     Er24    10.0   .     S
Er24     V21    10.0   1_554     S
Er24     V22    10.0   1_554     S
Er24     Er23    10.0   1_554     S
