data_baf
_audit_creation_date              2020-02-02
_audit_creation_method            'Pymatgen'
_symmetry_space_group_name_H-M    'P1'
_symmetry_Int_Tables_number       1
loop_
_symmetry_equiv_pos_as_xyz
  x,y,z
_cell_length_a                    31.3783
_cell_length_b                    58.4619
_cell_length_c                    15.4196
_cell_angle_alpha                 90.0
_cell_angle_beta                 90.0
_cell_angle_gamma                 90.0
loop_
_atom_site_label
_atom_site_type_symbol
_atom_site_fract_x
_atom_site_fract_y
_atom_site_fract_z
V1     V     0.1594   0.5545   0.25
V2     V     0.1594   0.4455   0.75
V3     V     0.8406   0.4455   0.75
V4     V     0.8406   0.5545   0.25
Er5     Er     0.1594   0.2745   0.75
Er6     Er     0.3406   0.2255   0.25
Er7     Er     0.8406   0.2745   0.75
Er8     Er     0.6594   0.2255   0.25
V9     V     0.3406   0.9455   0.75
V10     V     0.3406   0.0545   0.25
V11     V     0.6594   0.9455   0.75
V12     V     0.6594   0.0545   0.25
Er13     Er     0.1594   0.7255   0.25
Er14     Er     0.3406   0.7745   0.75
Er15     Er     0.8406   0.7255   0.25
Er16     Er     0.6594   0.7745   0.75
loop_
_geom_bond_atom_site_label_1
_geom_bond_atom_site_label_2
_geom_bond_distance
_geom_bond_site_symmetry_2
_ccdc_geom_bond_type
V1     Er13    10.0   .     S
V1     V2    10.0   .     S
V1     V2    10.0   1_554     S
V1     V4    10.0   1_455     S
V2     Er5    10.0   .     S
V2     V1    10.0   1_556     S
V2     V3    10.0   1_455     S
V3     Er7    10.0   .     S
V3     V4    10.0   .     S
V3     V4    10.0   1_556     S
V3     V2    10.0   1_655     S
V4     Er15    10.0   .     S
V4     V3    10.0   1_554     S
V4     V1    10.0   1_655     S
Er5     Er6    10.0   .     S
Er5     Er6    10.0   1_556     S
Er5     Er7    10.0   1_455     S
Er6     Er5    10.0   1_554     S
Er6     Er8    10.0   .     S
Er6     V10    10.0   .     S
Er7     Er8    10.0   .     S
Er7     Er8    10.0   1_556     S
Er7     Er5    10.0   1_655     S
Er8     Er7    10.0   1_554     S
Er8     V12    10.0   .     S
V9     Er14    10.0   .     S
V9     V10    10.0   1_566     S
V9     V10    10.0   1_565     S
V9     V11    10.0   .     S
V10     V9    10.0   1_544     S
V10     V9    10.0   1_545     S
V10     V12    10.0   .     S
V11     Er16    10.0   .     S
V11     V12    10.0   1_565     S
V11     V12    10.0   1_566     S
V12     V11    10.0   1_545     S
V12     V11    10.0   1_544     S
Er13     Er14    10.0   .     S
Er13     Er14    10.0   1_554     S
Er13     Er15    10.0   1_455     S
Er14     Er13    10.0   1_556     S
Er14     Er16    10.0   .     S
Er15     Er16    10.0   .     S
Er15     Er16    10.0   1_554     S
Er15     Er13    10.0   1_655     S
Er16     Er15    10.0   1_556     S
