data_bag
_audit_creation_date              2020-02-02
_audit_creation_method            'Pymatgen'
_symmetry_space_group_name_H-M    'P1'
_symmetry_Int_Tables_number       1
loop_
_symmetry_equiv_pos_as_xyz
  x,y,z
_cell_length_a                    102.9254
_cell_length_b                    102.9254
_cell_length_c                    102.9254
_cell_angle_alpha                 90.0
_cell_angle_beta                 90.0
_cell_angle_gamma                 90.0
loop_
_atom_site_label
_atom_site_type_symbol
_atom_site_fract_x
_atom_site_fract_y
_atom_site_fract_z
V1     V     0.5486   0.3827   0.0
V2     V     0.6173   0.4514   0.0
Er3     Er     0.5486   0.2986   0.0486
Er4     Er     0.5486   0.2986   0.9514
Er5     Er     0.7014   0.4514   0.9514
Er6     Er     0.7014   0.4514   0.0486
V7     V     0.5486   0.6173   0.0
V8     V     0.6173   0.5486   0.0
Er9     Er     0.5486   0.7014   0.9514
Er10     Er     0.7014   0.5486   0.0486
Er11     Er     0.5486   0.7014   0.0486
Er12     Er     0.7014   0.5486   0.9514
V13     V     0.3827   0.4514   0.0
V14     V     0.4514   0.3827   0.0
Er15     Er     0.2986   0.4514   0.0486
Er16     Er     0.4514   0.2986   0.9514
Er17     Er     0.4514   0.2986   0.0486
Er18     Er     0.2986   0.4514   0.9514
V19     V     0.3827   0.5486   0.0
V20     V     0.4514   0.6173   0.0
Er21     Er     0.2986   0.5486   0.9514
Er22     Er     0.2986   0.5486   0.0486
Er23     Er     0.4514   0.7014   0.0486
Er24     Er     0.4514   0.7014   0.9514
Er25     Er     0.7986   0.4514   0.9514
Er26     Er     0.7986   0.5486   0.9514
V27     V     0.9514   0.5   0.8827
V28     V     0.8827   0.5   0.9514
Er29     Er     0.9514   0.4514   0.7986
Er30     Er     0.9514   0.5486   0.7986
Er31     Er     0.2014   0.5486   0.9514
Er32     Er     0.0486   0.4514   0.7986
Er33     Er     0.0486   0.5486   0.7986
V34     V     0.1173   0.5   0.9514
V35     V     0.0486   0.5   0.8827
Er36     Er     0.2014   0.4514   0.9514
Er37     Er     0.2014   0.5486   0.0486
Er38     Er     0.0486   0.5486   0.2014
Er39     Er     0.2014   0.4514   0.0486
V40     V     0.0486   0.5   0.1173
V41     V     0.1173   0.5   0.0486
Er42     Er     0.0486   0.4514   0.2014
Er43     Er     0.9514   0.5486   0.2014
Er44     Er     0.7986   0.4514   0.0486
Er45     Er     0.7986   0.5486   0.0486
V46     V     0.9514   0.5   0.1173
V47     V     0.8827   0.5   0.0486
Er48     Er     0.9514   0.4514   0.2014
Er49     Er     0.4514   0.7986   0.9514
Er50     Er     0.5486   0.7986   0.9514
V51     V     0.5   0.9514   0.8827
V52     V     0.5   0.8827   0.9514
Er53     Er     0.4514   0.9514   0.7986
Er54     Er     0.5486   0.9514   0.7986
Er55     Er     0.5486   0.2014   0.9514
Er56     Er     0.4514   0.0486   0.7986
Er57     Er     0.5486   0.0486   0.7986
V58     V     0.5   0.1173   0.9514
V59     V     0.5   0.0486   0.8827
Er60     Er     0.4514   0.2014   0.9514
Er61     Er     0.5486   0.9514   0.2014
Er62     Er     0.4514   0.7986   0.0486
Er63     Er     0.5486   0.7986   0.0486
V64     V     0.5   0.9514   0.1173
V65     V     0.5   0.8827   0.0486
Er66     Er     0.4514   0.9514   0.2014
Er67     Er     0.5486   0.0486   0.2014
Er68     Er     0.5486   0.2014   0.0486
Er69     Er     0.4514   0.2014   0.0486
V70     V     0.5   0.0486   0.1173
V71     V     0.5   0.1173   0.0486
Er72     Er     0.4514   0.0486   0.2014
V73     V     0.3827   0.0   0.5486
V74     V     0.4514   0.0   0.6173
Er75     Er     0.2986   0.0486   0.5486
Er76     Er     0.2986   0.9514   0.5486
Er77     Er     0.4514   0.9514   0.7014
Er78     Er     0.4514   0.0486   0.7014
V79     V     0.6173   0.0   0.5486
V80     V     0.5486   0.0   0.6173
Er81     Er     0.7014   0.9514   0.5486
Er82     Er     0.5486   0.0486   0.7014
Er83     Er     0.5486   0.9514   0.7014
Er84     Er     0.7014   0.0486   0.5486
V85     V     0.3827   0.0   0.4514
V86     V     0.4514   0.0   0.3827
Er87     Er     0.2986   0.9514   0.4514
Er88     Er     0.4514   0.0486   0.2986
Er89     Er     0.4514   0.9514   0.2986
Er90     Er     0.2986   0.0486   0.4514
V91     V     0.5486   0.0   0.3827
V92     V     0.6173   0.0   0.4514
Er93     Er     0.5486   0.9514   0.2986
Er94     Er     0.5486   0.0486   0.2986
Er95     Er     0.7014   0.0486   0.4514
Er96     Er     0.7014   0.9514   0.4514
Er97     Er     0.2014   0.9514   0.5486
Er98     Er     0.0486   0.7986   0.4514
Er99     Er     0.0486   0.7986   0.5486
V100     V     0.1173   0.9514   0.5
V101     V     0.0486   0.8827   0.5
Er102     Er     0.2014   0.9514   0.4514
Er103     Er     0.9514   0.7986   0.4514
Er104     Er     0.9514   0.7986   0.5486
V105     V     0.8827   0.9514   0.5
V106     V     0.9514   0.8827   0.5
Er107     Er     0.7986   0.9514   0.4514
Er108     Er     0.7986   0.9514   0.5486
Er109     Er     0.9514   0.2014   0.5486
Er110     Er     0.7986   0.0486   0.4514
Er111     Er     0.7986   0.0486   0.5486
V112     V     0.9514   0.1173   0.5
V113     V     0.8827   0.0486   0.5
Er114     Er     0.9514   0.2014   0.4514
Er115     Er     0.0486   0.2014   0.5486
Er116     Er     0.2014   0.0486   0.5486
Er117     Er     0.2014   0.0486   0.4514
V118     V     0.0486   0.1173   0.5
V119     V     0.1173   0.0486   0.5
Er120     Er     0.0486   0.2014   0.4514
V121     V     0.0   0.3827   0.5486
V122     V     0.0   0.4514   0.6173
Er123     Er     0.9514   0.2986   0.5486
Er124     Er     0.0486   0.2986   0.5486
Er125     Er     0.0486   0.4514   0.7014
Er126     Er     0.9514   0.4514   0.7014
V127     V     0.0   0.6173   0.5486
V128     V     0.0   0.5486   0.6173
Er129     Er     0.9514   0.7014   0.5486
Er130     Er     0.9514   0.5486   0.7014
Er131     Er     0.0486   0.7014   0.5486
Er132     Er     0.0486   0.5486   0.7014
V133     V     0.0   0.3827   0.4514
V134     V     0.0   0.4514   0.3827
Er135     Er     0.9514   0.4514   0.2986
Er136     Er     0.0486   0.2986   0.4514
Er137     Er     0.0486   0.4514   0.2986
Er138     Er     0.9514   0.2986   0.4514
V139     V     0.0   0.5486   0.3827
V140     V     0.0   0.6173   0.4514
Er141     Er     0.9514   0.5486   0.2986
Er142     Er     0.0486   0.5486   0.2986
Er143     Er     0.9514   0.7014   0.4514
Er144     Er     0.0486   0.7014   0.4514
loop_
_geom_bond_atom_site_label_1
_geom_bond_atom_site_label_2
_geom_bond_distance
_geom_bond_site_symmetry_2
_ccdc_geom_bond_type
V1     V2    10.0   .     S
V1     Er3    10.0   .     S
V1     Er4    10.0   1_554     S
V1     V14    10.0   .     S
V2     Er5    10.0   1_554     S
V2     Er6    10.0   .     S
V2     V8    10.0   .     S
Er3     Er4    10.0   1_554     S
Er3     Er17    10.0   .     S
Er3     Er68    10.0   .     S
Er4     V1    10.0   1_556     S
Er4     Er3    10.0   1_556     S
Er4     Er16    10.0   .     S
Er4     Er55    10.0   .     S
Er5     V2    10.0   1_556     S
Er5     Er6    10.0   1_556     S
Er5     Er25    10.0   .     S
Er5     Er12    10.0   .     S
Er6     Er5    10.0   1_554     S
Er6     Er44    10.0   .     S
Er6     Er10    10.0   .     S
V7     V8    10.0   .     S
V7     Er9    10.0   1_554     S
V7     Er11    10.0   .     S
V7     V20    10.0   .     S
V8     Er10    10.0   .     S
V8     Er12    10.0   1_554     S
Er9     V7    10.0   1_556     S
Er9     Er11    10.0   1_556     S
Er9     Er50    10.0   .     S
Er9     Er24    10.0   .     S
Er10     Er12    10.0   1_554     S
Er10     Er45    10.0   .     S
Er11     Er9    10.0   1_554     S
Er11     Er63    10.0   .     S
Er11     Er23    10.0   .     S
Er12     V8    10.0   1_556     S
Er12     Er10    10.0   1_556     S
Er12     Er26    10.0   .     S
V13     V14    10.0   .     S
V13     Er15    10.0   .     S
V13     Er18    10.0   1_554     S
V13     V19    10.0   .     S
V14     Er16    10.0   1_554     S
V14     Er17    10.0   .     S
Er15     Er18    10.0   1_554     S
Er15     Er22    10.0   .     S
Er15     Er39    10.0   .     S
Er16     V14    10.0   1_556     S
Er16     Er17    10.0   1_556     S
Er16     Er60    10.0   .     S
Er17     Er16    10.0   1_554     S
Er17     Er69    10.0   .     S
Er18     V13    10.0   1_556     S
Er18     Er15    10.0   1_556     S
Er18     Er21    10.0   .     S
Er18     Er36    10.0   .     S
V19     V20    10.0   .     S
V19     Er21    10.0   1_554     S
V19     Er22    10.0   .     S
V20     Er23    10.0   .     S
V20     Er24    10.0   1_554     S
Er21     V19    10.0   1_556     S
Er21     Er22    10.0   1_556     S
Er21     Er31    10.0   .     S
Er22     Er21    10.0   1_554     S
Er22     Er37    10.0   .     S
Er23     Er24    10.0   1_554     S
Er23     Er62    10.0   .     S
Er24     V20    10.0   1_556     S
Er24     Er23    10.0   1_556     S
Er24     Er49    10.0   .     S
Er25     V28    10.0   .     S
Er25     Er26    10.0   .     S
Er25     Er44    10.0   1_556     S
Er26     V28    10.0   .     S
Er26     Er45    10.0   1_556     S
V27     V28    10.0   .     S
V27     Er29    10.0   .     S
V27     Er30    10.0   .     S
V27     V35    10.0   1_655     S
V28     V47    10.0   1_556     S
Er29     Er30    10.0   .     S
Er29     Er32    10.0   1_655     S
Er29     Er126    10.0   .     S
Er30     Er33    10.0   1_655     S
Er30     Er130    10.0   .     S
Er31     V34    10.0   .     S
Er31     Er36    10.0   .     S
Er31     Er37    10.0   1_556     S
Er32     V35    10.0   .     S
Er32     Er33    10.0   .     S
Er32     Er29    10.0   1_455     S
Er32     Er125    10.0   .     S
Er33     V35    10.0   .     S
Er33     Er30    10.0   1_455     S
Er33     Er132    10.0   .     S
V34     V35    10.0   .     S
V34     Er36    10.0   .     S
V34     V41    10.0   1_556     S
V35     V27    10.0   1_455     S
Er36     Er39    10.0   1_556     S
Er37     V41    10.0   .     S
Er37     Er39    10.0   .     S
Er37     Er31    10.0   1_554     S
Er38     V40    10.0   .     S
Er38     Er42    10.0   .     S
Er38     Er43    10.0   1_455     S
Er38     Er142    10.0   .     S
Er39     V41    10.0   .     S
Er39     Er36    10.0   1_554     S
V40     V41    10.0   .     S
V40     Er42    10.0   .     S
V40     V46    10.0   1_455     S
V41     V34    10.0   1_554     S
Er42     Er48    10.0   1_455     S
Er42     Er137    10.0   .     S
Er43     V46    10.0   .     S
Er43     Er48    10.0   .     S
Er43     Er38    10.0   1_655     S
Er43     Er141    10.0   .     S
Er44     V47    10.0   .     S
Er44     Er45    10.0   .     S
Er44     Er25    10.0   1_554     S
Er45     V47    10.0   .     S
Er45     Er26    10.0   1_554     S
V46     V47    10.0   .     S
V46     Er48    10.0   .     S
V46     V40    10.0   1_655     S
V47     V28    10.0   1_554     S
Er48     Er42    10.0   1_655     S
Er48     Er135    10.0   .     S
Er49     V52    10.0   .     S
Er49     Er50    10.0   .     S
Er49     Er62    10.0   1_556     S
Er50     V52    10.0   .     S
Er50     Er63    10.0   1_556     S
V51     V52    10.0   .     S
V51     Er53    10.0   .     S
V51     Er54    10.0   .     S
V51     V59    10.0   1_565     S
V52     V65    10.0   1_556     S
Er53     Er54    10.0   .     S
Er53     Er56    10.0   1_565     S
Er53     Er77    10.0   .     S
Er54     Er57    10.0   1_565     S
Er54     Er83    10.0   .     S
Er55     V58    10.0   .     S
Er55     Er60    10.0   .     S
Er55     Er68    10.0   1_556     S
Er56     V59    10.0   .     S
Er56     Er57    10.0   .     S
Er56     Er53    10.0   1_545     S
Er56     Er78    10.0   .     S
Er57     V59    10.0   .     S
Er57     Er54    10.0   1_545     S
Er57     Er82    10.0   .     S
V58     V59    10.0   .     S
V58     Er60    10.0   .     S
V58     V71    10.0   1_556     S
V59     V51    10.0   1_545     S
Er60     Er69    10.0   1_556     S
Er61     V64    10.0   .     S
Er61     Er66    10.0   .     S
Er61     Er67    10.0   1_565     S
Er61     Er93    10.0   .     S
Er62     V65    10.0   .     S
Er62     Er63    10.0   .     S
Er62     Er49    10.0   1_554     S
Er63     V65    10.0   .     S
Er63     Er50    10.0   1_554     S
V64     V65    10.0   .     S
V64     Er66    10.0   .     S
V64     V70    10.0   1_565     S
V65     V52    10.0   1_554     S
Er66     Er72    10.0   1_565     S
Er66     Er89    10.0   .     S
Er67     V70    10.0   .     S
Er67     Er72    10.0   .     S
Er67     Er61    10.0   1_545     S
Er67     Er94    10.0   .     S
Er68     V71    10.0   .     S
Er68     Er69    10.0   .     S
Er68     Er55    10.0   1_554     S
Er69     V71    10.0   .     S
Er69     Er60    10.0   1_554     S
V70     V71    10.0   .     S
V70     Er72    10.0   .     S
V70     V64    10.0   1_545     S
V71     V58    10.0   1_554     S
Er72     Er66    10.0   1_545     S
Er72     Er88    10.0   .     S
V73     V74    10.0   .     S
V73     Er75    10.0   .     S
V73     Er76    10.0   1_545     S
V73     V85    10.0   .     S
V74     Er77    10.0   1_545     S
V74     Er78    10.0   .     S
V74     V80    10.0   .     S
Er75     Er76    10.0   1_545     S
Er75     Er90    10.0   .     S
Er75     Er116    10.0   .     S
Er76     V73    10.0   1_565     S
Er76     Er75    10.0   1_565     S
Er76     Er87    10.0   .     S
Er76     Er97    10.0   .     S
Er77     V74    10.0   1_565     S
Er77     Er78    10.0   1_565     S
Er77     Er83    10.0   .     S
Er78     Er77    10.0   1_545     S
Er78     Er82    10.0   .     S
V79     V80    10.0   .     S
V79     Er81    10.0   1_545     S
V79     Er84    10.0   .     S
V79     V92    10.0   .     S
V80     Er82    10.0   .     S
V80     Er83    10.0   1_545     S
Er81     V79    10.0   1_565     S
Er81     Er84    10.0   1_565     S
Er81     Er108    10.0   .     S
Er81     Er96    10.0   .     S
Er82     Er83    10.0   1_545     S
Er83     V80    10.0   1_565     S
Er83     Er82    10.0   1_565     S
Er84     Er81    10.0   1_545     S
Er84     Er111    10.0   .     S
Er84     Er95    10.0   .     S
V85     V86    10.0   .     S
V85     Er87    10.0   1_545     S
V85     Er90    10.0   .     S
V86     Er88    10.0   .     S
V86     Er89    10.0   1_545     S
V86     V91    10.0   .     S
Er87     V85    10.0   1_565     S
Er87     Er90    10.0   1_565     S
Er87     Er102    10.0   .     S
Er88     Er89    10.0   1_545     S
Er88     Er94    10.0   .     S
Er89     V86    10.0   1_565     S
Er89     Er88    10.0   1_565     S
Er89     Er93    10.0   .     S
Er90     Er87    10.0   1_545     S
Er90     Er117    10.0   .     S
V91     V92    10.0   .     S
V91     Er93    10.0   1_545     S
V91     Er94    10.0   .     S
V92     Er95    10.0   .     S
V92     Er96    10.0   1_545     S
Er93     V91    10.0   1_565     S
Er93     Er94    10.0   1_565     S
Er94     Er93    10.0   1_545     S
Er95     Er96    10.0   1_545     S
Er95     Er110    10.0   .     S
Er96     V92    10.0   1_565     S
Er96     Er95    10.0   1_565     S
Er96     Er107    10.0   .     S
Er97     V100    10.0   .     S
Er97     Er102    10.0   .     S
Er97     Er116    10.0   1_565     S
Er98     V101    10.0   .     S
Er98     Er99    10.0   .     S
Er98     Er103    10.0   1_455     S
Er98     Er144    10.0   .     S
Er99     V101    10.0   .     S
Er99     Er104    10.0   1_455     S
Er99     Er131    10.0   .     S
V100     V101    10.0   .     S
V100     Er102    10.0   .     S
V100     V119    10.0   1_565     S
V101     V106    10.0   1_455     S
Er102     Er117    10.0   1_565     S
Er103     V106    10.0   .     S
Er103     Er104    10.0   .     S
Er103     Er98    10.0   1_655     S
Er103     Er143    10.0   .     S
Er104     V106    10.0   .     S
Er104     Er99    10.0   1_655     S
Er104     Er129    10.0   .     S
V105     V106    10.0   .     S
V105     Er107    10.0   .     S
V105     Er108    10.0   .     S
V105     V113    10.0   1_565     S
V106     V101    10.0   1_655     S
Er107     Er108    10.0   .     S
Er107     Er110    10.0   1_565     S
Er108     Er111    10.0   1_565     S
Er109     V112    10.0   .     S
Er109     Er114    10.0   .     S
Er109     Er115    10.0   1_655     S
Er109     Er123    10.0   .     S
Er110     V113    10.0   .     S
Er110     Er111    10.0   .     S
Er110     Er107    10.0   1_545     S
Er111     V113    10.0   .     S
Er111     Er108    10.0   1_545     S
V112     V113    10.0   .     S
V112     Er114    10.0   .     S
V112     V118    10.0   1_655     S
V113     V105    10.0   1_545     S
Er114     Er120    10.0   1_655     S
Er114     Er138    10.0   .     S
Er115     V118    10.0   .     S
Er115     Er120    10.0   .     S
Er115     Er109    10.0   1_455     S
Er115     Er124    10.0   .     S
Er116     V119    10.0   .     S
Er116     Er117    10.0   .     S
Er116     Er97    10.0   1_545     S
Er117     V119    10.0   .     S
Er117     Er102    10.0   1_545     S
V118     V119    10.0   .     S
V118     Er120    10.0   .     S
V118     V112    10.0   1_455     S
V119     V100    10.0   1_545     S
Er120     Er114    10.0   1_455     S
Er120     Er136    10.0   .     S
V121     V122    10.0   .     S
V121     Er123    10.0   1_455     S
V121     Er124    10.0   .     S
V121     V133    10.0   .     S
V122     Er125    10.0   .     S
V122     Er126    10.0   1_455     S
V122     V128    10.0   .     S
Er123     V121    10.0   1_655     S
Er123     Er124    10.0   1_655     S
Er123     Er138    10.0   .     S
Er124     Er123    10.0   1_455     S
Er124     Er136    10.0   .     S
Er125     Er126    10.0   1_455     S
Er125     Er132    10.0   .     S
Er126     V122    10.0   1_655     S
Er126     Er125    10.0   1_655     S
Er126     Er130    10.0   .     S
V127     V128    10.0   .     S
V127     Er129    10.0   1_455     S
V127     Er131    10.0   .     S
V127     V140    10.0   .     S
V128     Er130    10.0   1_455     S
V128     Er132    10.0   .     S
Er129     V127    10.0   1_655     S
Er129     Er131    10.0   1_655     S
Er129     Er143    10.0   .     S
Er130     V128    10.0   1_655     S
Er130     Er132    10.0   1_655     S
Er131     Er129    10.0   1_455     S
Er131     Er144    10.0   .     S
Er132     Er130    10.0   1_455     S
V133     V134    10.0   .     S
V133     Er136    10.0   .     S
V133     Er138    10.0   1_455     S
V134     Er135    10.0   1_455     S
V134     Er137    10.0   .     S
V134     V139    10.0   .     S
Er135     V134    10.0   1_655     S
Er135     Er137    10.0   1_655     S
Er135     Er141    10.0   .     S
Er136     Er138    10.0   1_455     S
Er137     Er135    10.0   1_455     S
Er137     Er142    10.0   .     S
Er138     V133    10.0   1_655     S
Er138     Er136    10.0   1_655     S
V139     V140    10.0   .     S
V139     Er141    10.0   1_455     S
V139     Er142    10.0   .     S
V140     Er143    10.0   1_455     S
V140     Er144    10.0   .     S
Er141     V139    10.0   1_655     S
Er141     Er142    10.0   1_655     S
Er142     Er141    10.0   1_455     S
Er143     V140    10.0   1_655     S
Er143     Er144    10.0   1_655     S
Er144     Er143    10.0   1_455     S
