data_baj
_audit_creation_date              2020-02-02
_audit_creation_method            'Pymatgen'
_symmetry_space_group_name_H-M    'P1'
_symmetry_Int_Tables_number       1
loop_
_symmetry_equiv_pos_as_xyz
  x,y,z
_cell_length_a                    88.2843
_cell_length_b                    88.2843
_cell_length_c                    88.2843
_cell_angle_alpha                 90.0
_cell_angle_beta                 90.0
_cell_angle_gamma                 90.0
loop_
_atom_site_label
_atom_site_type_symbol
_atom_site_fract_x
_atom_site_fract_y
_atom_site_fract_z
Er1     Er     0.8633   0.5566   0.9434
Er2     Er     0.8633   0.4434   0.9434
Er3     Er     0.9434   0.5566   0.8633
Er4     Er     0.9434   0.4434   0.8633
Er5     Er     0.4434   0.8633   0.9434
Er6     Er     0.5566   0.8633   0.9434
Er7     Er     0.4434   0.9434   0.8633
Er8     Er     0.5566   0.9434   0.8633
Er9     Er     0.8633   0.9434   0.4434
Er10     Er     0.8633   0.9434   0.5566
Er11     Er     0.9434   0.8633   0.4434
Er12     Er     0.9434   0.8633   0.5566
Er13     Er     0.4434   0.8633   0.0566
Er14     Er     0.5566   0.8633   0.0566
Er15     Er     0.5566   0.9434   0.1367
Er16     Er     0.4434   0.9434   0.1367
V17     V     0.5566   0.9434   0.25
V18     V     0.4434   0.9434   0.25
Er19     Er     0.0566   0.8633   0.5566
Er20     Er     0.0566   0.8633   0.4434
Er21     Er     0.1367   0.9434   0.4434
Er22     Er     0.1367   0.9434   0.5566
V23     V     0.25   0.9434   0.4434
V24     V     0.25   0.9434   0.5566
Er25     Er     0.3633   0.9434   0.5566
Er26     Er     0.3633   0.0566   0.5566
Er27     Er     0.4434   0.9434   0.6367
Er28     Er     0.4434   0.0566   0.6367
V29     V     0.4434   0.9434   0.75
V30     V     0.4434   0.0566   0.75
Er31     Er     0.5566   0.9434   0.6367
Er32     Er     0.5566   0.0566   0.6367
Er33     Er     0.6367   0.9434   0.5566
Er34     Er     0.6367   0.0566   0.5566
V35     V     0.75   0.9434   0.5566
V36     V     0.5566   0.0566   0.75
V37     V     0.75   0.0566   0.5566
V38     V     0.5566   0.9434   0.75
Er39     Er     0.6367   0.9434   0.4434
Er40     Er     0.6367   0.0566   0.4434
Er41     Er     0.5566   0.9434   0.3633
Er42     Er     0.5566   0.0566   0.3633
V43     V     0.75   0.0566   0.4434
V44     V     0.75   0.9434   0.4434
Er45     Er     0.3633   0.9434   0.4434
Er46     Er     0.3633   0.0566   0.4434
Er47     Er     0.4434   0.9434   0.3633
Er48     Er     0.4434   0.0566   0.3633
Er49     Er     0.4434   0.0566   0.1367
Er50     Er     0.5566   0.0566   0.1367
Er51     Er     0.5566   0.1367   0.0566
Er52     Er     0.4434   0.1367   0.0566
V53     V     0.5566   0.25   0.0566
V54     V     0.4434   0.0566   0.25
V55     V     0.5566   0.0566   0.25
V56     V     0.4434   0.25   0.0566
Er57     Er     0.5566   0.0566   0.8633
Er58     Er     0.4434   0.0566   0.8633
Er59     Er     0.4434   0.1367   0.9434
Er60     Er     0.5566   0.1367   0.9434
V61     V     0.4434   0.25   0.9434
V62     V     0.5566   0.25   0.9434
Er63     Er     0.0566   0.4434   0.8633
Er64     Er     0.0566   0.5566   0.8633
Er65     Er     0.1367   0.5566   0.9434
Er66     Er     0.1367   0.4434   0.9434
V67     V     0.25   0.5566   0.9434
V68     V     0.25   0.4434   0.9434
Er69     Er     0.6367   0.4434   0.9434
Er70     Er     0.6367   0.4434   0.0566
Er71     Er     0.5566   0.3633   0.9434
Er72     Er     0.5566   0.3633   0.0566
V73     V     0.75   0.4434   0.9434
V74     V     0.75   0.4434   0.0566
Er75     Er     0.6367   0.5566   0.9434
Er76     Er     0.6367   0.5566   0.0566
Er77     Er     0.5566   0.6367   0.9434
Er78     Er     0.5566   0.6367   0.0566
V79     V     0.5566   0.75   0.9434
V80     V     0.75   0.5566   0.0566
V81     V     0.75   0.5566   0.9434
V82     V     0.5566   0.75   0.0566
Er83     Er     0.4434   0.6367   0.9434
Er84     Er     0.4434   0.6367   0.0566
Er85     Er     0.3633   0.5566   0.9434
Er86     Er     0.3633   0.5566   0.0566
V87     V     0.4434   0.75   0.0566
V88     V     0.4434   0.75   0.9434
Er89     Er     0.4434   0.3633   0.9434
Er90     Er     0.4434   0.3633   0.0566
Er91     Er     0.3633   0.4434   0.9434
Er92     Er     0.3633   0.4434   0.0566
Er93     Er     0.1367   0.5566   0.0566
Er94     Er     0.1367   0.4434   0.0566
Er95     Er     0.0566   0.5566   0.1367
Er96     Er     0.0566   0.4434   0.1367
V97     V     0.0566   0.5566   0.25
V98     V     0.25   0.4434   0.0566
V99     V     0.0566   0.4434   0.25
V100     V     0.25   0.5566   0.0566
Er101     Er     0.8633   0.5566   0.0566
Er102     Er     0.8633   0.4434   0.0566
Er103     Er     0.9434   0.4434   0.1367
Er104     Er     0.9434   0.5566   0.1367
V105     V     0.9434   0.4434   0.25
V106     V     0.9434   0.5566   0.25
Er107     Er     0.8633   0.0566   0.4434
Er108     Er     0.8633   0.0566   0.5566
Er109     Er     0.9434   0.1367   0.5566
Er110     Er     0.9434   0.1367   0.4434
V111     V     0.9434   0.25   0.5566
V112     V     0.9434   0.25   0.4434
Er113     Er     0.1367   0.0566   0.4434
Er114     Er     0.1367   0.0566   0.5566
Er115     Er     0.0566   0.1367   0.4434
Er116     Er     0.0566   0.1367   0.5566
V117     V     0.0566   0.25   0.4434
V118     V     0.25   0.0566   0.5566
V119     V     0.0566   0.25   0.5566
V120     V     0.25   0.0566   0.4434
Er121     Er     0.9434   0.3633   0.5566
Er122     Er     0.0566   0.3633   0.5566
Er123     Er     0.9434   0.4434   0.6367
Er124     Er     0.0566   0.4434   0.6367
V125     V     0.0566   0.4434   0.75
V126     V     0.9434   0.4434   0.75
Er127     Er     0.9434   0.5566   0.6367
Er128     Er     0.0566   0.5566   0.6367
Er129     Er     0.9434   0.6367   0.5566
Er130     Er     0.0566   0.6367   0.5566
V131     V     0.0566   0.75   0.5566
V132     V     0.9434   0.5566   0.75
V133     V     0.9434   0.75   0.5566
V134     V     0.0566   0.5566   0.75
Er135     Er     0.9434   0.6367   0.4434
Er136     Er     0.0566   0.6367   0.4434
Er137     Er     0.9434   0.5566   0.3633
Er138     Er     0.0566   0.5566   0.3633
V139     V     0.9434   0.75   0.4434
V140     V     0.0566   0.75   0.4434
Er141     Er     0.9434   0.4434   0.3633
Er142     Er     0.0566   0.4434   0.3633
Er143     Er     0.9434   0.3633   0.4434
Er144     Er     0.0566   0.3633   0.4434
loop_
_geom_bond_atom_site_label_1
_geom_bond_atom_site_label_2
_geom_bond_distance
_geom_bond_site_symmetry_2
_ccdc_geom_bond_type
Er1     Er2    9.999   .     S
Er1     V81    10.0   .     S
Er1     Er3    9.999   .     S
Er1     Er101    10.001   1_556     S
Er2     V73    10.0   .     S
Er2     Er4    9.999   .     S
Er2     Er102    10.001   1_556     S
Er3     Er4    9.999   .     S
Er3     V132    10.0   .     S
Er3     Er64    10.001   1_655     S
Er4     V126    10.0   .     S
Er4     Er63    10.001   1_655     S
Er5     Er6    9.999   .     S
Er5     V88    10.0   .     S
Er5     Er7    9.999   .     S
Er5     Er13    10.001   1_556     S
Er6     V79    10.0   .     S
Er6     Er8    9.999   .     S
Er6     Er14    10.001   1_556     S
Er7     Er8    9.999   .     S
Er7     V29    10.0   .     S
Er7     Er58    10.001   1_565     S
Er8     V38    10.0   .     S
Er8     Er57    10.001   1_565     S
Er9     Er10    9.999   .     S
Er9     V44    10.0   .     S
Er9     Er11    9.999   .     S
Er9     Er107    10.001   1_565     S
Er10     V35    10.0   .     S
Er10     Er12    9.999   .     S
Er10     Er108    10.001   1_565     S
Er11     Er12    9.999   .     S
Er11     V139    10.0   .     S
Er11     Er20    10.001   1_655     S
Er12     V133    10.0   .     S
Er12     Er19    10.001   1_655     S
Er13     Er14    9.999   .     S
Er13     V87    10.0   .     S
Er13     Er16    9.999   .     S
Er13     Er5    10.001   1_554     S
Er14     V82    10.0   .     S
Er14     Er15    9.999   .     S
Er14     Er6    10.001   1_554     S
Er15     Er16    9.999   .     S
Er15     V17    10.0   .     S
Er15     Er50    10.001   1_565     S
Er16     V18    10.0   .     S
Er16     Er49    10.001   1_565     S
V17     V18    10.001   .     S
V17     Er41    10.0   .     S
V17     V55    10.001   1_565     S
V18     Er47    10.0   .     S
V18     V54    10.001   1_565     S
Er19     Er20    9.999   .     S
Er19     V131    10.0   .     S
Er19     Er22    9.999   .     S
Er19     Er12    10.001   1_455     S
Er20     V140    10.0   .     S
Er20     Er21    9.999   .     S
Er20     Er11    10.001   1_455     S
Er21     Er22    9.999   .     S
Er21     V23    10.0   .     S
Er21     Er113    10.001   1_565     S
Er22     V24    10.0   .     S
Er22     Er114    10.001   1_565     S
V23     V24    10.001   .     S
V23     Er45    10.0   .     S
V23     V120    10.001   1_565     S
V24     Er25    10.0   .     S
V24     V118    10.001   1_565     S
Er25     Er26    9.999   1_565     S
Er25     Er27    9.999   .     S
Er25     Er45    10.001   .     S
Er26     Er25    9.999   1_545     S
Er26     V118    10.0   .     S
Er26     Er28    9.999   .     S
Er26     Er46    10.001   .     S
Er27     Er28    9.999   1_565     S
Er27     V29    10.0   .     S
Er27     Er31    10.001   .     S
Er28     Er27    9.999   1_545     S
Er28     V30    10.0   .     S
Er28     Er32    10.001   .     S
V29     V38    10.001   .     S
V29     V30    10.001   1_565     S
V30     V36    10.001   .     S
V30     V29    10.001   1_545     S
V30     Er58    10.0   .     S
Er31     Er32    9.999   1_565     S
Er31     V38    10.0   .     S
Er31     Er33    9.999   .     S
Er32     Er31    9.999   1_545     S
Er32     V36    10.0   .     S
Er32     Er34    9.999   .     S
Er33     Er34    9.999   1_565     S
Er33     V35    10.0   .     S
Er33     Er39    10.001   .     S
Er34     Er33    9.999   1_545     S
Er34     V37    10.0   .     S
Er34     Er40    10.001   .     S
V35     V44    10.001   .     S
V35     V37    10.001   1_565     S
V36     V38    10.001   1_545     S
V36     Er57    10.0   .     S
V37     V43    10.001   .     S
V37     V35    10.001   1_545     S
V37     Er108    10.0   .     S
V38     V36    10.001   1_565     S
Er39     Er40    9.999   1_565     S
Er39     V44    10.0   .     S
Er39     Er41    9.999   .     S
Er40     Er39    9.999   1_545     S
Er40     V43    10.0   .     S
Er40     Er42    9.999   .     S
Er41     Er42    9.999   1_565     S
Er41     Er47    10.001   .     S
Er42     Er41    9.999   1_545     S
Er42     V55    10.0   .     S
Er42     Er48    10.001   .     S
V43     V44    10.001   1_545     S
V43     Er107    10.0   .     S
V44     V43    10.001   1_565     S
Er45     Er46    9.999   1_565     S
Er45     Er47    9.999   .     S
Er46     Er45    9.999   1_545     S
Er46     V120    10.0   .     S
Er46     Er48    9.999   .     S
Er47     Er48    9.999   1_565     S
Er48     Er47    9.999   1_545     S
Er48     V54    10.0   .     S
Er49     Er50    9.999   .     S
Er49     V54    10.0   .     S
Er49     Er52    9.999   .     S
Er49     Er16    10.001   1_545     S
Er50     V55    10.0   .     S
Er50     Er51    9.999   .     S
Er50     Er15    10.001   1_545     S
Er51     Er52    9.999   .     S
Er51     V53    10.0   .     S
Er51     Er60    10.001   1_554     S
Er52     V56    10.0   .     S
Er52     Er59    10.001   1_554     S
V53     V56    10.001   .     S
V53     V62    10.001   1_554     S
V53     Er72    10.0   .     S
V54     V55    10.001   .     S
V54     V18    10.001   1_545     S
V55     V17    10.001   1_545     S
V56     V61    10.001   1_554     S
V56     Er90    10.0   .     S
Er57     Er58    9.999   .     S
Er57     Er60    9.999   .     S
Er57     Er8    10.001   1_545     S
Er58     Er59    9.999   .     S
Er58     Er7    10.001   1_545     S
Er59     Er52    10.001   1_556     S
Er59     Er60    9.999   .     S
Er59     V61    10.0   .     S
Er60     Er51    10.001   1_556     S
Er60     V62    10.0   .     S
V61     V56    10.001   1_556     S
V61     V62    10.001   .     S
V61     Er89    10.0   .     S
V62     V53    10.001   1_556     S
V62     Er71    10.0   .     S
Er63     Er64    9.999   .     S
Er63     V125    10.0   .     S
Er63     Er66    9.999   .     S
Er63     Er4    10.001   1_455     S
Er64     V134    10.0   .     S
Er64     Er65    9.999   .     S
Er64     Er3    10.001   1_455     S
Er65     Er66    9.999   .     S
Er65     V67    10.0   .     S
Er65     Er93    10.001   1_556     S
Er66     V68    10.0   .     S
Er66     Er94    10.001   1_556     S
V67     V68    10.001   .     S
V67     Er85    10.0   .     S
V67     V100    10.001   1_556     S
V68     Er91    10.0   .     S
V68     V98    10.001   1_556     S
Er69     Er70    9.999   1_556     S
Er69     V73    10.0   .     S
Er69     Er71    9.999   .     S
Er69     Er75    10.001   .     S
Er70     Er69    9.999   1_554     S
Er70     V74    10.0   .     S
Er70     Er72    9.999   .     S
Er70     Er76    10.001   .     S
Er71     Er72    9.999   1_556     S
Er71     Er89    10.001   .     S
Er72     Er71    9.999   1_554     S
Er72     Er90    10.001   .     S
V73     V81    10.001   .     S
V73     V74    10.001   1_556     S
V74     V80    10.001   .     S
V74     V73    10.001   1_554     S
V74     Er102    10.0   .     S
Er75     Er76    9.999   1_556     S
Er75     V81    10.0   .     S
Er75     Er77    9.999   .     S
Er76     Er75    9.999   1_554     S
Er76     V80    10.0   .     S
Er76     Er78    9.999   .     S
Er77     Er78    9.999   1_556     S
Er77     V79    10.0   .     S
Er77     Er83    10.001   .     S
Er78     Er77    9.999   1_554     S
Er78     V82    10.0   .     S
Er78     Er84    10.001   .     S
V79     V88    10.001   .     S
V79     V82    10.001   1_556     S
V80     V81    10.001   1_554     S
V80     Er101    10.0   .     S
V81     V80    10.001   1_556     S
V82     V87    10.001   .     S
V82     V79    10.001   1_554     S
Er83     Er84    9.999   1_556     S
Er83     V88    10.0   .     S
Er83     Er85    9.999   .     S
Er84     Er83    9.999   1_554     S
Er84     V87    10.0   .     S
Er84     Er86    9.999   .     S
Er85     Er86    9.999   1_556     S
Er85     Er91    10.001   .     S
Er86     Er85    9.999   1_554     S
Er86     V100    10.0   .     S
Er86     Er92    10.001   .     S
V87     V88    10.001   1_554     S
V88     V87    10.001   1_556     S
Er89     Er90    9.999   1_556     S
Er89     Er91    9.999   .     S
Er90     Er89    9.999   1_554     S
Er90     Er92    9.999   .     S
Er91     Er92    9.999   1_556     S
Er92     Er91    9.999   1_554     S
Er92     V98    10.0   .     S
Er93     Er94    9.999   .     S
Er93     V100    10.0   .     S
Er93     Er95    9.999   .     S
Er93     Er65    10.001   1_554     S
Er94     V98    10.0   .     S
Er94     Er96    9.999   .     S
Er94     Er66    10.001   1_554     S
Er95     Er96    9.999   .     S
Er95     V97    10.0   .     S
Er95     Er104    10.001   1_455     S
Er96     V99    10.0   .     S
Er96     Er103    10.001   1_455     S
V97     V99    10.001   .     S
V97     V106    10.001   1_455     S
V97     Er138    10.0   .     S
V98     V100    10.001   .     S
V98     V68    10.001   1_554     S
V99     V105    10.001   1_455     S
V99     Er142    10.0   .     S
V100     V67    10.001   1_554     S
Er101     Er102    9.999   .     S
Er101     Er104    9.999   .     S
Er101     Er1    10.001   1_554     S
Er102     Er103    9.999   .     S
Er102     Er2    10.001   1_554     S
Er103     Er96    10.001   1_655     S
Er103     Er104    9.999   .     S
Er103     V105    10.0   .     S
Er104     Er95    10.001   1_655     S
Er104     V106    10.0   .     S
V105     V99    10.001   1_655     S
V105     V106    10.001   .     S
V105     Er141    10.0   .     S
V106     V97    10.001   1_655     S
V106     Er137    10.0   .     S
Er107     Er108    9.999   .     S
Er107     Er110    9.999   .     S
Er107     Er9    10.001   1_545     S
Er108     Er109    9.999   .     S
Er108     Er10    10.001   1_545     S
Er109     Er110    9.999   .     S
Er109     V111    10.0   .     S
Er109     Er116    10.001   1_655     S
Er110     V112    10.0   .     S
Er110     Er115    10.001   1_655     S
V111     V112    10.001   .     S
V111     V119    10.001   1_655     S
V111     Er121    10.0   .     S
V112     V117    10.001   1_655     S
V112     Er143    10.0   .     S
Er113     Er114    9.999   .     S
Er113     V120    10.0   .     S
Er113     Er115    9.999   .     S
Er113     Er21    10.001   1_545     S
Er114     V118    10.0   .     S
Er114     Er116    9.999   .     S
Er114     Er22    10.001   1_545     S
Er115     Er116    9.999   .     S
Er115     V117    10.0   .     S
Er115     Er110    10.001   1_455     S
Er116     V119    10.0   .     S
Er116     Er109    10.001   1_455     S
V117     V119    10.001   .     S
V117     V112    10.001   1_455     S
V117     Er144    10.0   .     S
V118     V120    10.001   .     S
V118     V24    10.001   1_545     S
V119     V111    10.001   1_455     S
V119     Er122    10.0   .     S
V120     V23    10.001   1_545     S
Er121     Er122    9.999   1_655     S
Er121     Er123    9.999   .     S
Er121     Er143    10.001   .     S
Er122     Er121    9.999   1_455     S
Er122     Er124    9.999   .     S
Er122     Er144    10.001   .     S
Er123     Er124    9.999   1_655     S
Er123     V126    10.0   .     S
Er123     Er127    10.001   .     S
Er124     Er123    9.999   1_455     S
Er124     V125    10.0   .     S
Er124     Er128    10.001   .     S
V125     V134    10.001   .     S
V125     V126    10.001   1_455     S
V126     V132    10.001   .     S
V126     V125    10.001   1_655     S
Er127     Er128    9.999   1_655     S
Er127     V132    10.0   .     S
Er127     Er129    9.999   .     S
Er128     Er127    9.999   1_455     S
Er128     V134    10.0   .     S
Er128     Er130    9.999   .     S
Er129     Er130    9.999   1_655     S
Er129     V133    10.0   .     S
Er129     Er135    10.001   .     S
Er130     Er129    9.999   1_455     S
Er130     V131    10.0   .     S
Er130     Er136    10.001   .     S
V131     V140    10.001   .     S
V131     V133    10.001   1_455     S
V132     V134    10.001   1_655     S
V133     V139    10.001   .     S
V133     V131    10.001   1_655     S
V134     V132    10.001   1_455     S
Er135     Er136    9.999   1_655     S
Er135     V139    10.0   .     S
Er135     Er137    9.999   .     S
Er136     Er135    9.999   1_455     S
Er136     V140    10.0   .     S
Er136     Er138    9.999   .     S
Er137     Er138    9.999   1_655     S
Er137     Er141    10.001   .     S
Er138     Er137    9.999   1_455     S
Er138     Er142    10.001   .     S
V139     V140    10.001   1_655     S
V140     V139    10.001   1_455     S
Er141     Er142    9.999   1_655     S
Er141     Er143    9.999   .     S
Er142     Er141    9.999   1_455     S
Er142     Er144    9.999   .     S
Er143     Er144    9.999   1_655     S
Er144     Er143    9.999   1_455     S
