data_bat
_audit_creation_date              2020-02-02
_audit_creation_method            'Pymatgen'
_symmetry_space_group_name_H-M    'P1'
_symmetry_Int_Tables_number       1
loop_
_symmetry_equiv_pos_as_xyz
  x,y,z
_cell_length_a                    58.2842
_cell_length_b                    58.2842
_cell_length_c                    58.2842
_cell_angle_alpha                 90.0
_cell_angle_beta                 90.0
_cell_angle_gamma                 90.0
loop_
_atom_site_label
_atom_site_type_symbol
_atom_site_fract_x
_atom_site_fract_y
_atom_site_fract_z
V1     V     0.5   0.3787   0.9142
V2     V     0.3787   0.5   0.9142
V3     V     0.5   0.6213   0.9142
V4     V     0.6213   0.5   0.9142
V5     V     0.5   0.9142   0.3787
V6     V     0.3787   0.9142   0.5
V7     V     0.5   0.9142   0.6213
V8     V     0.6213   0.9142   0.5
V9     V     0.9142   0.5   0.6213
V10     V     0.9142   0.6213   0.5
V11     V     0.9142   0.3787   0.5
V12     V     0.9142   0.5   0.3787
V13     V     0.5   0.3787   0.0858
V14     V     0.3787   0.5   0.0858
V15     V     0.5   0.6213   0.0858
V16     V     0.6213   0.5   0.0858
V17     V     0.5   0.0858   0.6213
V18     V     0.6213   0.0858   0.5
V19     V     0.3787   0.0858   0.5
V20     V     0.5   0.0858   0.3787
V21     V     0.0858   0.5   0.3787
V22     V     0.0858   0.3787   0.5
V23     V     0.0858   0.5   0.6213
V24     V     0.0858   0.6213   0.5
Er25     Er     0.6213   0.5   0.2574
Er26     Er     0.5   0.6213   0.2574
Er27     Er     0.2574   0.6213   0.5
Er28     Er     0.2574   0.5   0.6213
Er29     Er     0.6213   0.2574   0.5
Er30     Er     0.5   0.2574   0.6213
Er31     Er     0.3787   0.5   0.2574
Er32     Er     0.5   0.3787   0.2574
Er33     Er     0.5   0.2574   0.3787
Er34     Er     0.3787   0.2574   0.5
Er35     Er     0.2574   0.5   0.3787
Er36     Er     0.2574   0.3787   0.5
Er37     Er     0.5   0.3787   0.7426
Er38     Er     0.3787   0.5   0.7426
Er39     Er     0.3787   0.7426   0.5
Er40     Er     0.5   0.7426   0.3787
Er41     Er     0.7426   0.5   0.3787
Er42     Er     0.7426   0.3787   0.5
Er43     Er     0.7426   0.5   0.6213
Er44     Er     0.6213   0.5   0.7426
Er45     Er     0.5   0.7426   0.6213
Er46     Er     0.5   0.6213   0.7426
Er47     Er     0.7426   0.6213   0.5
Er48     Er     0.6213   0.7426   0.5
loop_
_geom_bond_atom_site_label_1
_geom_bond_atom_site_label_2
_geom_bond_distance
_geom_bond_site_symmetry_2
_ccdc_geom_bond_type
V1     Er37    10.0   .     S
V1     V4    10.0   .     S
V1     V2    10.0   .     S
V1     V13    10.0   1_556     S
V2     Er38    10.0   .     S
V2     V3    10.0   .     S
V2     V14    10.0   1_556     S
V3     Er46    10.0   .     S
V3     V4    10.0   .     S
V3     V15    10.0   1_556     S
V4     Er44    10.0   .     S
V4     V16    10.0   1_556     S
V5     Er40    10.0   .     S
V5     V8    10.0   .     S
V5     V6    10.0   .     S
V5     V20    10.0   1_565     S
V6     Er39    10.0   .     S
V6     V7    10.0   .     S
V6     V19    10.0   1_565     S
V7     Er45    10.0   .     S
V7     V8    10.0   .     S
V7     V17    10.0   1_565     S
V8     Er48    10.0   .     S
V8     V18    10.0   1_565     S
V9     Er43    10.0   .     S
V9     V10    10.0   .     S
V9     V11    10.0   .     S
V9     V23    10.0   1_655     S
V10     Er47    10.0   .     S
V10     V12    10.0   .     S
V10     V24    10.0   1_655     S
V11     Er42    10.0   .     S
V11     V12    10.0   .     S
V11     V22    10.0   1_655     S
V12     Er41    10.0   .     S
V12     V21    10.0   1_655     S
V13     Er32    10.0   .     S
V13     V16    10.0   .     S
V13     V14    10.0   .     S
V13     V1    10.0   1_554     S
V14     Er31    10.0   .     S
V14     V15    10.0   .     S
V14     V2    10.0   1_554     S
V15     Er26    10.0   .     S
V15     V16    10.0   .     S
V15     V3    10.0   1_554     S
V16     Er25    10.0   .     S
V16     V4    10.0   1_554     S
V17     Er30    10.0   .     S
V17     V18    10.0   .     S
V17     V19    10.0   .     S
V17     V7    10.0   1_545     S
V18     Er29    10.0   .     S
V18     V20    10.0   .     S
V18     V8    10.0   1_545     S
V19     Er34    10.0   .     S
V19     V20    10.0   .     S
V19     V6    10.0   1_545     S
V20     Er33    10.0   .     S
V20     V5    10.0   1_545     S
V21     Er35    10.0   .     S
V21     V24    10.0   .     S
V21     V22    10.0   .     S
V21     V12    10.0   1_455     S
V22     Er36    10.0   .     S
V22     V23    10.0   .     S
V22     V11    10.0   1_455     S
V23     Er28    10.0   .     S
V23     V24    10.0   .     S
V23     V9    10.0   1_455     S
V24     Er27    10.0   .     S
V24     V10    10.0   1_455     S
Er25     Er26    10.0   .     S
Er25     Er32    10.0   .     S
Er25     Er41    10.0   .     S
Er26     Er31    10.0   .     S
Er26     Er40    10.0   .     S
Er27     Er28    10.0   .     S
Er27     Er35    10.0   .     S
Er27     Er39    10.0   .     S
Er28     Er36    10.0   .     S
Er28     Er38    10.0   .     S
Er29     Er30    10.0   .     S
Er29     Er33    10.0   .     S
Er29     Er42    10.0   .     S
Er30     Er34    10.0   .     S
Er30     Er37    10.0   .     S
Er31     Er32    10.0   .     S
Er31     Er35    10.0   .     S
Er32     Er33    10.0   .     S
Er33     Er34    10.0   .     S
Er34     Er36    10.0   .     S
Er35     Er36    10.0   .     S
Er37     Er44    10.0   .     S
Er37     Er38    10.0   .     S
Er38     Er46    10.0   .     S
Er39     Er45    10.0   .     S
Er39     Er40    10.0   .     S
Er40     Er48    10.0   .     S
Er41     Er47    10.0   .     S
Er41     Er42    10.0   .     S
Er42     Er43    10.0   .     S
Er43     Er44    10.0   .     S
Er43     Er47    10.0   .     S
Er44     Er46    10.0   .     S
Er45     Er46    10.0   .     S
Er45     Er48    10.0   .     S
Er47     Er48    10.0   .     S
