data_bax
_audit_creation_date              2020-02-02
_audit_creation_method            'Pymatgen'
_symmetry_space_group_name_H-M    'P1'
_symmetry_Int_Tables_number       1
loop_
_symmetry_equiv_pos_as_xyz
  x,y,z
_cell_length_a                    82.9251
_cell_length_b                    82.9251
_cell_length_c                    82.9251
_cell_angle_alpha                 90.0
_cell_angle_beta                 90.0
_cell_angle_gamma                 90.0
loop_
_atom_site_label
_atom_site_type_symbol
_atom_site_fract_x
_atom_site_fract_y
_atom_site_fract_z
Er1     Er     0.6995   0.1299   0.7848
V2     V     0.7692   0.0603   0.8544
Er3     Er     0.6299   0.1995   0.7152
V4     V     0.5603   0.2692   0.6456
Er5     Er     0.7848   0.1299   0.6995
V6     V     0.8544   0.0603   0.7692
Er7     Er     0.7152   0.1995   0.6299
V8     V     0.6456   0.2692   0.5603
V9     V     0.9397   0.1456   0.7692
Er10     Er     0.8005   0.2848   0.6299
V11     V     0.7308   0.3544   0.5603
Er12     Er     0.8701   0.2152   0.6995
Er13     Er     0.8701   0.3005   0.7848
V14     V     0.9397   0.2308   0.8544
Er15     Er     0.8005   0.3701   0.7152
V16     V     0.7308   0.4397   0.6456
V17     V     0.8544   0.2308   0.9397
Er18     Er     0.7848   0.3005   0.8701
Er19     Er     0.7152   0.3701   0.8005
V20     V     0.6456   0.4397   0.7308
V21     V     0.7692   0.1456   0.9397
Er22     Er     0.6299   0.2848   0.8005
V23     V     0.5603   0.3544   0.7308
Er24     Er     0.6995   0.2152   0.8701
V25     V     0.4397   0.2692   0.6456
Er26     Er     0.3005   0.1299   0.7848
V27     V     0.2308   0.0603   0.8544
Er28     Er     0.3701   0.1995   0.7152
V29     V     0.3544   0.2692   0.5603
V30     V     0.1456   0.0603   0.7692
Er31     Er     0.2848   0.1995   0.6299
Er32     Er     0.2152   0.1299   0.6995
V33     V     0.2692   0.3544   0.5603
V34     V     0.0603   0.1456   0.7692
Er35     Er     0.1995   0.2848   0.6299
Er36     Er     0.1299   0.2152   0.6995
V37     V     0.2692   0.4397   0.6456
Er38     Er     0.1299   0.3005   0.7848
V39     V     0.0603   0.2308   0.8544
Er40     Er     0.1995   0.3701   0.7152
V41     V     0.2308   0.1456   0.9397
Er42     Er     0.3005   0.2152   0.8701
Er43     Er     0.3701   0.2848   0.8005
V44     V     0.4397   0.3544   0.7308
Er45     Er     0.2848   0.3701   0.8005
V46     V     0.3544   0.4397   0.7308
V47     V     0.1456   0.2308   0.9397
Er48     Er     0.2152   0.3005   0.8701
Er49     Er     0.1299   0.6995   0.7848
V50     V     0.0603   0.7692   0.8544
Er51     Er     0.1995   0.6299   0.7152
V52     V     0.2692   0.5603   0.6456
Er53     Er     0.1299   0.7848   0.6995
V54     V     0.0603   0.8544   0.7692
Er55     Er     0.1995   0.7152   0.6299
V56     V     0.2692   0.6456   0.5603
V57     V     0.1456   0.9397   0.7692
Er58     Er     0.2848   0.8005   0.6299
V59     V     0.3544   0.7308   0.5603
Er60     Er     0.2152   0.8701   0.6995
Er61     Er     0.3005   0.8701   0.7848
V62     V     0.2308   0.9397   0.8544
Er63     Er     0.3701   0.8005   0.7152
V64     V     0.4397   0.7308   0.6456
Er65     Er     0.3005   0.7848   0.8701
V66     V     0.2308   0.8544   0.9397
Er67     Er     0.3701   0.7152   0.8005
V68     V     0.4397   0.6456   0.7308
V69     V     0.1456   0.7692   0.9397
Er70     Er     0.2848   0.6299   0.8005
V71     V     0.3544   0.5603   0.7308
Er72     Er     0.2152   0.6995   0.8701
V73     V     0.8544   0.7692   0.9397
Er74     Er     0.7848   0.6995   0.8701
Er75     Er     0.7152   0.6299   0.8005
V76     V     0.6456   0.5603   0.7308
V77     V     0.9397   0.7692   0.8544
Er78     Er     0.8701   0.6995   0.7848
Er79     Er     0.8005   0.6299   0.7152
V80     V     0.7308   0.5603   0.6456
V81     V     0.7692   0.8544   0.9397
Er82     Er     0.6995   0.7848   0.8701
Er83     Er     0.6299   0.7152   0.8005
V84     V     0.5603   0.6456   0.7308
V85     V     0.7692   0.9397   0.8544
Er86     Er     0.6995   0.8701   0.7848
Er87     Er     0.6299   0.8005   0.7152
V88     V     0.5603   0.7308   0.6456
V89     V     0.9397   0.8544   0.7692
Er90     Er     0.8701   0.7848   0.6995
Er91     Er     0.8005   0.7152   0.6299
V92     V     0.7308   0.6456   0.5603
V93     V     0.8544   0.9397   0.7692
Er94     Er     0.7848   0.8701   0.6995
Er95     Er     0.7152   0.8005   0.6299
V96     V     0.6456   0.7308   0.5603
V97     V     0.2692   0.6456   0.4397
Er98     Er     0.1299   0.7848   0.3005
V99     V     0.0603   0.8544   0.2308
Er100     Er     0.1995   0.7152   0.3701
V101     V     0.2692   0.5603   0.3544
V102     V     0.0603   0.7692   0.1456
Er103     Er     0.1995   0.6299   0.2848
Er104     Er     0.1299   0.6995   0.2152
V105     V     0.1456   0.9397   0.2308
Er106     Er     0.2152   0.8701   0.3005
Er107     Er     0.2848   0.8005   0.3701
V108     V     0.3544   0.7308   0.4397
V109     V     0.2308   0.9397   0.1456
Er110     Er     0.3005   0.8701   0.2152
Er111     Er     0.3701   0.8005   0.2848
V112     V     0.4397   0.7308   0.3544
Er113     Er     0.3005   0.7848   0.1299
V114     V     0.2308   0.8544   0.0603
V115     V     0.4397   0.6456   0.2692
Er116     Er     0.3701   0.7152   0.1995
V117     V     0.3544   0.5603   0.2692
V118     V     0.1456   0.7692   0.0603
Er119     Er     0.2848   0.6299   0.1995
Er120     Er     0.2152   0.6995   0.1299
V121     V     0.9397   0.7692   0.1456
Er122     Er     0.8005   0.6299   0.2848
V123     V     0.7308   0.5603   0.3544
Er124     Er     0.8701   0.6995   0.2152
Er125     Er     0.8701   0.7848   0.3005
V126     V     0.9397   0.8544   0.2308
Er127     Er     0.8005   0.7152   0.3701
V128     V     0.7308   0.6456   0.4397
V129     V     0.8544   0.9397   0.2308
Er130     Er     0.7848   0.8701   0.3005
Er131     Er     0.7152   0.8005   0.3701
V132     V     0.6456   0.7308   0.4397
Er133     Er     0.6995   0.7848   0.1299
V134     V     0.7692   0.8544   0.0603
Er135     Er     0.6299   0.7152   0.1995
V136     V     0.5603   0.6456   0.2692
Er137     Er     0.7848   0.6995   0.1299
V138     V     0.8544   0.7692   0.0603
Er139     Er     0.7152   0.6299   0.1995
V140     V     0.6456   0.5603   0.2692
V141     V     0.7692   0.9397   0.1456
Er142     Er     0.6299   0.8005   0.2848
Er143     Er     0.6995   0.8701   0.2152
V144     V     0.5603   0.7308   0.3544
V145     V     0.6456   0.2692   0.4397
Er146     Er     0.7848   0.1299   0.3005
V147     V     0.8544   0.0603   0.2308
Er148     Er     0.7152   0.1995   0.3701
V149     V     0.5603   0.2692   0.3544
V150     V     0.7692   0.0603   0.1456
Er151     Er     0.6299   0.1995   0.2848
Er152     Er     0.6995   0.1299   0.2152
V153     V     0.9397   0.1456   0.2308
Er154     Er     0.8701   0.2152   0.3005
Er155     Er     0.8005   0.2848   0.3701
V156     V     0.7308   0.3544   0.4397
V157     V     0.9397   0.2308   0.1456
Er158     Er     0.8701   0.3005   0.2152
Er159     Er     0.8005   0.3701   0.2848
V160     V     0.7308   0.4397   0.3544
V161     V     0.5603   0.3544   0.2692
V162     V     0.7692   0.1456   0.0603
Er163     Er     0.6299   0.2848   0.1995
Er164     Er     0.6995   0.2152   0.1299
V165     V     0.6456   0.4397   0.2692
Er166     Er     0.7848   0.3005   0.1299
V167     V     0.8544   0.2308   0.0603
Er168     Er     0.7152   0.3701   0.1995
V169     V     0.3544   0.2692   0.4397
Er170     Er     0.2152   0.1299   0.3005
V171     V     0.1456   0.0603   0.2308
Er172     Er     0.2848   0.1995   0.3701
V173     V     0.4397   0.2692   0.3544
Er174     Er     0.3005   0.1299   0.2152
V175     V     0.2308   0.0603   0.1456
Er176     Er     0.3701   0.1995   0.2848
V177     V     0.4397   0.3544   0.2692
Er178     Er     0.3005   0.2152   0.1299
V179     V     0.2308   0.1456   0.0603
Er180     Er     0.3701   0.2848   0.1995
V181     V     0.3544   0.4397   0.2692
Er182     Er     0.2152   0.3005   0.1299
Er183     Er     0.2848   0.3701   0.1995
V184     V     0.1456   0.2308   0.0603
V185     V     0.2692   0.4397   0.3544
Er186     Er     0.1299   0.3005   0.2152
V187     V     0.0603   0.2308   0.1456
Er188     Er     0.1995   0.3701   0.2848
V189     V     0.2692   0.3544   0.4397
Er190     Er     0.1299   0.2152   0.3005
V191     V     0.0603   0.1456   0.2308
Er192     Er     0.1995   0.2848   0.3701
loop_
_geom_bond_atom_site_label_1
_geom_bond_atom_site_label_2
_geom_bond_distance
_geom_bond_site_symmetry_2
_ccdc_geom_bond_type
Er1     V2    10.0   .     S
Er1     Er3    10.0   .     S
Er1     Er24    10.0   .     S
Er1     Er5    10.0   .     S
V2     V6    10.0   .     S
V2     V21    10.0   .     S
V2     V85    10.001   1_545     S
Er3     V4    10.0   .     S
Er3     Er7    10.0   .     S
Er3     Er22    10.0   .     S
V4     V8    10.0   .     S
V4     V23    10.0   .     S
V4     V25    10.001   .     S
Er5     V6    10.0   .     S
Er5     Er7    10.0   .     S
Er5     Er12    10.0   .     S
V6     V9    10.0   .     S
V6     V93    10.001   1_545     S
Er7     V8    10.0   .     S
Er7     Er10    10.0   .     S
V8     V11    10.0   .     S
V8     V145    10.001   .     S
V9     Er12    10.0   .     S
V9     V14    10.0   .     S
V9     V34    10.001   1_655     S
Er10     V11    10.0   .     S
Er10     Er12    10.0   .     S
Er10     Er15    10.0   .     S
V11     V16    10.0   .     S
V11     V156    10.001   .     S
Er12     Er13    10.0   .     S
Er13     V14    10.0   .     S
Er13     Er15    10.0   .     S
Er13     Er18    10.0   .     S
V14     V17    10.0   .     S
V14     V39    10.001   1_655     S
Er15     V16    10.0   .     S
Er15     Er19    10.0   .     S
V16     V20    10.0   .     S
V16     V80    10.001   .     S
V17     Er18    10.0   .     S
V17     V21    10.0   .     S
V17     V167    10.001   1_556     S
Er18     Er19    10.0   .     S
Er18     Er24    10.0   .     S
Er19     V20    10.0   .     S
Er19     Er22    10.0   .     S
V20     V23    10.0   .     S
V20     V76    10.001   .     S
V21     Er24    10.0   .     S
V21     V162    10.001   1_556     S
Er22     V23    10.0   .     S
Er22     Er24    10.0   .     S
V23     V44    10.001   .     S
V25     Er28    10.0   .     S
V25     V29    10.0   .     S
V25     V44    10.0   .     S
Er26     V27    10.0   .     S
Er26     Er28    10.0   .     S
Er26     Er42    10.0   .     S
Er26     Er32    10.0   .     S
V27     V30    10.0   .     S
V27     V41    10.0   .     S
V27     V62    10.001   1_545     S
Er28     Er31    10.0   .     S
Er28     Er43    10.0   .     S
V29     Er31    10.0   .     S
V29     V33    10.0   .     S
V29     V169    10.001   .     S
V30     Er32    10.0   .     S
V30     V34    10.0   .     S
V30     V57    10.001   1_545     S
Er31     Er32    10.0   .     S
Er31     Er35    10.0   .     S
Er32     Er36    10.0   .     S
V33     Er35    10.0   .     S
V33     V37    10.0   .     S
V33     V189    10.001   .     S
V34     Er36    10.0   .     S
V34     V39    10.0   .     S
V34     V9    10.001   1_455     S
Er35     Er36    10.0   .     S
Er35     Er40    10.0   .     S
Er36     Er38    10.0   .     S
V37     Er40    10.0   .     S
V37     V46    10.0   .     S
V37     V52    10.001   .     S
Er38     V39    10.0   .     S
Er38     Er40    10.0   .     S
Er38     Er48    10.0   .     S
V39     V47    10.0   .     S
V39     V14    10.001   1_455     S
Er40     Er45    10.0   .     S
V41     Er42    10.0   .     S
V41     V47    10.0   .     S
V41     V179    10.001   1_556     S
Er42     Er43    10.0   .     S
Er42     Er48    10.0   .     S
Er43     V44    10.0   .     S
Er43     Er45    10.0   .     S
V44     V46    10.0   .     S
Er45     V46    10.0   .     S
Er45     Er48    10.0   .     S
V46     V71    10.001   .     S
V47     Er48    10.0   .     S
V47     V184    10.001   1_556     S
Er49     V50    10.0   .     S
Er49     Er51    10.0   .     S
Er49     Er72    10.0   .     S
Er49     Er53    10.0   .     S
V50     V54    10.0   .     S
V50     V69    10.0   .     S
V50     V77    10.001   1_455     S
Er51     V52    10.0   .     S
Er51     Er55    10.0   .     S
Er51     Er70    10.0   .     S
V52     V56    10.0   .     S
V52     V71    10.0   .     S
Er53     V54    10.0   .     S
Er53     Er55    10.0   .     S
Er53     Er60    10.0   .     S
V54     V57    10.0   .     S
V54     V89    10.001   1_455     S
Er55     V56    10.0   .     S
Er55     Er58    10.0   .     S
V56     V59    10.0   .     S
V56     V97    10.001   .     S
V57     V30    10.001   1_565     S
V57     Er60    10.0   .     S
V57     V62    10.0   .     S
Er58     V59    10.0   .     S
Er58     Er60    10.0   .     S
Er58     Er63    10.0   .     S
V59     V64    10.0   .     S
V59     V108    10.001   .     S
Er60     Er61    10.0   .     S
Er61     V62    10.0   .     S
Er61     Er63    10.0   .     S
Er61     Er65    10.0   .     S
V62     V27    10.001   1_565     S
V62     V66    10.0   .     S
Er63     V64    10.0   .     S
Er63     Er67    10.0   .     S
V64     V68    10.0   .     S
V64     V88    10.001   .     S
Er65     V66    10.0   .     S
Er65     Er67    10.0   .     S
Er65     Er72    10.0   .     S
V66     V69    10.0   .     S
V66     V114    10.001   1_556     S
Er67     V68    10.0   .     S
Er67     Er70    10.0   .     S
V68     V71    10.0   .     S
V68     V84    10.001   .     S
V69     Er72    10.0   .     S
V69     V118    10.001   1_556     S
Er70     V71    10.0   .     S
Er70     Er72    10.0   .     S
V73     Er74    10.0   .     S
V73     V81    10.0   .     S
V73     V77    10.0   .     S
V73     V138    10.001   1_556     S
Er74     Er75    10.0   .     S
Er74     Er78    10.0   .     S
Er74     Er82    10.0   .     S
Er75     V76    10.0   .     S
Er75     Er79    10.0   .     S
Er75     Er83    10.0   .     S
V76     V84    10.0   .     S
V76     V80    10.0   .     S
V77     V50    10.001   1_655     S
V77     Er78    10.0   .     S
V77     V89    10.0   .     S
Er78     Er79    10.0   .     S
Er78     Er90    10.0   .     S
Er79     V80    10.0   .     S
Er79     Er91    10.0   .     S
V80     V92    10.0   .     S
V81     Er82    10.0   .     S
V81     V85    10.0   .     S
V81     V134    10.001   1_556     S
Er82     Er83    10.0   .     S
Er82     Er86    10.0   .     S
Er83     V84    10.0   .     S
Er83     Er87    10.0   .     S
V84     V88    10.0   .     S
V85     V2    10.001   1_565     S
V85     Er86    10.0   .     S
V85     V93    10.0   .     S
Er86     Er87    10.0   .     S
Er86     Er94    10.0   .     S
Er87     V88    10.0   .     S
Er87     Er95    10.0   .     S
V88     V96    10.0   .     S
V89     V54    10.001   1_655     S
V89     Er90    10.0   .     S
V89     V93    10.0   .     S
Er90     Er91    10.0   .     S
Er90     Er94    10.0   .     S
Er91     V92    10.0   .     S
Er91     Er95    10.0   .     S
V92     V96    10.0   .     S
V92     V128    10.001   .     S
V93     V6    10.001   1_565     S
V93     Er94    10.0   .     S
Er94     Er95    10.0   .     S
Er95     V96    10.0   .     S
V96     V132    10.001   .     S
V97     Er100    10.0   .     S
V97     V101    10.0   .     S
V97     V108    10.0   .     S
Er98     V99    10.0   .     S
Er98     Er100    10.0   .     S
Er98     Er106    10.0   .     S
Er98     Er104    10.0   .     S
V99     V102    10.0   .     S
V99     V105    10.0   .     S
V99     V126    10.001   1_455     S
Er100     Er103    10.0   .     S
Er100     Er107    10.0   .     S
V101     Er103    10.0   .     S
V101     V117    10.0   .     S
V101     V185    10.001   .     S
V102     Er104    10.0   .     S
V102     V118    10.0   .     S
V102     V121    10.001   1_455     S
Er103     Er104    10.0   .     S
Er103     Er119    10.0   .     S
Er104     Er120    10.0   .     S
V105     Er106    10.0   .     S
V105     V109    10.0   .     S
V105     V171    10.001   1_565     S
Er106     Er107    10.0   .     S
Er106     Er110    10.0   .     S
Er107     V108    10.0   .     S
Er107     Er111    10.0   .     S
V108     V112    10.0   .     S
V109     Er110    10.0   .     S
V109     V114    10.0   .     S
V109     V175    10.001   1_565     S
Er110     Er111    10.0   .     S
Er110     Er113    10.0   .     S
Er111     V112    10.0   .     S
Er111     Er116    10.0   .     S
V112     V115    10.0   .     S
V112     V144    10.001   .     S
Er113     V114    10.0   .     S
Er113     Er116    10.0   .     S
Er113     Er120    10.0   .     S
V114     V118    10.0   .     S
V114     V66    10.001   1_554     S
V115     Er116    10.0   .     S
V115     V117    10.0   .     S
V115     V136    10.001   .     S
Er116     Er119    10.0   .     S
V117     Er119    10.0   .     S
V117     V181    10.001   .     S
V118     Er120    10.0   .     S
V118     V69    10.001   1_554     S
Er119     Er120    10.0   .     S
V121     V102    10.001   1_655     S
V121     Er124    10.0   .     S
V121     V138    10.0   .     S
V121     V126    10.0   .     S
Er122     V123    10.0   .     S
Er122     Er124    10.0   .     S
Er122     Er139    10.0   .     S
Er122     Er127    10.0   .     S
V123     V128    10.0   .     S
V123     V140    10.0   .     S
V123     V160    10.001   .     S
Er124     Er137    10.0   .     S
Er124     Er125    10.0   .     S
Er125     V126    10.0   .     S
Er125     Er127    10.0   .     S
Er125     Er130    10.0   .     S
V126     V99    10.001   1_655     S
V126     V129    10.0   .     S
Er127     V128    10.0   .     S
Er127     Er131    10.0   .     S
V128     V132    10.0   .     S
V129     Er130    10.0   .     S
V129     V141    10.0   .     S
V129     V147    10.001   1_565     S
Er130     Er131    10.0   .     S
Er130     Er143    10.0   .     S
Er131     V132    10.0   .     S
Er131     Er142    10.0   .     S
V132     V144    10.0   .     S
Er133     V134    10.0   .     S
Er133     Er135    10.0   .     S
Er133     Er143    10.0   .     S
Er133     Er137    10.0   .     S
V134     V138    10.0   .     S
V134     V141    10.0   .     S
V134     V81    10.001   1_554     S
Er135     V136    10.0   .     S
Er135     Er139    10.0   .     S
Er135     Er142    10.0   .     S
V136     V140    10.0   .     S
V136     V144    10.0   .     S
Er137     V138    10.0   .     S
Er137     Er139    10.0   .     S
V138     V73    10.001   1_554     S
Er139     V140    10.0   .     S
V140     V165    10.001   .     S
V141     Er143    10.0   .     S
V141     V150    10.001   1_565     S
Er142     V144    10.0   .     S
Er142     Er143    10.0   .     S
V145     Er148    10.0   .     S
V145     V149    10.0   .     S
V145     V156    10.0   .     S
Er146     V147    10.0   .     S
Er146     Er148    10.0   .     S
Er146     Er154    10.0   .     S
Er146     Er152    10.0   .     S
V147     V150    10.0   .     S
V147     V153    10.0   .     S
V147     V129    10.001   1_545     S
Er148     Er151    10.0   .     S
Er148     Er155    10.0   .     S
V149     Er151    10.0   .     S
V149     V161    10.0   .     S
V149     V173    10.001   .     S
V150     Er152    10.0   .     S
V150     V162    10.0   .     S
V150     V141    10.001   1_545     S
Er151     Er152    10.0   .     S
Er151     Er163    10.0   .     S
Er152     Er164    10.0   .     S
V153     Er154    10.0   .     S
V153     V157    10.0   .     S
V153     V191    10.001   1_655     S
Er154     Er155    10.0   .     S
Er154     Er158    10.0   .     S
Er155     V156    10.0   .     S
Er155     Er159    10.0   .     S
V156     V160    10.0   .     S
V157     Er158    10.0   .     S
V157     V167    10.0   .     S
V157     V187    10.001   1_655     S
Er158     Er159    10.0   .     S
Er158     Er166    10.0   .     S
Er159     V160    10.0   .     S
Er159     Er168    10.0   .     S
V160     V165    10.0   .     S
V161     Er163    10.0   .     S
V161     V165    10.0   .     S
V161     V177    10.001   .     S
V162     Er164    10.0   .     S
V162     V167    10.0   .     S
V162     V21    10.001   1_554     S
Er163     Er164    10.0   .     S
Er163     Er168    10.0   .     S
Er164     Er166    10.0   .     S
V165     Er168    10.0   .     S
Er166     V167    10.0   .     S
Er166     Er168    10.0   .     S
V167     V17    10.001   1_554     S
V169     Er172    10.0   .     S
V169     V173    10.0   .     S
V169     V189    10.0   .     S
Er170     Er172    10.0   .     S
Er170     V171    10.0   .     S
Er170     Er174    10.0   .     S
Er170     Er190    10.0   .     S
V171     V175    10.0   .     S
V171     V191    10.0   .     S
V171     V105    10.001   1_545     S
Er172     Er192    10.0   .     S
Er172     Er176    10.0   .     S
V173     Er176    10.0   .     S
V173     V177    10.0   .     S
Er174     Er176    10.0   .     S
Er174     V175    10.0   .     S
Er174     Er178    10.0   .     S
V175     V179    10.0   .     S
V175     V109    10.001   1_545     S
Er176     Er180    10.0   .     S
V177     Er180    10.0   .     S
V177     V181    10.0   .     S
Er178     Er180    10.0   .     S
Er178     V179    10.0   .     S
Er178     Er182    10.0   .     S
V179     V184    10.0   .     S
V179     V41    10.001   1_554     S
Er180     Er183    10.0   .     S
V181     Er183    10.0   .     S
V181     V185    10.0   .     S
Er182     Er183    10.0   .     S
Er182     V184    10.0   .     S
Er182     Er186    10.0   .     S
Er183     Er188    10.0   .     S
V184     V187    10.0   .     S
V184     V47    10.001   1_554     S
V185     Er188    10.0   .     S
V185     V189    10.0   .     S
Er186     Er188    10.0   .     S
Er186     V187    10.0   .     S
Er186     Er190    10.0   .     S
V187     V191    10.0   .     S
V187     V157    10.001   1_455     S
Er188     Er192    10.0   .     S
V189     Er192    10.0   .     S
Er190     V191    10.0   .     S
Er190     Er192    10.0   .     S
V191     V153    10.001   1_455     S
