data_baz
_audit_creation_date              2020-02-02
_audit_creation_method            'Pymatgen'
_symmetry_space_group_name_H-M    'P1'
_symmetry_Int_Tables_number       1
loop_
_symmetry_equiv_pos_as_xyz
  x,y,z
_cell_length_a                    50.0
_cell_length_b                    50.0
_cell_length_c                    20.0
_cell_angle_alpha                 90.0
_cell_angle_beta                 90.0
_cell_angle_gamma                 120.0
loop_
_atom_site_label
_atom_site_type_symbol
_atom_site_fract_x
_atom_site_fract_y
_atom_site_fract_z
Er1     Er     0.0   0.5   0.0
Er2     Er     0.0   0.5   0.5
V3     V     0.4   0.6   0.75
V4     V     0.2   0.6   0.75
Er5     Er     0.5   0.0   0.5
Er6     Er     0.5   0.0   0.0
V7     V     0.6   0.4   0.25
V8     V     0.6   0.2   0.25
V9     V     0.8   0.4   0.25
Er10     Er     0.5   0.5   0.5
Er11     Er     0.5   0.5   0.0
V12     V     0.4   0.8   0.75
loop_
_geom_bond_atom_site_label_1
_geom_bond_atom_site_label_2
_geom_bond_distance
_geom_bond_site_symmetry_2
_ccdc_geom_bond_type
Er1     Er2    10.0   .     S
Er1     Er2    10.0   1_554     S
Er1     V9    10.0   1_455     S
Er1     V4    10.0   1_554     S
Er2     Er1    10.0   1_556     S
Er2     V9    10.0   1_455     S
Er2     V4    10.0   .     S
V3     Er11    10.0   1_556     S
V3     Er10    10.0   .     S
V3     V12    10.0   .     S
V3     V4    10.0   .     S
V4     Er1    10.0   1_556     S
V4     V12    10.0   .     S
Er5     V12    10.0   1_545     S
Er5     Er6    10.0   1_556     S
Er5     V8    10.0   .     S
Er5     Er6    10.0   .     S
Er6     Er5    10.0   1_554     S
Er6     V12    10.0   1_544     S
Er6     V8    10.0   .     S
V7     Er11    10.0   .     S
V7     Er10    10.0   .     S
V7     V8    10.0   .     S
V7     V9    10.0   .     S
V8     V9    10.0   .     S
V9     Er1    10.0   1_655     S
V9     Er2    10.0   1_655     S
Er10     Er11    10.0   .     S
Er10     Er11    10.0   1_556     S
Er11     V3    10.0   1_554     S
Er11     Er10    10.0   1_554     S
V12     Er5    10.0   1_565     S
V12     Er6    10.0   1_566     S
