data_bbc
_audit_creation_date              2020-02-02
_audit_creation_method            'Pymatgen'
_symmetry_space_group_name_H-M    'P1'
_symmetry_Int_Tables_number       1
loop_
_symmetry_equiv_pos_as_xyz
  x,y,z
_cell_length_a                    30.401
_cell_length_b                    30.401
_cell_length_c                    23.5513
_cell_angle_alpha                 90.0
_cell_angle_beta                 90.0
_cell_angle_gamma                 90.0
loop_
_atom_site_label
_atom_site_type_symbol
_atom_site_fract_x
_atom_site_fract_y
_atom_site_fract_z
Er1     Er     0.8355   0.8355   0.2877
Er2     Er     0.8355   0.8355   0.7123
V3     V     0.6645   0.6645   0.0
Er4     Er     0.8355   0.1645   0.2877
Er5     Er     0.8355   0.1645   0.7123
V6     V     0.6645   0.3355   0.0
Er7     Er     0.1645   0.8355   0.2877
Er8     Er     0.1645   0.8355   0.7123
V9     V     0.3355   0.6645   0.0
Er10     Er     0.1645   0.1645   0.2877
Er11     Er     0.1645   0.1645   0.7123
V12     V     0.3355   0.3355   0.0
loop_
_geom_bond_atom_site_label_1
_geom_bond_atom_site_label_2
_geom_bond_distance
_geom_bond_site_symmetry_2
_ccdc_geom_bond_type
Er1     Er2    10.0   .     S
Er1     V3    10.0   .     S
Er1     Er4    10.0   1_565     S
Er1     Er7    10.0   1_655     S
Er2     V3    10.0   1_556     S
Er2     Er5    10.0   1_565     S
Er2     Er8    10.0   1_655     S
V3     Er2    10.0   1_554     S
V3     V6    10.0   .     S
V3     V9    10.0   .     S
Er4     Er5    10.0   .     S
Er4     V6    10.0   .     S
Er4     Er10    10.0   1_655     S
Er4     Er1    10.0   1_545     S
Er5     V6    10.0   1_556     S
Er5     Er11    10.0   1_655     S
Er5     Er2    10.0   1_545     S
V6     Er5    10.0   1_554     S
V6     V12    10.0   .     S
Er7     Er8    10.0   .     S
Er7     V9    10.0   .     S
Er7     Er10    10.0   1_565     S
Er7     Er1    10.0   1_455     S
Er8     V9    10.0   1_556     S
Er8     Er11    10.0   1_565     S
Er8     Er2    10.0   1_455     S
V9     Er8    10.0   1_554     S
V9     V12    10.0   .     S
Er10     Er11    10.0   .     S
Er10     V12    10.0   .     S
Er10     Er7    10.0   1_545     S
Er10     Er4    10.0   1_455     S
Er11     V12    10.0   1_556     S
Er11     Er8    10.0   1_545     S
Er11     Er5    10.0   1_455     S
V12     Er11    10.0   1_554     S
