data_bbe
_audit_creation_date              2020-02-02
_audit_creation_method            'Pymatgen'
_symmetry_space_group_name_H-M    'P1'
_symmetry_Int_Tables_number       1
loop_
_symmetry_equiv_pos_as_xyz
  x,y,z
_cell_length_a                    18.6735
_cell_length_b                    14.7089
_cell_length_c                    47.8175
_cell_angle_alpha                 90.0
_cell_angle_beta                 90.0
_cell_angle_gamma                 90.0
loop_
_atom_site_label
_atom_site_type_symbol
_atom_site_fract_x
_atom_site_fract_y
_atom_site_fract_z
V1     V     0.5   0.25   0.0708
Er2     Er     0.5   0.25   0.7874
V3     V     0.5   0.75   0.9292
Er4     Er     0.5   0.75   0.2126
V5     V     0.0   0.75   0.5709
V6     V     0.0   0.25   0.4292
Er7     Er     0.0   0.75   0.2874
Er8     Er     0.0   0.25   0.7126
loop_
_geom_bond_atom_site_label_1
_geom_bond_atom_site_label_2
_geom_bond_distance
_geom_bond_site_symmetry_2
_ccdc_geom_bond_type
V1     V3    10.0   1_544     S
V1     Er4    10.0   1_545     S
V1     Er4    10.0   .     S
V1     V3    10.0   1_554     S
Er2     V3    10.0   1_545     S
Er2     V3    10.0   .     S
Er2     Er8    10.0   1_655     S
Er2     Er8    10.0   .     S
V3     V1    10.0   1_566     S
V3     V1    10.0   1_556     S
V3     Er2    10.0   1_565     S
Er4     V1    10.0   1_565     S
Er4     Er7    10.0   1_655     S
Er4     Er7    10.0   .     S
V5     Er8    10.0   .     S
V5     Er8    10.0   1_565     S
V5     V6    10.0   .     S
V5     V6    10.0   1_565     S
V6     Er7    10.0   .     S
V6     Er7    10.0   1_545     S
V6     V5    10.0   1_545     S
Er7     Er4    10.0   1_455     S
Er7     V6    10.0   1_565     S
Er8     Er2    10.0   1_455     S
Er8     V5    10.0   1_545     S
