data_bbl
_audit_creation_date              2020-02-02
_audit_creation_method            'Pymatgen'
_symmetry_space_group_name_H-M    'P1'
_symmetry_Int_Tables_number       1
loop_
_symmetry_equiv_pos_as_xyz
  x,y,z
_cell_length_a                    20.4623
_cell_length_b                    15.2953
_cell_length_c                    55.4767
_cell_angle_alpha                 90.0
_cell_angle_beta                 90.0
_cell_angle_gamma                 90.0
loop_
_atom_site_label
_atom_site_type_symbol
_atom_site_fract_x
_atom_site_fract_y
_atom_site_fract_z
V1     V     0.5   0.75   0.8081
V2     V     0.5   0.25   0.6919
Er3     Er     0.6574   0.0   0.4166
Er4     Er     0.8426   0.0   0.5834
Er5     Er     0.8426   0.0   0.9166
Er6     Er     0.6574   0.0   0.0834
V7     V     0.0   0.25   0.3081
V8     V     0.0   0.75   0.1919
Er9     Er     0.1574   0.5   0.9166
Er10     Er     0.3426   0.5   0.0834
Er11     Er     0.3426   0.5   0.4166
Er12     Er     0.1574   0.5   0.5834
loop_
_geom_bond_atom_site_label_1
_geom_bond_atom_site_label_2
_geom_bond_distance
_geom_bond_site_symmetry_2
_ccdc_geom_bond_type
V1     V2    10.0   1_565     S
V1     V2    10.0   .     S
V1     Er5    10.0   1_565     S
V1     Er9    10.0   .     S
V2     V1    10.0   1_545     S
V2     Er4    10.0   .     S
V2     Er12    10.0   .     S
Er3     Er4    10.0   .     S
Er3     V7    10.0   1_655     S
Er3     Er11    10.0   1_545     S
Er3     Er11    10.0   .     S
Er4     Er12    10.0   1_645     S
Er4     Er12    10.0   1_655     S
Er5     Er6    10.0   1_556     S
Er5     V1    10.0   1_545     S
Er5     Er9    10.0   1_645     S
Er5     Er9    10.0   1_655     S
Er6     Er5    10.0   1_554     S
Er6     V8    10.0   1_645     S
Er6     Er10    10.0   1_545     S
Er6     Er10    10.0   .     S
V7     V8    10.0   1_545     S
V7     V8    10.0   .     S
V7     Er11    10.0   .     S
V7     Er3    10.0   1_455     S
V8     V7    10.0   1_565     S
V8     Er6    10.0   1_465     S
V8     Er10    10.0   .     S
Er9     Er10    10.0   1_556     S
Er9     Er5    10.0   1_465     S
Er9     Er5    10.0   1_455     S
Er10     Er9    10.0   1_554     S
Er10     Er6    10.0   1_565     S
Er11     Er12    10.0   .     S
Er11     Er3    10.0   1_565     S
Er12     Er4    10.0   1_465     S
Er12     Er4    10.0   1_455     S
