data_bbn
_audit_creation_date              2020-02-02
_audit_creation_method            'Pymatgen'
_symmetry_space_group_name_H-M    'P1'
_symmetry_Int_Tables_number       1
loop_
_symmetry_equiv_pos_as_xyz
  x,y,z
_cell_length_a                    49.1163
_cell_length_b                    49.1163
_cell_length_c                    27.4143
_cell_angle_alpha                 90.0
_cell_angle_beta                 90.0
_cell_angle_gamma                 90.0
loop_
_atom_site_label
_atom_site_type_symbol
_atom_site_fract_x
_atom_site_fract_y
_atom_site_fract_z
Er1     Er     0.2542   0.6018   0.0
Er2     Er     0.3982   0.7458   0.0
Er3     Er     0.2458   0.8982   0.5
Er4     Er     0.1018   0.7542   0.5
V5     V     0.25   0.75   0.25
V6     V     0.25   0.75   0.75
Er7     Er     0.7458   0.6018   0.0
Er8     Er     0.6018   0.7458   0.0
Er9     Er     0.7542   0.8982   0.5
Er10     Er     0.8982   0.7542   0.5
V11     V     0.75   0.75   0.25
V12     V     0.75   0.75   0.75
Er13     Er     0.2458   0.1018   0.5
Er14     Er     0.1018   0.2458   0.5
Er15     Er     0.2542   0.3982   0.0
Er16     Er     0.3982   0.2542   0.0
V17     V     0.25   0.25   0.25
V18     V     0.25   0.25   0.75
Er19     Er     0.6018   0.2542   0.0
Er20     Er     0.7458   0.3982   0.0
Er21     Er     0.8982   0.2458   0.5
Er22     Er     0.7542   0.1018   0.5
V23     V     0.75   0.25   0.25
V24     V     0.75   0.25   0.75
loop_
_geom_bond_atom_site_label_1
_geom_bond_atom_site_label_2
_geom_bond_distance
_geom_bond_site_symmetry_2
_ccdc_geom_bond_type
Er1     V6    10.0   1_554     S
Er1     V5    10.0   .     S
Er1     Er2    10.0   .     S
Er1     Er15    10.0   .     S
Er2     V6    10.0   1_554     S
Er2     V5    10.0   .     S
Er2     Er8    10.0   .     S
Er3     V6    10.0   .     S
Er3     V5    10.0   .     S
Er3     Er4    10.0   .     S
Er3     Er13    10.0   1_565     S
Er4     V6    10.0   .     S
Er4     V5    10.0   .     S
Er4     Er10    10.0   1_455     S
V6     Er1    10.0   1_556     S
V6     Er2    10.0   1_556     S
Er7     V12    10.0   1_554     S
Er7     V11    10.0   .     S
Er7     Er8    10.0   .     S
Er7     Er20    10.0   .     S
Er8     V12    10.0   1_554     S
Er8     V11    10.0   .     S
Er9     V11    10.0   .     S
Er9     V12    10.0   .     S
Er9     Er10    10.0   .     S
Er9     Er22    10.0   1_565     S
Er10     Er4    10.0   1_655     S
Er10     V11    10.0   .     S
Er10     V12    10.0   .     S
V12     Er8    10.0   1_556     S
V12     Er7    10.0   1_556     S
Er13     V17    10.0   .     S
Er13     V18    10.0   .     S
Er13     Er14    10.0   .     S
Er13     Er3    10.0   1_545     S
Er14     V17    10.0   .     S
Er14     V18    10.0   .     S
Er14     Er21    10.0   1_455     S
Er15     V18    10.0   1_554     S
Er15     V17    10.0   .     S
Er15     Er16    10.0   .     S
Er16     V18    10.0   1_554     S
Er16     V17    10.0   .     S
Er16     Er19    10.0   .     S
V18     Er16    10.0   1_556     S
V18     Er15    10.0   1_556     S
Er19     V23    10.0   .     S
Er19     V24    10.0   1_554     S
Er19     Er20    10.0   .     S
Er20     V23    10.0   .     S
Er20     V24    10.0   1_554     S
Er21     Er14    10.0   1_655     S
Er21     V23    10.0   .     S
Er21     V24    10.0   .     S
Er21     Er22    10.0   .     S
Er22     V23    10.0   .     S
Er22     V24    10.0   .     S
Er22     Er9    10.0   1_545     S
V24     Er20    10.0   1_556     S
V24     Er19    10.0   1_556     S
