data_bbo
_audit_creation_date              2020-02-02
_audit_creation_method            'Pymatgen'
_symmetry_space_group_name_H-M    'P1'
_symmetry_Int_Tables_number       1
loop_
_symmetry_equiv_pos_as_xyz
  x,y,z
_cell_length_a                    52.4736
_cell_length_b                    52.4736
_cell_length_c                    42.9763
_cell_angle_alpha                 90.0
_cell_angle_beta                 90.0
_cell_angle_gamma                 90.0
loop_
_atom_site_label
_atom_site_type_symbol
_atom_site_fract_x
_atom_site_fract_y
_atom_site_fract_z
Er1     Er     0.9047   0.23   0.6163
Er2     Er     0.77   0.0953   0.6163
Er3     Er     0.9047   0.23   0.3837
Er4     Er     0.77   0.0953   0.3837
Er5     Er     0.73   0.4047   0.1163
Er6     Er     0.5953   0.27   0.1163
Er7     Er     0.73   0.4047   0.8837
Er8     Er     0.5953   0.27   0.8837
V9     V     0.75   0.25   0.75
V10     V     0.75   0.25   0.25
Er11     Er     0.77   0.9047   0.6163
Er12     Er     0.9047   0.77   0.6163
Er13     Er     0.77   0.9047   0.3837
Er14     Er     0.9047   0.77   0.3837
Er15     Er     0.5953   0.73   0.1163
Er16     Er     0.73   0.5953   0.1163
Er17     Er     0.73   0.5953   0.8837
Er18     Er     0.5953   0.73   0.8837
V19     V     0.75   0.75   0.75
V20     V     0.75   0.75   0.25
Er21     Er     0.23   0.9047   0.6163
Er22     Er     0.0953   0.77   0.6163
Er23     Er     0.23   0.9047   0.3837
Er24     Er     0.0953   0.77   0.3837
Er25     Er     0.27   0.5953   0.1163
Er26     Er     0.4047   0.73   0.1163
Er27     Er     0.4047   0.73   0.8837
Er28     Er     0.27   0.5953   0.8837
V29     V     0.25   0.75   0.75
V30     V     0.25   0.75   0.25
Er31     Er     0.23   0.0953   0.6163
Er32     Er     0.0953   0.23   0.6163
Er33     Er     0.23   0.0953   0.3837
Er34     Er     0.0953   0.23   0.3837
Er35     Er     0.4047   0.27   0.1163
Er36     Er     0.27   0.4047   0.1163
Er37     Er     0.27   0.4047   0.8837
Er38     Er     0.4047   0.27   0.8837
V39     V     0.25   0.25   0.75
V40     V     0.25   0.25   0.25
loop_
_geom_bond_atom_site_label_1
_geom_bond_atom_site_label_2
_geom_bond_distance
_geom_bond_site_symmetry_2
_ccdc_geom_bond_type
Er1     V9    10.0   .     S
Er1     Er2    10.0   .     S
Er1     Er3    10.0   .     S
Er1     Er32    10.0   1_655     S
Er2     V9    10.0   .     S
Er2     Er4    10.0   .     S
Er2     Er11    10.0   1_545     S
Er3     V10    10.0   .     S
Er3     Er4    10.0   .     S
Er3     Er34    10.0   1_655     S
Er4     V10    10.0   .     S
Er4     Er13    10.0   1_545     S
Er5     V10    10.0   .     S
Er5     Er6    10.0   .     S
Er5     Er7    10.0   1_554     S
Er5     Er16    10.0   .     S
Er6     V10    10.0   .     S
Er6     Er8    10.0   1_554     S
Er6     Er35    10.0   .     S
Er7     V9    10.0   .     S
Er7     Er8    10.0   .     S
Er7     Er5    10.0   1_556     S
Er7     Er17    10.0   .     S
Er8     V9    10.0   .     S
Er8     Er6    10.0   1_556     S
Er8     Er38    10.0   .     S
Er11     V19    10.0   .     S
Er11     Er12    10.0   .     S
Er11     Er13    10.0   .     S
Er11     Er2    10.0   1_565     S
Er12     V19    10.0   .     S
Er12     Er14    10.0   .     S
Er12     Er22    10.0   1_655     S
Er13     V20    10.0   .     S
Er13     Er14    10.0   .     S
Er13     Er4    10.0   1_565     S
Er14     V20    10.0   .     S
Er14     Er24    10.0   1_655     S
Er15     V20    10.0   .     S
Er15     Er16    10.0   .     S
Er15     Er18    10.0   1_554     S
Er15     Er26    10.0   .     S
Er16     V20    10.0   .     S
Er16     Er17    10.0   1_554     S
Er17     V19    10.0   .     S
Er17     Er18    10.0   .     S
Er17     Er16    10.0   1_556     S
Er18     V19    10.0   .     S
Er18     Er15    10.0   1_556     S
Er18     Er27    10.0   .     S
Er21     V29    10.0   .     S
Er21     Er22    10.0   .     S
Er21     Er23    10.0   .     S
Er21     Er31    10.0   1_565     S
Er22     V29    10.0   .     S
Er22     Er24    10.0   .     S
Er22     Er12    10.0   1_455     S
Er23     V30    10.0   .     S
Er23     Er24    10.0   .     S
Er23     Er33    10.0   1_565     S
Er24     V30    10.0   .     S
Er24     Er14    10.0   1_455     S
Er25     V30    10.0   .     S
Er25     Er26    10.0   .     S
Er25     Er28    10.0   1_554     S
Er25     Er36    10.0   .     S
Er26     V30    10.0   .     S
Er26     Er27    10.0   1_554     S
Er27     V29    10.0   .     S
Er27     Er28    10.0   .     S
Er27     Er26    10.0   1_556     S
Er28     V29    10.0   .     S
Er28     Er25    10.0   1_556     S
Er28     Er37    10.0   .     S
Er31     V39    10.0   .     S
Er31     Er32    10.0   .     S
Er31     Er33    10.0   .     S
Er31     Er21    10.0   1_545     S
Er32     V39    10.0   .     S
Er32     Er34    10.0   .     S
Er32     Er1    10.0   1_455     S
Er33     V40    10.0   .     S
Er33     Er34    10.0   .     S
Er33     Er23    10.0   1_545     S
Er34     V40    10.0   .     S
Er34     Er3    10.0   1_455     S
Er35     V40    10.0   .     S
Er35     Er36    10.0   .     S
Er35     Er38    10.0   1_554     S
Er36     V40    10.0   .     S
Er36     Er37    10.0   1_554     S
Er37     V39    10.0   .     S
Er37     Er38    10.0   .     S
Er37     Er36    10.0   1_556     S
Er38     V39    10.0   .     S
Er38     Er35    10.0   1_556     S
