data_bbq
_audit_creation_date              2020-02-02
_audit_creation_method            'Pymatgen'
_symmetry_space_group_name_H-M    'P1'
_symmetry_Int_Tables_number       1
loop_
_symmetry_equiv_pos_as_xyz
  x,y,z
_cell_length_a                    53.8913
_cell_length_b                    53.8913
_cell_length_c                    40.9508
_cell_angle_alpha                 90.0
_cell_angle_beta                 90.0
_cell_angle_gamma                 120.0
loop_
_atom_site_label
_atom_site_type_symbol
_atom_site_fract_x
_atom_site_fract_y
_atom_site_fract_z
Er1     Er     0.6667   0.5189   0.1279
Er2     Er     0.4811   0.3333   0.1279
Er3     Er     0.6667   0.5189   0.3721
Er4     Er     0.4811   0.3333   0.3721
Er5     Er     0.5189   0.6667   0.8721
Er6     Er     0.3333   0.4811   0.8721
Er7     Er     0.5189   0.6667   0.6279
Er8     Er     0.3333   0.4811   0.6279
V9     V     0.5   0.5   0.0
V10     V     0.5   0.5   0.5
Er11     Er     0.1478   0.6667   0.6279
Er12     Er     0.1478   0.4811   0.6279
Er13     Er     0.5189   0.8522   0.6279
Er14     Er     0.3333   0.8522   0.6279
Er15     Er     0.5189   0.8522   0.8721
Er16     Er     0.3333   0.8522   0.8721
Er17     Er     0.1478   0.6667   0.8721
Er18     Er     0.1478   0.4811   0.8721
V19     V     0.5   0.0   0.5
V20     V     0.5   0.0   0.0
Er21     Er     0.8522   0.5189   0.3721
Er22     Er     0.8522   0.3333   0.3721
Er23     Er     0.6667   0.1478   0.3721
Er24     Er     0.4811   0.1478   0.3721
Er25     Er     0.8522   0.5189   0.1279
Er26     Er     0.8522   0.3333   0.1279
Er27     Er     0.6667   0.1478   0.1279
Er28     Er     0.4811   0.1478   0.1279
V29     V     0.0   0.5   0.0
V30     V     0.0   0.5   0.5
loop_
_geom_bond_atom_site_label_1
_geom_bond_atom_site_label_2
_geom_bond_distance
_geom_bond_site_symmetry_2
_ccdc_geom_bond_type
Er1     V9    10.0   .     S
Er1     Er2    10.0   .     S
Er1     Er25    10.001   .     S
Er1     Er3    10.0   .     S
Er2     V9    10.0   .     S
Er2     Er4    10.0   .     S
Er2     Er28    10.001   .     S
Er3     V10    10.0   .     S
Er3     Er4    10.0   .     S
Er3     Er21    10.001   .     S
Er4     V10    10.0   .     S
Er4     Er24    10.001   .     S
Er5     V9    10.0   1_556     S
Er5     Er6    10.0   .     S
Er5     Er15    10.001   .     S
Er5     Er7    10.0   .     S
Er6     V9    10.0   1_556     S
Er6     Er8    10.0   .     S
Er6     Er18    10.001   .     S
Er7     V10    10.0   .     S
Er7     Er8    10.0   .     S
Er7     Er13    10.001   .     S
Er8     V10    10.0   .     S
Er8     Er12    10.001   .     S
V9     Er5    10.0   1_554     S
V9     Er6    10.0   1_554     S
Er11     Er14    10.001   .     S
Er11     V30    10.0   .     S
Er11     Er12    10.0   .     S
Er11     Er17    10.0   .     S
Er12     V30    10.0   .     S
Er12     Er18    10.0   .     S
Er13     V19    10.0   1_565     S
Er13     Er14    10.0   .     S
Er13     Er15    10.0   .     S
Er14     V19    10.0   1_565     S
Er14     Er16    10.0   .     S
Er15     V20    10.0   1_566     S
Er15     Er16    10.0   .     S
Er16     V20    10.0   1_566     S
Er16     Er17    10.001   .     S
Er17     V29    10.0   1_556     S
Er17     Er18    10.0   .     S
Er18     V29    10.0   1_556     S
V19     Er13    10.0   1_545     S
V19     Er14    10.0   1_545     S
V19     Er23    10.0   .     S
V19     Er24    10.0   .     S
V20     Er15    10.0   1_544     S
V20     Er16    10.0   1_544     S
V20     Er27    10.0   .     S
V20     Er28    10.0   .     S
Er21     V30    10.0   1_655     S
Er21     Er22    10.0   .     S
Er21     Er25    10.0   .     S
Er22     V30    10.0   1_655     S
Er22     Er23    10.001   .     S
Er22     Er26    10.0   .     S
Er23     Er24    10.0   .     S
Er23     Er27    10.0   .     S
Er24     Er28    10.0   .     S
Er25     V29    10.0   1_655     S
Er25     Er26    10.0   .     S
Er26     V29    10.0   1_655     S
Er26     Er27    10.001   .     S
Er27     Er28    10.0   .     S
V29     Er17    10.0   1_554     S
V29     Er18    10.0   1_554     S
V29     Er25    10.0   1_455     S
V29     Er26    10.0   1_455     S
V30     Er21    10.0   1_455     S
V30     Er22    10.0   1_455     S
