data_bbr
_audit_creation_date              2020-02-02
_audit_creation_method            'Pymatgen'
_symmetry_space_group_name_H-M    'P1'
_symmetry_Int_Tables_number       1
loop_
_symmetry_equiv_pos_as_xyz
  x,y,z
_cell_length_a                    27.2329
_cell_length_b                    27.2329
_cell_length_c                    19.2191
_cell_angle_alpha                 90.0
_cell_angle_beta                 90.0
_cell_angle_gamma                 90.0
loop_
_atom_site_label
_atom_site_type_symbol
_atom_site_fract_x
_atom_site_fract_y
_atom_site_fract_z
V1     V     0.5508   0.0   0.25
Er2     Er     0.661   0.661   0.375
V3     V     0.0   0.5508   0.5
Er4     Er     0.339   0.661   0.625
V5     V     0.0   0.4492   0.0
Er6     Er     0.661   0.339   0.125
V7     V     0.4492   0.0   0.75
Er8     Er     0.339   0.339   0.875
loop_
_geom_bond_atom_site_label_1
_geom_bond_atom_site_label_2
_geom_bond_distance
_geom_bond_site_symmetry_2
_ccdc_geom_bond_type
V1     Er6    10.0   .     S
V1     Er2    10.0   1_545     S
V1     V7    10.0   .     S
V1     V7    10.0   1_554     S
Er2     V1    10.0   1_565     S
Er2     V3    10.0   1_655     S
Er2     Er4    10.0   .     S
Er2     Er6    10.0   .     S
V3     Er4    10.0   .     S
V3     Er2    10.0   1_455     S
V3     V5    10.0   .     S
V3     V5    10.0   1_556     S
Er4     V7    10.0   1_565     S
Er4     Er8    10.0   .     S
V5     Er8    10.0   1_554     S
V5     Er6    10.0   1_455     S
V5     V3    10.0   1_554     S
Er6     V5    10.0   1_655     S
Er6     Er8    10.0   1_554     S
V7     Er8    10.0   .     S
V7     Er4    10.0   1_545     S
V7     V1    10.0   1_556     S
Er8     V5    10.0   1_556     S
Er8     Er6    10.0   1_556     S
