data_bbw
_audit_creation_date              2020-02-02
_audit_creation_method            'Pymatgen'
_symmetry_space_group_name_H-M    'P1'
_symmetry_Int_Tables_number       1
loop_
_symmetry_equiv_pos_as_xyz
  x,y,z
_cell_length_a                    48.9221
_cell_length_b                    48.9221
_cell_length_c                    17.1425
_cell_angle_alpha                 90.0
_cell_angle_beta                 90.0
_cell_angle_gamma                 120.0
loop_
_atom_site_label
_atom_site_type_symbol
_atom_site_fract_x
_atom_site_fract_y
_atom_site_fract_z
V1     V     0.5304   0.4696   0.75
V2     V     0.4696   0.5304   0.25
Er3     Er     0.7348   0.2652   0.75
Er4     Er     0.7348   0.4696   0.75
Er5     Er     0.5304   0.2652   0.75
V6     V     0.0608   0.5304   0.25
V7     V     0.9392   0.4696   0.75
Er8     Er     0.2652   0.7348   0.25
Er9     Er     0.4696   0.7348   0.25
Er10     Er     0.2652   0.5304   0.25
V11     V     0.5304   0.0608   0.75
V12     V     0.4696   0.9392   0.25
loop_
_geom_bond_atom_site_label_1
_geom_bond_atom_site_label_2
_geom_bond_distance
_geom_bond_site_symmetry_2
_ccdc_geom_bond_type
V1     Er5    10.0   .     S
V1     Er4    10.0   .     S
V1     V2    10.0   1_556     S
V1     V2    10.0   .     S
V2     Er9    10.0   .     S
V2     Er10    10.0   .     S
V2     V1    10.0   1_554     S
Er3     Er4    10.0   .     S
Er3     Er5    10.0   .     S
Er3     V7    10.0   .     S
Er3     V11    10.0   .     S
Er4     Er5    10.0   .     S
Er4     V7    10.0   .     S
Er5     V11    10.0   .     S
V6     Er10    10.0   .     S
V6     Er8    10.0   .     S
V6     V7    10.0   1_454     S
V6     V7    10.0   1_455     S
V7     V6    10.0   1_656     S
V7     V6    10.0   1_655     S
Er8     Er9    10.0   .     S
Er8     Er10    10.0   .     S
Er8     V12    10.0   .     S
Er9     Er10    10.0   .     S
Er9     V12    10.0   .     S
V11     V12    10.0   1_546     S
V11     V12    10.0   1_545     S
V12     V11    10.0   1_564     S
V12     V11    10.0   1_565     S
