data_bbz
_audit_creation_date              2020-02-02
_audit_creation_method            'Pymatgen'
_symmetry_space_group_name_H-M    'P1'
_symmetry_Int_Tables_number       1
loop_
_symmetry_equiv_pos_as_xyz
  x,y,z
_cell_length_a                    68.6518
_cell_length_b                    68.6518
_cell_length_c                    15.7584
_cell_angle_alpha                 90.0
_cell_angle_beta                 90.0
_cell_angle_gamma                 120.0
loop_
_atom_site_label
_atom_site_type_symbol
_atom_site_fract_x
_atom_site_fract_y
_atom_site_fract_z
V1     V     0.5308   0.9159   0.0
V2     V     0.3851   0.9159   0.0
V3     V     0.4692   0.0841   0.0
V4     V     0.6149   0.0841   0.0
V5     V     0.9159   0.3851   0.0
V6     V     0.9159   0.5308   0.0
V7     V     0.0841   0.6149   0.0
V8     V     0.0841   0.4692   0.0
Er9     Er     0.479   0.6667   0.5
Er10     Er     0.1877   0.521   0.5
Er11     Er     0.3333   0.521   0.5
Er12     Er     0.1877   0.6667   0.5
Er13     Er     0.479   0.8123   0.5
Er14     Er     0.3333   0.8123   0.5
Er15     Er     0.6667   0.1877   0.5
Er16     Er     0.521   0.1877   0.5
Er17     Er     0.6667   0.479   0.5
Er18     Er     0.521   0.3333   0.5
Er19     Er     0.8123   0.479   0.5
Er20     Er     0.8123   0.3333   0.5
V21     V     0.3851   0.4692   0.0
V22     V     0.5308   0.6149   0.0
V23     V     0.6149   0.5308   0.0
V24     V     0.4692   0.3851   0.0
loop_
_geom_bond_atom_site_label_1
_geom_bond_atom_site_label_2
_geom_bond_distance
_geom_bond_site_symmetry_2
_ccdc_geom_bond_type
V1     V2    10.0   .     S
V1     V4    10.0   1_565     S
V1     Er13    10.0   .     S
V1     Er13    10.0   1_554     S
V2     V3    10.0   1_565     S
V2     Er14    10.0   .     S
V2     Er14    10.0   1_554     S
V3     V4    10.0   .     S
V3     V2    10.0   1_545     S
V3     Er16    10.0   1_554     S
V3     Er16    10.0   .     S
V4     V1    10.0   1_545     S
V4     Er15    10.0   .     S
V4     Er15    10.0   1_554     S
V5     V6    10.0   .     S
V5     V8    10.0   1_655     S
V5     Er20    10.0   .     S
V5     Er20    10.0   1_554     S
V6     V7    10.0   1_655     S
V6     Er19    10.0   .     S
V6     Er19    10.0   1_554     S
V7     V8    10.0   .     S
V7     V6    10.0   1_455     S
V7     Er12    10.0   1_554     S
V7     Er12    10.0   .     S
V8     V5    10.0   1_455     S
V8     Er10    10.0   .     S
V8     Er10    10.0   1_554     S
Er9     Er11    10.001   .     S
Er9     V22    10.0   .     S
Er9     V22    10.0   1_556     S
Er9     Er13    10.0   .     S
Er10     V8    10.0   1_556     S
Er10     Er11    10.0   .     S
Er10     Er12    10.001   .     S
Er11     V21    10.0   1_556     S
Er11     V21    10.0   .     S
Er12     V7    10.0   1_556     S
Er12     Er14    10.0   .     S
Er13     V1    10.0   1_556     S
Er13     Er14    10.001   .     S
Er14     V2    10.0   1_556     S
Er15     V4    10.0   1_556     S
Er15     Er16    10.001   .     S
Er15     Er20    10.0   .     S
Er16     V3    10.0   1_556     S
Er16     Er18    10.0   .     S
Er17     V23    10.0   .     S
Er17     V23    10.0   1_556     S
Er17     Er18    10.001   .     S
Er17     Er19    10.0   .     S
Er18     V24    10.0   1_556     S
Er18     V24    10.0   .     S
Er19     V6    10.0   1_556     S
Er19     Er20    10.001   .     S
Er20     V5    10.0   1_556     S
V21     Er11    10.0   1_554     S
V21     V22    10.0   .     S
V21     V24    10.0   .     S
V22     Er9    10.0   1_554     S
V22     V23    10.0   .     S
V23     Er17    10.0   1_554     S
V23     V24    10.0   .     S
V24     Er18    10.0   1_554     S
