data_bcd
_audit_creation_date              2020-02-02
_audit_creation_method            'Pymatgen'
_symmetry_space_group_name_H-M    'P1'
_symmetry_Int_Tables_number       1
loop_
_symmetry_equiv_pos_as_xyz
  x,y,z
_cell_length_a                    48.2487
_cell_length_b                    48.2487
_cell_length_c                    24.1776
_cell_angle_alpha                 90.0
_cell_angle_beta                 90.0
_cell_angle_gamma                 90.0
loop_
_atom_site_label
_atom_site_type_symbol
_atom_site_fract_x
_atom_site_fract_y
_atom_site_fract_z
V1     V     0.6036   0.8964   0.0
V2     V     0.3964   0.8964   0.0
V3     V     0.3964   0.1036   0.0
V4     V     0.6036   0.1036   0.0
V5     V     0.8964   0.3964   0.0
V6     V     0.8964   0.6036   0.0
V7     V     0.1036   0.6036   0.0
V8     V     0.1036   0.3964   0.0
Er9     Er     0.2502   0.8964   0.7068
Er10     Er     0.1036   0.7498   0.7068
Er11     Er     0.2502   0.8964   0.2932
Er12     Er     0.1036   0.7498   0.2932
Er13     Er     0.1036   0.2502   0.7068
Er14     Er     0.2502   0.1036   0.7068
Er15     Er     0.1036   0.2502   0.2932
Er16     Er     0.2502   0.1036   0.2932
Er17     Er     0.8964   0.7498   0.7068
Er18     Er     0.7498   0.8964   0.7068
Er19     Er     0.8964   0.7498   0.2932
Er20     Er     0.7498   0.8964   0.2932
Er21     Er     0.8964   0.2502   0.7068
Er22     Er     0.7498   0.1036   0.7068
Er23     Er     0.8964   0.2502   0.2932
Er24     Er     0.7498   0.1036   0.2932
loop_
_geom_bond_atom_site_label_1
_geom_bond_atom_site_label_2
_geom_bond_distance
_geom_bond_site_symmetry_2
_ccdc_geom_bond_type
V1     Er18    10.0   1_554     S
V1     Er20    10.0   .     S
V1     V2    10.0   .     S
V1     V4    10.0   1_565     S
V2     Er11    10.0   .     S
V2     Er9    10.0   1_554     S
V2     V3    10.0   1_565     S
V3     Er14    10.0   1_554     S
V3     Er16    10.0   .     S
V3     V4    10.0   .     S
V3     V2    10.0   1_545     S
V4     Er24    10.0   .     S
V4     Er22    10.0   1_554     S
V4     V1    10.0   1_545     S
V5     Er21    10.0   1_554     S
V5     Er23    10.0   .     S
V5     V6    10.0   .     S
V5     V8    10.0   1_655     S
V6     Er19    10.0   .     S
V6     Er17    10.0   1_554     S
V6     V7    10.0   1_655     S
V7     Er10    10.0   1_554     S
V7     Er12    10.0   .     S
V7     V8    10.0   .     S
V7     V6    10.0   1_455     S
V8     Er15    10.0   .     S
V8     Er13    10.0   1_554     S
V8     V5    10.0   1_455     S
Er9     V2    10.0   1_556     S
Er9     Er10    10.0   .     S
Er9     Er11    10.0   .     S
Er9     Er14    10.0   1_565     S
Er10     V7    10.0   1_556     S
Er10     Er12    10.0   .     S
Er10     Er17    10.0   1_455     S
Er11     Er12    10.0   .     S
Er11     Er16    10.0   1_565     S
Er12     Er19    10.0   1_455     S
Er13     V8    10.0   1_556     S
Er13     Er14    10.0   .     S
Er13     Er15    10.0   .     S
Er13     Er21    10.0   1_455     S
Er14     V3    10.0   1_556     S
Er14     Er16    10.0   .     S
Er14     Er9    10.0   1_545     S
Er15     Er16    10.0   .     S
Er15     Er23    10.0   1_455     S
Er16     Er11    10.0   1_545     S
Er17     V6    10.0   1_556     S
Er17     Er10    10.0   1_655     S
Er17     Er18    10.0   .     S
Er17     Er19    10.0   .     S
Er18     V1    10.0   1_556     S
Er18     Er20    10.0   .     S
Er18     Er22    10.0   1_565     S
Er19     Er12    10.0   1_655     S
Er19     Er20    10.0   .     S
Er20     Er24    10.0   1_565     S
Er21     V5    10.0   1_556     S
Er21     Er13    10.0   1_655     S
Er21     Er22    10.0   .     S
Er21     Er23    10.0   .     S
Er22     V4    10.0   1_556     S
Er22     Er24    10.0   .     S
Er22     Er18    10.0   1_545     S
Er23     Er15    10.0   1_655     S
Er23     Er24    10.0   .     S
Er24     Er20    10.0   1_545     S
