data_bce
_audit_creation_date              2020-02-02
_audit_creation_method            'Pymatgen'
_symmetry_space_group_name_H-M    'P1'
_symmetry_Int_Tables_number       1
loop_
_symmetry_equiv_pos_as_xyz
  x,y,z
_cell_length_a                    48.1894
_cell_length_b                    48.1894
_cell_length_c                    24.2364
_cell_angle_alpha                 90.0
_cell_angle_beta                 90.0
_cell_angle_gamma                 90.0
loop_
_atom_site_label
_atom_site_type_symbol
_atom_site_fract_x
_atom_site_fract_y
_atom_site_fract_z
V1     V     0.6038   0.1038   0.2937
V2     V     0.6038   0.1038   0.7063
V3     V     0.6038   0.8962   0.2937
V4     V     0.6038   0.8962   0.7063
V5     V     0.3962   0.1038   0.2937
V6     V     0.3962   0.1038   0.7063
V7     V     0.3962   0.8962   0.2937
V8     V     0.3962   0.8962   0.7063
Er9     Er     0.2505   0.8962   0.0
Er10     Er     0.1038   0.7495   0.0
Er11     Er     0.1038   0.2505   0.0
Er12     Er     0.2505   0.1038   0.0
Er13     Er     0.8962   0.7495   0.0
Er14     Er     0.7495   0.8962   0.0
Er15     Er     0.8962   0.2505   0.0
Er16     Er     0.7495   0.1038   0.0
V17     V     0.1038   0.3962   0.2937
V18     V     0.1038   0.3962   0.7063
V19     V     0.8962   0.3962   0.2937
V20     V     0.8962   0.3962   0.7063
V21     V     0.1038   0.6038   0.2937
V22     V     0.1038   0.6038   0.7063
V23     V     0.8962   0.6038   0.2937
V24     V     0.8962   0.6038   0.7063
loop_
_geom_bond_atom_site_label_1
_geom_bond_atom_site_label_2
_geom_bond_distance
_geom_bond_site_symmetry_2
_ccdc_geom_bond_type
V1     Er16    10.0   .     S
V1     V2    10.0   .     S
V1     V3    10.0   1_545     S
V1     V5    10.0   .     S
V2     Er16    10.0   1_556     S
V2     V4    10.0   1_545     S
V2     V6    10.0   .     S
V3     Er14    10.0   .     S
V3     V4    10.0   .     S
V3     V1    10.0   1_565     S
V3     V7    10.0   .     S
V4     Er14    10.0   1_556     S
V4     V2    10.0   1_565     S
V4     V8    10.0   .     S
V5     Er12    10.0   .     S
V5     V6    10.0   .     S
V5     V7    10.0   1_545     S
V6     Er12    10.0   1_556     S
V6     V8    10.0   1_545     S
V7     Er9    10.0   .     S
V7     V8    10.0   .     S
V7     V5    10.0   1_565     S
V8     Er9    10.0   1_556     S
V8     V6    10.0   1_565     S
Er9     V8    10.0   1_554     S
Er9     Er10    10.0   .     S
Er9     Er12    10.0   1_565     S
Er10     Er13    10.0   1_455     S
Er10     V21    10.0   .     S
Er10     V22    10.0   1_554     S
Er11     Er12    10.0   .     S
Er11     Er15    10.0   1_455     S
Er11     V17    10.0   .     S
Er11     V18    10.0   1_554     S
Er12     V6    10.0   1_554     S
Er12     Er9    10.0   1_545     S
Er13     Er14    10.0   .     S
Er13     Er10    10.0   1_655     S
Er13     V23    10.0   .     S
Er13     V24    10.0   1_554     S
Er14     V4    10.0   1_554     S
Er14     Er16    10.0   1_565     S
Er15     Er16    10.0   .     S
Er15     Er11    10.0   1_655     S
Er15     V19    10.0   .     S
Er15     V20    10.0   1_554     S
Er16     V2    10.0   1_554     S
Er16     Er14    10.0   1_545     S
V17     V18    10.0   .     S
V17     V21    10.0   .     S
V17     V19    10.0   1_455     S
V18     Er11    10.0   1_556     S
V18     V22    10.0   .     S
V18     V20    10.0   1_455     S
V19     V20    10.0   .     S
V19     V17    10.0   1_655     S
V19     V23    10.0   .     S
V20     Er15    10.0   1_556     S
V20     V18    10.0   1_655     S
V20     V24    10.0   .     S
V21     V22    10.0   .     S
V21     V23    10.0   1_455     S
V22     Er10    10.0   1_556     S
V22     V24    10.0   1_455     S
V23     V24    10.0   .     S
V23     V21    10.0   1_655     S
V24     Er13    10.0   1_556     S
V24     V22    10.0   1_655     S
