data_bch
_audit_creation_date              2020-02-02
_audit_creation_method            'Pymatgen'
_symmetry_space_group_name_H-M    'P1'
_symmetry_Int_Tables_number       1
loop_
_symmetry_equiv_pos_as_xyz
  x,y,z
_cell_length_a                    39.9241
_cell_length_b                    39.9241
_cell_length_c                    39.9241
_cell_angle_alpha                 90.0
_cell_angle_beta                 90.0
_cell_angle_gamma                 90.0
loop_
_atom_site_label
_atom_site_type_symbol
_atom_site_fract_x
_atom_site_fract_y
_atom_site_fract_z
V1     V     0.7495   0.7495   0.7495
V2     V     0.2495   0.7505   0.2505
V3     V     0.7505   0.7495   0.2505
V4     V     0.2495   0.2495   0.2495
V5     V     0.7505   0.2505   0.2495
V6     V     0.7495   0.2505   0.7505
V7     V     0.2505   0.7505   0.7495
Ti8     Ti     0.0552   0.0552   0.0552
Er9     Er     0.088   0.2747   0.9397
Er10     Er     0.9397   0.088   0.2747
Er11     Er     0.2747   0.9397   0.088
Ti12     Ti     0.9448   0.5552   0.4448
Er13     Er     0.7253   0.4397   0.412
Er14     Er     0.0603   0.588   0.2253
Er15     Er     0.912   0.7747   0.5603
Ti16     Ti     0.0552   0.9448   0.4448
Er17     Er     0.088   0.7253   0.5603
Er18     Er     0.2747   0.0603   0.412
Er19     Er     0.9397   0.912   0.2253
Ti20     Ti     0.5552   0.4448   0.9448
Er21     Er     0.4397   0.412   0.7253
Er22     Er     0.588   0.2253   0.0603
Er23     Er     0.7747   0.5603   0.912
Ti24     Ti     0.9448   0.4448   0.0552
Er25     Er     0.7253   0.5603   0.088
Er26     Er     0.0603   0.412   0.2747
Er27     Er     0.912   0.2253   0.9397
Ti28     Ti     0.4448   0.0552   0.9448
Er29     Er     0.5603   0.088   0.7253
Er30     Er     0.412   0.2747   0.0603
Er31     Er     0.2253   0.9397   0.912
Ti32     Ti     0.5552   0.5552   0.5552
Er33     Er     0.588   0.7747   0.4397
Er34     Er     0.4397   0.588   0.7747
Er35     Er     0.7747   0.4397   0.588
Ti36     Ti     0.4448   0.9448   0.5552
Er37     Er     0.412   0.7253   0.4397
Er38     Er     0.2253   0.0603   0.588
Er39     Er     0.5603   0.912   0.7747
V40     V     0.2505   0.2495   0.7505
loop_
_geom_bond_atom_site_label_1
_geom_bond_atom_site_label_2
_geom_bond_distance
_geom_bond_site_symmetry_2
_ccdc_geom_bond_type
V1     Er39    10.007   .     S
V1     Er23    10.007   .     S
V1     Er15    10.007   .     S
V2     Er37    10.007   .     S
V2     Er14    10.007   .     S
V2     Er11    10.007   .     S
V3     Er33    10.007   .     S
V3     Er19    10.007   .     S
V3     Er25    10.007   .     S
V4     Er26    10.007   .     S
V4     Er18    10.007   .     S
V4     Er30    10.007   .     S
V5     Er13    10.007   .     S
V5     Er10    10.007   .     S
V5     Er22    10.007   .     S
V6     Er35    10.007   .     S
V6     Er27    10.007   .     S
V6     Er29    10.007   .     S
V7     Er34    10.007   .     S
V7     Er31    10.007   .     S
V7     Er17    10.007   .     S
Ti8     Er10    9.988   1_455     S
Ti8     Er19    10.005   1_445     S
Ti8     Er9    9.988   1_554     S
Ti8     Er27    10.005   1_454     S
Ti8     Er11    9.988   1_545     S
Ti8     Er31    10.005   1_544     S
Er9     Ti8    9.988   1_556     S
Er9     Ti24    10.005   1_456     S
Er9     V40    10.007   .     S
Er10     Ti8    9.988   1_655     S
Er10     Ti16    10.005   1_645     S
Er11     Ti8    9.988   1_565     S
Er11     Ti28    10.005   1_564     S
Ti12     Er13    9.988   .     S
Ti12     Er35    10.005   .     S
Ti12     Er14    9.988   1_655     S
Ti12     Er26    10.005   1_655     S
Ti12     Er15    9.988   .     S
Ti12     Er17    10.005   1_655     S
Er13     Ti32    10.005   .     S
Er14     Ti12    9.988   1_455     S
Er14     Ti24    10.005   1_455     S
Er15     Ti16    10.005   1_655     S
Ti16     Er18    9.988   1_565     S
Ti16     Er38    10.005   1_565     S
Ti16     Er17    9.988   .     S
Ti16     Er15    10.005   1_455     S
Ti16     Er19    9.988   1_455     S
Ti16     Er10    10.005   1_465     S
Er17     Ti12    10.005   1_455     S
Er18     Ti16    9.988   1_545     S
Er18     Ti36    10.005   1_545     S
Er19     Ti8    10.005   1_665     S
Er19     Ti16    9.988   1_655     S
Ti20     Er21    9.988   .     S
Ti20     Er34    10.005   .     S
Ti20     Er22    9.988   1_556     S
Ti20     Er30    10.005   1_556     S
Ti20     Er23    9.988   .     S
Ti20     Er25    10.005   1_556     S
Er21     Ti32    10.005   .     S
Er21     V40    10.007   .     S
Er22     Ti20    9.988   1_554     S
Er22     Ti28    10.005   1_554     S
Er23     Ti24    10.005   1_556     S
Ti24     Er26    9.988   1_655     S
Ti24     Er14    10.005   1_655     S
Ti24     Er25    9.988   .     S
Ti24     Er23    10.005   1_554     S
Ti24     Er27    9.988   1_554     S
Ti24     Er9    10.005   1_654     S
Er25     Ti20    10.005   1_554     S
Er26     Ti12    10.005   1_455     S
Er26     Ti24    9.988   1_455     S
Er27     Ti8    10.005   1_656     S
Er27     Ti24    9.988   1_556     S
Ti28     Er30    9.988   1_556     S
Ti28     Er22    10.005   1_556     S
Ti28     Er29    9.988   .     S
Ti28     Er39    10.005   1_545     S
Ti28     Er31    9.988   1_545     S
Ti28     Er11    10.005   1_546     S
Er29     Ti36    10.005   1_545     S
Er30     Ti20    10.005   1_554     S
Er30     Ti28    9.988   1_554     S
Er31     Ti8    10.005   1_566     S
Er31     Ti28    9.988   1_565     S
Ti32     Er35    9.988   .     S
Ti32     Er33    9.988   .     S
Ti32     Er37    10.005   .     S
Ti32     Er34    9.988   .     S
Er33     Ti36    10.005   .     S
Ti36     Er37    9.988   .     S
Ti36     Er38    9.988   1_565     S
Ti36     Er18    10.005   1_565     S
Ti36     Er39    9.988   .     S
Ti36     Er29    10.005   1_565     S
Er38     Ti16    10.005   1_545     S
Er38     Ti36    9.988   1_545     S
Er38     V40    10.007   .     S
Er39     Ti28    10.005   1_565     S
