data_bcha
_audit_creation_date              2020-02-02
_audit_creation_method            'Pymatgen'
_symmetry_space_group_name_H-M    'P1'
_symmetry_Int_Tables_number       1
loop_
_symmetry_equiv_pos_as_xyz
  x,y,z
_cell_length_a                    87.0651
_cell_length_b                    87.0651
_cell_length_c                    87.0651
_cell_angle_alpha                 90.0
_cell_angle_beta                 90.0
_cell_angle_gamma                 90.0
loop_
_atom_site_label
_atom_site_type_symbol
_atom_site_fract_x
_atom_site_fract_y
_atom_site_fract_z
S1     S     0.609   0.142   0.7137
Ti2     Ti     0.5231   0.0977   0.7757
Ce3     Ce     0.5324   0.0722   0.6641
S4     S     0.358   0.2863   0.109
Ti5     Ti     0.4023   0.2243   0.0231
Ce6     Ce     0.4278   0.3359   0.0324
Er7     Er     0.3762   0.0323   0.904
V8     V     0.4183   0.0179   0.0098
Er9     Er     0.404   0.1238   0.9677
V10     V     0.5098   0.0817   0.9821
Er11     Er     0.4677   0.096   0.8762
V12     V     0.4821   0.9902   0.9183
S13     S     0.2137   0.891   0.858
Ti14     Ti     0.2757   0.9769   0.9023
Ce15     Ce     0.1641   0.9676   0.9278
H16     H     0.7634   0.3005   0.7091
H17     H     0.6995   0.2091   0.7366
H18     H     0.7909   0.2366   0.8005
S19     S     0.7137   0.609   0.142
Ti20     Ti     0.7757   0.5231   0.0977
Ce21     Ce     0.6641   0.5324   0.0722
S22     S     0.109   0.358   0.2863
Ti23     Ti     0.0231   0.4023   0.2243
Ce24     Ce     0.0324   0.4278   0.3359
Er25     Er     0.904   0.3762   0.0323
V26     V     0.0098   0.4183   0.0179
Er27     Er     0.9677   0.404   0.1238
V28     V     0.9821   0.5098   0.0817
Er29     Er     0.8762   0.4677   0.096
V30     V     0.9183   0.4821   0.9902
S31     S     0.858   0.2137   0.891
Ti32     Ti     0.9023   0.2757   0.9769
Ce33     Ce     0.9278   0.1641   0.9676
S34     S     0.7863   0.391   0.642
Ti35     Ti     0.7243   0.4769   0.5977
Ce36     Ce     0.8359   0.4676   0.5722
S37     S     0.391   0.642   0.7863
Ti38     Ti     0.4769   0.5977   0.7243
Ce39     Ce     0.4676   0.5722   0.8359
S40     S     0.642   0.7863   0.391
Ti41     Ti     0.5977   0.7243   0.4769
Ce42     Ce     0.5722   0.8359   0.4676
Er43     Er     0.6238   0.5323   0.596
V44     V     0.5817   0.5179   0.4902
Er45     Er     0.5323   0.596   0.6238
V46     V     0.5179   0.4902   0.5817
Er47     Er     0.596   0.6238   0.5323
V48     V     0.4902   0.5817   0.5179
H49     H     0.7091   0.7634   0.3005
H50     H     0.7366   0.6995   0.2091
H51     H     0.8005   0.7909   0.2366
H52     H     0.1995   0.2909   0.2633
H53     H     0.2633   0.1995   0.2909
H54     H     0.2909   0.2633   0.1995
S55     S     0.142   0.7137   0.609
Ti56     Ti     0.0977   0.7757   0.5231
Ce57     Ce     0.0722   0.6641   0.5324
S58     S     0.891   0.858   0.2137
Ti59     Ti     0.9769   0.9023   0.2757
Ce60     Ce     0.9676   0.9278   0.1641
S61     S     0.2863   0.109   0.358
Ti62     Ti     0.2243   0.0231   0.4023
Ce63     Ce     0.3359   0.0324   0.4278
Er64     Er     0.096   0.8762   0.4677
V65     V     0.9902   0.9183   0.4821
Er66     Er     0.1238   0.9677   0.404
V67     V     0.0817   0.9821   0.5098
Er68     Er     0.0323   0.904   0.3762
V69     V     0.0179   0.0098   0.4183
H70     H     0.3005   0.7091   0.7634
H71     H     0.2091   0.7366   0.6995
H72     H     0.2366   0.8005   0.7909
S73     S     0.142   0.2863   0.891
Ti74     Ti     0.0977   0.2243   0.9769
Ce75     Ce     0.0722   0.3359   0.9676
S76     S     0.2863   0.891   0.142
Ti77     Ti     0.2243   0.9769   0.0977
Ce78     Ce     0.3359   0.9676   0.0722
Er79     Er     0.0323   0.096   0.1238
V80     V     0.0179   0.9902   0.0817
Er81     Er     0.096   0.1238   0.0323
V82     V     0.9902   0.0817   0.0179
Er83     Er     0.1238   0.0323   0.096
V84     V     0.0817   0.0179   0.9902
S85     S     0.891   0.142   0.2863
Ti86     Ti     0.9769   0.0977   0.2243
Ce87     Ce     0.9676   0.0722   0.3359
H88     H     0.2909   0.7366   0.3005
H89     H     0.1995   0.7091   0.2366
H90     H     0.2633   0.8005   0.2091
H91     H     0.7091   0.2366   0.1995
H92     H     0.7366   0.3005   0.2909
H93     H     0.8005   0.2091   0.2633
S94     S     0.2137   0.109   0.642
Ti95     Ti     0.2757   0.0231   0.5977
Ce96     Ce     0.1641   0.0324   0.5722
S97     S     0.609   0.858   0.7863
Ti98     Ti     0.5231   0.9023   0.7243
Ce99     Ce     0.5324   0.9278   0.8359
Er100     Er     0.404   0.8762   0.5323
V101     V     0.5098   0.9183   0.5179
Er102     Er     0.3762   0.9677   0.596
V103     V     0.4183   0.9821   0.4902
Er104     Er     0.4677   0.904   0.6238
V105     V     0.4821   0.0097   0.5817
S106     S     0.358   0.7137   0.391
Ti107     Ti     0.4023   0.7757   0.4769
Ce108     Ce     0.4278   0.6641   0.4676
S109     S     0.642   0.2137   0.109
Ti110     Ti     0.5977   0.2757   0.0231
Ce111     Ce     0.5722   0.1641   0.0324
S112     S     0.7863   0.609   0.858
Ti113     Ti     0.7243   0.5231   0.9023
Ce114     Ce     0.8359   0.5324   0.9278
Er115     Er     0.5323   0.404   0.8762
V116     V     0.5179   0.5098   0.9183
Er117     Er     0.596   0.3762   0.9677
V118     V     0.4902   0.4183   0.9821
Er119     Er     0.6238   0.4677   0.904
V120     V     0.5817   0.4821   0.0097
S121     S     0.391   0.358   0.7137
Ti122     Ti     0.4769   0.4023   0.7757
Ce123     Ce     0.4676   0.4278   0.6641
H124     H     0.3005   0.2909   0.7366
H125     H     0.2366   0.1995   0.7091
H126     H     0.2091   0.2633   0.8005
S127     S     0.858   0.7863   0.609
Ti128     Ti     0.9023   0.7243   0.5231
Ce129     Ce     0.9278   0.8359   0.5324
S130     S     0.109   0.642   0.2137
Ti131     Ti     0.0231   0.5977   0.2757
Ce132     Ce     0.0324   0.5722   0.1641
S133     S     0.7137   0.391   0.358
Ti134     Ti     0.7757   0.4769   0.4023
Ce135     Ce     0.6641   0.4676   0.4278
Er136     Er     0.9677   0.596   0.3762
V137     V     0.9821   0.4902   0.4183
Er138     Er     0.904   0.6238   0.4677
V139     V     0.0098   0.5817   0.4821
Er140     Er     0.8762   0.5323   0.404
V141     V     0.9183   0.5179   0.5098
H142     H     0.7909   0.7634   0.6995
H143     H     0.6995   0.7909   0.7634
H144     H     0.7634   0.6995   0.7909
loop_
_geom_bond_atom_site_label_1
_geom_bond_atom_site_label_2
_geom_bond_distance
_geom_bond_site_symmetry_2
_ccdc_geom_bond_type
S1     Ti2    9.995   .     S
S1     Ce3    10.005   .     S
S1     H17    10.008   .     S
Ti2     Ce3    9.999   .     S
Ti2     Er11    10.001   .     S
Ce3     V105    10.01   .     S
S4     Ti5    9.995   .     S
S4     Ce6    10.005   .     S
S4     H54    10.008   .     S
Ti5     Ce6    9.999   .     S
Ti5     Er9    10.001   1_554     S
Ce6     V118    10.01   1_554     S
Er7     V8    9.988   1_556     S
Er7     Er9    9.996   .     S
Er7     V12    9.997   1_545     S
Er7     Er11    9.996   .     S
Er7     Ti14    10.001   1_545     S
V8     Er7    9.988   1_554     S
V8     Er9    9.997   1_554     S
V8     V10    10.0   1_554     S
V8     V12    10.0   1_544     S
V8     Ce78    10.01   1_545     S
Er9     V10    9.988   .     S
Er9     V8    9.997   1_556     S
Er9     Er11    9.996   .     S
Er9     Ti5    10.001   1_556     S
V10     V8    10.0   1_556     S
V10     Er11    9.997   .     S
V10     V12    10.0   1_545     S
V10     Ce111    10.01   1_556     S
Er11     V12    9.988   1_545     S
V12     V10    10.0   1_565     S
V12     Er7    9.997   1_565     S
V12     V8    10.0   1_566     S
V12     Er11    9.988   1_565     S
V12     Ce99    10.01   .     S
S13     Ti14    9.995   .     S
S13     Ce15    10.005   .     S
S13     H72    10.008   .     S
Ti14     Ce15    9.999   .     S
Ti14     Er7    10.001   1_565     S
Ce15     V84    10.01   1_565     S
H16     H18    10.001   .     S
H16     H17    10.001   .     S
H16     S34    10.008   .     S
H17     H18    10.001   .     S
H18     S31    10.008   .     S
S19     Ti20    9.995   .     S
S19     Ce21    10.005   .     S
S19     H50    10.008   .     S
Ti20     Ce21    9.999   .     S
Ti20     Er29    10.001   .     S
Ce21     V120    10.01   .     S
S22     Ti23    9.995   .     S
S22     Ce24    10.005   .     S
S22     H52    10.008   .     S
Ti23     Ce24    9.999   .     S
Ti23     Er27    10.001   1_455     S
Ce24     V137    10.01   1_455     S
Er25     V26    9.988   1_655     S
Er25     Er27    9.996   .     S
Er25     V30    9.997   1_554     S
Er25     Er29    9.996   .     S
Er25     Ti32    10.001   1_554     S
V26     Er25    9.988   1_455     S
V26     Er27    9.997   1_455     S
V26     V28    10.0   1_455     S
V26     V30    10.0   1_454     S
V26     Ce75    10.01   1_554     S
Er27     V26    9.997   1_655     S
Er27     V28    9.988   .     S
Er27     Er29    9.996   .     S
Er27     Ti23    10.001   1_655     S
V28     V26    10.0   1_655     S
V28     Er29    9.997   .     S
V28     V30    10.0   1_554     S
V28     Ce132    10.01   1_655     S
Er29     V30    9.988   1_554     S
V30     V28    10.0   1_556     S
V30     Er25    9.997   1_556     S
V30     V26    10.0   1_656     S
V30     Er29    9.988   1_556     S
V30     Ce114    10.01   .     S
S31     Ti32    9.995   .     S
S31     Ce33    10.005   .     S
Ti32     Ce33    9.999   .     S
Ti32     Er25    10.001   1_556     S
Ce33     V82    10.01   1_556     S
S34     Ti35    9.995   .     S
S34     Ce36    10.005   .     S
Ti35     Ce36    9.999   .     S
Ti35     Er43    10.001   .     S
Ce36     V141    10.01   .     S
S37     Ti38    9.995   .     S
S37     Ce39    10.005   .     S
S37     H70    10.008   .     S
Ti38     Ce39    9.999   .     S
Ti38     Er45    10.001   .     S
Ce39     V116    10.01   .     S
S40     Ti41    9.995   .     S
S40     Ce42    10.005   .     S
S40     H49    10.008   .     S
Ti41     Ce42    9.999   .     S
Ti41     Er47    10.001   .     S
Ce42     V101    10.01   .     S
Er43     V44    9.988   .     S
Er43     Er47    9.996   .     S
Er43     V46    9.997   .     S
Er43     Er45    9.996   .     S
V44     Er47    9.997   .     S
V44     V48    10.0   .     S
V44     V46    10.0   .     S
V44     Ce135    10.01   .     S
Er45     V46    9.988   .     S
Er45     V48    9.997   .     S
Er45     Er47    9.996   .     S
V46     V48    10.0   .     S
V46     Ce123    10.01   .     S
Er47     V48    9.988   .     S
V48     Ce108    10.01   .     S
H49     H51    10.001   .     S
H49     H50    10.001   .     S
H50     H51    10.001   .     S
H51     S58    10.008   .     S
H52     H53    10.001   .     S
H52     H54    10.001   .     S
H53     H54    10.001   .     S
H53     S61    10.008   .     S
S55     Ti56    9.995   .     S
S55     Ce57    10.005   .     S
S55     H71    10.008   .     S
Ti56     Ce57    9.999   .     S
Ti56     Er64    10.001   .     S
Ce57     V139    10.01   .     S
S58     Ti59    9.995   .     S
S58     Ce60    10.005   .     S
Ti59     Ce60    9.999   .     S
Ti59     Er68    10.001   1_655     S
Ce60     V80    10.01   1_655     S
S61     Ti62    9.995   .     S
S61     Ce63    10.005   .     S
Ti62     Ce63    9.999   .     S
Ti62     Er66    10.001   1_545     S
Ce63     V103    10.01   1_545     S
Er64     V67    9.997   .     S
Er64     Er66    9.996   .     S
Er64     Er68    9.996   .     S
Er64     V65    9.988   1_455     S
V65     V67    10.0   1_655     S
V65     Er68    9.997   1_655     S
V65     V69    10.0   1_665     S
V65     Er64    9.988   1_655     S
V65     Ce129    10.01   .     S
Er66     V67    9.988   .     S
Er66     V69    9.997   1_565     S
Er66     Er68    9.996   .     S
Er66     Ti62    10.001   1_565     S
V67     V65    10.0   1_455     S
V67     V69    10.0   1_565     S
V67     Ce96    10.01   1_565     S
Er68     V65    9.997   1_455     S
Er68     V69    9.988   1_565     S
Er68     Ti59    10.001   1_455     S
V69     V65    10.0   1_445     S
V69     Er66    9.997   1_545     S
V69     V67    10.0   1_545     S
V69     Er68    9.988   1_545     S
V69     Ce87    10.01   1_455     S
H70     H72    10.001   .     S
H70     H71    10.001   .     S
H71     H72    10.001   .     S
S73     Ti74    9.995   .     S
S73     Ce75    10.005   .     S
S73     H126    10.008   .     S
Ti74     Ce75    9.999   .     S
Ti74     Er81    10.001   1_556     S
Ce75     V26    10.01   1_556     S
S76     Ti77    9.995   .     S
S76     Ce78    10.005   .     S
S76     H90    10.008   .     S
Ti77     Ce78    9.999   .     S
Ti77     Er83    10.001   1_565     S
Ce78     V8    10.01   1_565     S
Er79     Er83    9.996   .     S
Er79     V80    9.988   1_545     S
Er79     V82    9.997   1_455     S
Er79     Er81    9.996   .     S
Er79     Ti86    10.001   1_455     S
V80     Ce60    10.01   1_455     S
V80     Er83    9.997   1_565     S
V80     V84    10.0   1_564     S
V80     Er79    9.988   1_565     S
V80     V82    10.0   1_465     S
Er81     Ti74    10.001   1_554     S
Er81     V82    9.988   1_455     S
Er81     V84    9.997   1_554     S
Er81     Er83    9.996   .     S
V82     Ce33    10.01   1_554     S
V82     Er79    9.997   1_655     S
V82     V80    10.0   1_645     S
V82     Er81    9.988   1_655     S
V82     V84    10.0   1_654     S
Er83     V80    9.997   1_545     S
Er83     V84    9.988   1_554     S
Er83     Ti77    10.001   1_545     S
V84     Ce15    10.01   1_545     S
V84     V80    10.0   1_546     S
V84     Er81    9.997   1_556     S
V84     V82    10.0   1_456     S
V84     Er83    9.988   1_556     S
S85     Ti86    9.995   .     S
S85     Ce87    10.005   .     S
S85     H93    10.008   .     S
Ti86     Ce87    9.999   .     S
Ti86     Er79    10.001   1_655     S
Ce87     V69    10.01   1_655     S
H88     H90    10.001   .     S
H88     H89    10.001   .     S
H88     S106    10.008   .     S
H89     H90    10.001   .     S
H89     S130    10.008   .     S
H91     H92    10.001   .     S
H91     H93    10.001   .     S
H91     S109    10.008   .     S
H92     H93    10.001   .     S
H92     S133    10.008   .     S
S94     Ti95    9.995   .     S
S94     Ce96    10.005   .     S
S94     H125    10.008   .     S
Ti95     Ce96    9.999   .     S
Ti95     Er102    10.001   1_545     S
Ce96     V67    10.01   1_545     S
S97     Ti98    9.995   .     S
S97     Ce99    10.005   .     S
S97     H143    10.008   .     S
Ti98     Ce99    9.999   .     S
Ti98     Er104    10.001   .     S
Er100     V101    9.988   .     S
Er100     Er104    9.996   .     S
Er100     V103    9.997   .     S
Er100     Er102    9.996   .     S
Er100     Ti107    10.001   .     S
V101     Er104    9.997   .     S
V101     V105    10.0   1_565     S
V101     V103    10.0   .     S
Er102     V103    9.988   .     S
Er102     V105    9.997   1_565     S
Er102     Er104    9.996   .     S
Er102     Ti95    10.001   1_565     S
V103     Ce63    10.01   1_565     S
V103     V105    10.0   1_565     S
Er104     V105    9.988   1_565     S
V105     V101    10.0   1_545     S
V105     Er102    9.997   1_545     S
V105     V103    10.0   1_545     S
V105     Er104    9.988   1_545     S
S106     Ti107    9.995   .     S
S106     Ce108    10.005   .     S
Ti107     Ce108    9.999   .     S
S109     Ti110    9.995   .     S
S109     Ce111    10.005   .     S
Ti110     Ce111    9.999   .     S
Ti110     Er117    10.001   1_554     S
Ce111     V10    10.01   1_554     S
S112     Ti113    9.995   .     S
S112     Ce114    10.005   .     S
S112     H144    10.008   .     S
Ti113     Ce114    9.999   .     S
Ti113     Er119    10.001   .     S
Er115     V116    9.988   .     S
Er115     Er119    9.996   .     S
Er115     V118    9.997   .     S
Er115     Er117    9.996   .     S
Er115     Ti122    10.001   .     S
V116     Er119    9.997   .     S
V116     V120    10.0   1_556     S
V116     V118    10.0   .     S
Er117     V118    9.988   .     S
Er117     V120    9.997   1_556     S
Er117     Er119    9.996   .     S
Er117     Ti110    10.001   1_556     S
V118     Ce6    10.01   1_556     S
V118     V120    10.0   1_556     S
Er119     V120    9.988   1_556     S
V120     V116    10.0   1_554     S
V120     Er117    9.997   1_554     S
V120     V118    10.0   1_554     S
V120     Er119    9.988   1_554     S
S121     Ti122    9.995   .     S
S121     Ce123    10.005   .     S
S121     H124    10.008   .     S
Ti122     Ce123    9.999   .     S
H124     H125    10.001   .     S
H124     H126    10.001   .     S
H125     H126    10.001   .     S
S127     Ti128    9.995   .     S
S127     Ce129    10.005   .     S
S127     H142    10.008   .     S
Ti128     Ce129    9.999   .     S
Ti128     Er138    10.001   .     S
S130     Ti131    9.995   .     S
S130     Ce132    10.005   .     S
Ti131     Ce132    9.999   .     S
Ti131     Er136    10.001   1_455     S
Ce132     V28    10.01   1_455     S
S133     Ti134    9.995   .     S
S133     Ce135    10.005   .     S
Ti134     Ce135    9.999   .     S
Ti134     Er140    10.001   .     S
Er136     Er140    9.996   .     S
Er136     V137    9.988   .     S
Er136     V139    9.997   1_655     S
Er136     Er138    9.996   .     S
Er136     Ti131    10.001   1_655     S
V137     Ce24    10.01   1_655     S
V137     Er140    9.997   .     S
V137     V141    10.0   .     S
V137     V139    10.0   1_655     S
Er138     V139    9.988   1_655     S
Er138     V141    9.997   .     S
Er138     Er140    9.996   .     S
V139     Er136    9.997   1_455     S
V139     V137    10.0   1_455     S
V139     Er138    9.988   1_455     S
V139     V141    10.0   1_455     S
Er140     V141    9.988   .     S
V141     V139    10.0   1_655     S
H142     H143    10.001   .     S
H142     H144    10.001   .     S
H143     H144    10.001   .     S
