data_bcj
_audit_creation_date              2020-02-02
_audit_creation_method            'Pymatgen'
_symmetry_space_group_name_H-M    'P1'
_symmetry_Int_Tables_number       1
loop_
_symmetry_equiv_pos_as_xyz
  x,y,z
_cell_length_a                    69.2593
_cell_length_b                    69.2593
_cell_length_c                    69.2593
_cell_angle_alpha                 90.0
_cell_angle_beta                 90.0
_cell_angle_gamma                 90.0
loop_
_atom_site_label
_atom_site_type_symbol
_atom_site_fract_x
_atom_site_fract_y
_atom_site_fract_z
Er1     Er     0.6743   0.3257   0.5722
Er2     Er     0.6743   0.3257   0.4278
Er3     Er     0.5722   0.3257   0.6743
Er4     Er     0.4278   0.3257   0.6743
Er5     Er     0.8257   0.1743   0.0722
Er6     Er     0.8257   0.1743   0.9278
Er7     Er     0.0722   0.1743   0.8257
Er8     Er     0.9278   0.1743   0.8257
V9     V     0.7083   0.2917   0.7083
V10     V     0.7917   0.2083   0.7917
Er11     Er     0.3257   0.6743   0.5722
Er12     Er     0.3257   0.6743   0.4278
Er13     Er     0.3257   0.5722   0.6743
Er14     Er     0.3257   0.4278   0.6743
Er15     Er     0.1743   0.8257   0.0722
Er16     Er     0.1743   0.8257   0.9278
Er17     Er     0.1743   0.0722   0.8257
Er18     Er     0.1743   0.9278   0.8257
V19     V     0.2917   0.7083   0.7083
V20     V     0.2083   0.7917   0.7917
Er21     Er     0.3257   0.3257   0.5722
Er22     Er     0.3257   0.3257   0.4278
Er23     Er     0.1743   0.1743   0.0722
Er24     Er     0.1743   0.1743   0.9278
V25     V     0.2917   0.2917   0.7083
V26     V     0.2083   0.2083   0.7917
Er27     Er     0.3257   0.5722   0.3257
Er28     Er     0.3257   0.4278   0.3257
Er29     Er     0.1743   0.0722   0.1743
Er30     Er     0.1743   0.9278   0.1743
V31     V     0.2917   0.7083   0.2917
V32     V     0.2083   0.7917   0.2083
Er33     Er     0.5722   0.6743   0.3257
Er34     Er     0.4278   0.6743   0.3257
Er35     Er     0.6743   0.5722   0.3257
Er36     Er     0.6743   0.4278   0.3257
Er37     Er     0.0722   0.8257   0.1743
Er38     Er     0.9278   0.8257   0.1743
Er39     Er     0.8257   0.0722   0.1743
Er40     Er     0.8257   0.9278   0.1743
V41     V     0.7083   0.7083   0.2917
V42     V     0.7917   0.7917   0.2083
V43     V     0.2917   0.2917   0.2917
V44     V     0.2083   0.2083   0.2083
Er45     Er     0.5722   0.3257   0.3257
Er46     Er     0.4278   0.3257   0.3257
Er47     Er     0.0722   0.1743   0.1743
Er48     Er     0.9278   0.1743   0.1743
V49     V     0.7083   0.2917   0.2917
V50     V     0.7917   0.2083   0.2083
Er51     Er     0.6743   0.6743   0.5722
Er52     Er     0.6743   0.6743   0.4278
Er53     Er     0.5722   0.6743   0.6743
Er54     Er     0.4278   0.6743   0.6743
Er55     Er     0.8257   0.8257   0.0722
Er56     Er     0.8257   0.8257   0.9278
Er57     Er     0.0722   0.8257   0.8257
Er58     Er     0.9278   0.8257   0.8257
Er59     Er     0.8257   0.0722   0.8257
Er60     Er     0.8257   0.9278   0.8257
Er61     Er     0.6743   0.4278   0.6743
Er62     Er     0.6743   0.5722   0.6743
V63     V     0.7083   0.7083   0.7083
V64     V     0.7917   0.7917   0.7917
loop_
_geom_bond_atom_site_label_1
_geom_bond_atom_site_label_2
_geom_bond_distance
_geom_bond_site_symmetry_2
_ccdc_geom_bond_type
Er1     Er2    10.0   .     S
Er1     V9    10.0   .     S
Er1     Er61    10.0   .     S
Er1     Er3    10.0   .     S
Er2     V49    10.0   .     S
Er2     Er36    10.0   .     S
Er2     Er45    10.0   .     S
Er3     Er4    10.0   .     S
Er3     V9    10.0   .     S
Er3     Er61    10.0   .     S
Er4     V25    10.0   .     S
Er4     Er14    10.0   .     S
Er4     Er21    10.0   .     S
Er5     Er6    10.0   1_554     S
Er5     V50    10.0   .     S
Er5     Er39    10.0   .     S
Er5     Er48    10.0   .     S
Er6     Er5    10.0   1_556     S
Er6     V10    10.0   .     S
Er6     Er59    10.0   .     S
Er6     Er8    10.0   .     S
Er7     Er8    10.0   1_455     S
Er7     V26    10.0   .     S
Er7     Er17    10.0   .     S
Er7     Er24    10.0   .     S
Er8     Er7    10.0   1_655     S
Er8     V10    10.0   .     S
Er8     Er59    10.0   .     S
V9     Er61    10.0   .     S
V9     V10    10.0   .     S
V10     Er59    10.0   .     S
Er11     Er12    10.0   .     S
Er11     V19    10.0   .     S
Er11     Er54    10.0   .     S
Er11     Er13    10.0   .     S
Er12     V31    10.0   .     S
Er12     Er34    10.0   .     S
Er12     Er27    10.0   .     S
Er13     Er14    10.0   .     S
Er13     V19    10.0   .     S
Er13     Er54    10.0   .     S
Er14     V25    10.0   .     S
Er14     Er21    10.0   .     S
Er15     Er16    10.0   1_554     S
Er15     V32    10.0   .     S
Er15     Er37    10.0   .     S
Er15     Er30    10.0   .     S
Er16     Er15    10.0   1_556     S
Er16     V20    10.0   .     S
Er16     Er57    10.0   .     S
Er16     Er18    10.0   .     S
Er17     Er18    10.0   1_545     S
Er17     V26    10.0   .     S
Er17     Er24    10.0   .     S
Er18     Er17    10.0   1_565     S
Er18     V20    10.0   .     S
Er18     Er57    10.0   .     S
V19     Er54    10.0   .     S
V19     V20    10.0   .     S
V20     Er57    10.0   .     S
Er21     Er22    10.0   .     S
Er21     V25    10.0   .     S
Er22     V43    10.0   .     S
Er22     Er46    10.0   .     S
Er22     Er28    10.0   .     S
Er23     Er24    10.0   1_554     S
Er23     V44    10.0   .     S
Er23     Er29    10.0   .     S
Er23     Er47    10.0   .     S
Er24     Er23    10.0   1_556     S
Er24     V26    10.0   .     S
V25     V26    10.0   .     S
Er27     Er28    10.0   .     S
Er27     V31    10.0   .     S
Er27     Er34    10.0   .     S
Er28     V43    10.0   .     S
Er28     Er46    10.0   .     S
Er29     Er30    10.0   1_545     S
Er29     V44    10.0   .     S
Er29     Er47    10.0   .     S
Er30     Er29    10.0   1_565     S
Er30     V32    10.0   .     S
Er30     Er37    10.0   .     S
V31     Er34    10.0   .     S
V31     V32    10.0   .     S
V32     Er37    10.0   .     S
Er33     Er34    10.0   .     S
Er33     V41    10.0   .     S
Er33     Er52    10.0   .     S
Er33     Er35    10.0   .     S
Er35     Er36    10.0   .     S
Er35     V41    10.0   .     S
Er35     Er52    10.0   .     S
Er36     V49    10.0   .     S
Er36     Er45    10.0   .     S
Er37     Er38    10.0   1_455     S
Er38     Er37    10.0   1_655     S
Er38     V42    10.0   .     S
Er38     Er55    10.0   .     S
Er38     Er40    10.0   .     S
Er39     Er40    10.0   1_545     S
Er39     V50    10.0   .     S
Er39     Er48    10.0   .     S
Er40     Er39    10.0   1_565     S
Er40     V42    10.0   .     S
Er40     Er55    10.0   .     S
V41     Er52    10.0   .     S
V41     V42    10.0   .     S
V42     Er55    10.0   .     S
V43     Er46    10.0   .     S
V43     V44    10.0   .     S
V44     Er47    10.0   .     S
Er45     Er46    10.0   .     S
Er45     V49    10.0   .     S
Er47     Er48    10.0   1_455     S
Er48     Er47    10.0   1_655     S
Er48     V50    10.0   .     S
V49     V50    10.0   .     S
Er51     Er52    10.0   .     S
Er51     V63    10.0   .     S
Er51     Er62    10.0   .     S
Er51     Er53    10.0   .     S
Er53     Er54    10.0   .     S
Er53     V63    10.0   .     S
Er53     Er62    10.0   .     S
Er55     Er56    10.0   1_554     S
Er56     Er55    10.0   1_556     S
Er56     V64    10.0   .     S
Er56     Er58    10.0   .     S
Er56     Er60    10.0   .     S
Er57     Er58    10.0   1_455     S
Er58     Er57    10.0   1_655     S
Er58     V64    10.0   .     S
Er58     Er60    10.0   .     S
Er59     Er60    10.0   1_545     S
Er60     Er59    10.0   1_565     S
Er60     V64    10.0   .     S
Er61     Er62    10.0   .     S
Er62     V63    10.0   .     S
V63     V64    10.0   .     S
