data_bck
_audit_creation_date              2020-02-02
_audit_creation_method            'Pymatgen'
_symmetry_space_group_name_H-M    'P1'
_symmetry_Int_Tables_number       1
loop_
_symmetry_equiv_pos_as_xyz
  x,y,z
_cell_length_a                    24.9765
_cell_length_b                    24.9765
_cell_length_c                    22.4026
_cell_angle_alpha                 90.0
_cell_angle_beta                 90.0
_cell_angle_gamma                 120.0
loop_
_atom_site_label
_atom_site_type_symbol
_atom_site_fract_x
_atom_site_fract_y
_atom_site_fract_z
Er1     Er     0.8442   0.4221   1.0
Er2     Er     0.5779   0.1558   0.3333
Er3     Er     0.5779   0.4221   0.6667
V4     V     0.2446   0.4891   0.8333
V5     V     0.2446   0.7554   0.1667
V6     V     0.5109   0.7554   0.5
loop_
_geom_bond_atom_site_label_1
_geom_bond_atom_site_label_2
_geom_bond_distance
_geom_bond_site_symmetry_2
_ccdc_geom_bond_type
Er1     Er3    10.0   .     S
Er1     V4    10.0   1_655     S
Er1     V5    10.0   1_656     S
Er1     Er2    10.0   1_556     S
Er2     Er1    10.0   .     S
Er2     V5    10.0   1_545     S
Er2     V6    10.0   1_545     S
Er2     Er3    10.0   .     S
Er3     Er1    10.0   1_556     S
Er3     V6    10.0   .     S
Er3     V4    10.0   .     S
V4     Er1    10.0   1_456     S
V4     V5    10.0   1_556     S
V4     V6    10.0   .     S
V5     Er1    10.0   1_455     S
V5     Er2    10.0   1_565     S
V5     V4    10.0   1_554     S
V5     V6    10.0   .     S
V6     Er2    10.0   1_565     S
