data_bcl
_audit_creation_date              2020-02-02
_audit_creation_method            'Pymatgen'
_symmetry_space_group_name_H-M    'P1'
_symmetry_Int_Tables_number       1
loop_
_symmetry_equiv_pos_as_xyz
  x,y,z
_cell_length_a                    20.0
_cell_length_b                    20.0
_cell_length_c                    34.1421
_cell_angle_alpha                 90.0
_cell_angle_beta                 90.0
_cell_angle_gamma                 90.0
loop_
_atom_site_label
_atom_site_type_symbol
_atom_site_fract_x
_atom_site_fract_y
_atom_site_fract_z
V1     V     0.25   0.25   0.7071
V2     V     0.25   0.75   0.7071
V3     V     0.75   0.25   0.7071
V4     V     0.75   0.75   0.7071
Er5     Er     0.25   0.25   0.0
Er6     Er     0.25   0.75   0.0
Er7     Er     0.75   0.25   0.0
Er8     Er     0.75   0.75   0.0
V9     V     0.0   0.0   0.2071
V10     V     0.0   0.5   0.2071
V11     V     0.5   0.0   0.2071
V12     V     0.5   0.5   0.2071
Er13     Er     0.0   0.0   0.5
Er14     Er     0.0   0.5   0.5
Er15     Er     0.5   0.0   0.5
Er16     Er     0.5   0.5   0.5
loop_
_geom_bond_atom_site_label_1
_geom_bond_atom_site_label_2
_geom_bond_distance
_geom_bond_site_symmetry_2
_ccdc_geom_bond_type
V1     Er5    10.0   1_556     S
V1     Er14    10.0   .     S
V1     Er15    10.0   .     S
V2     Er6    10.0   1_556     S
V2     Er13    10.0   1_565     S
V2     Er16    10.0   .     S
V3     Er7    10.0   1_556     S
V3     Er16    10.0   .     S
V3     Er13    10.0   1_655     S
V4     Er8    10.0   1_556     S
V4     Er15    10.0   1_565     S
V4     Er14    10.0   1_655     S
Er5     V1    10.0   1_554     S
Er5     V9    10.0   .     S
Er5     V12    10.0   .     S
Er5     Er7    10.0   1_455     S
Er5     Er7    10.0   .     S
Er5     Er6    10.0   1_545     S
Er5     Er6    10.0   .     S
Er6     V2    10.0   1_554     S
Er6     V10    10.0   .     S
Er6     V11    10.0   1_565     S
Er6     Er8    10.0   1_455     S
Er6     Er8    10.0   .     S
Er6     Er5    10.0   1_565     S
Er7     V3    10.0   1_554     S
Er7     V11    10.0   .     S
Er7     V10    10.0   1_655     S
Er7     Er5    10.0   1_655     S
Er7     Er8    10.0   1_545     S
Er7     Er8    10.0   .     S
Er8     V4    10.0   1_554     S
Er8     V12    10.0   .     S
Er8     V9    10.0   1_665     S
Er8     Er6    10.0   1_655     S
Er8     Er7    10.0   1_565     S
V9     Er8    10.0   1_445     S
V9     Er13    10.0   .     S
V10     Er7    10.0   1_455     S
V10     Er14    10.0   .     S
V11     Er6    10.0   1_545     S
V11     Er15    10.0   .     S
V12     Er16    10.0   .     S
Er13     V2    10.0   1_545     S
Er13     V3    10.0   1_455     S
Er13     Er14    10.0   .     S
Er13     Er14    10.0   1_545     S
Er13     Er15    10.0   .     S
Er13     Er15    10.0   1_455     S
Er14     V4    10.0   1_455     S
Er14     Er13    10.0   1_565     S
Er14     Er16    10.0   .     S
Er14     Er16    10.0   1_455     S
Er15     V4    10.0   1_545     S
Er15     Er16    10.0   .     S
Er15     Er16    10.0   1_545     S
Er15     Er13    10.0   1_655     S
Er16     Er15    10.0   1_565     S
Er16     Er14    10.0   1_655     S
