data_bcm
_audit_creation_date              2020-02-02
_audit_creation_method            'Pymatgen'
_symmetry_space_group_name_H-M    'P1'
_symmetry_Int_Tables_number       1
loop_
_symmetry_equiv_pos_as_xyz
  x,y,z
_cell_length_a                    16.7665
_cell_length_b                    16.7665
_cell_length_c                    28.4041
_cell_angle_alpha                 90.0
_cell_angle_beta                 90.0
_cell_angle_gamma                 90.0
loop_
_atom_site_label
_atom_site_type_symbol
_atom_site_fract_x
_atom_site_fract_y
_atom_site_fract_z
V1     V     0.0   0.0   0.25
Er2     Er     0.25   0.3374   0.0
Er3     Er     0.75   0.6626   0.0
V4     V     0.0   0.0   0.75
Er5     Er     0.3374   0.75   0.5
Er6     Er     0.6626   0.25   0.5
loop_
_geom_bond_atom_site_label_1
_geom_bond_atom_site_label_2
_geom_bond_distance
_geom_bond_site_symmetry_2
_ccdc_geom_bond_type
V1     Er2    10.0   .     S
V1     Er3    10.0   1_445     S
V1     Er5    10.0   1_545     S
V1     Er6    10.0   1_455     S
Er2     V4    10.0   1_554     S
Er2     Er3    10.0   1_455     S
Er2     Er3    10.0   .     S
Er3     V1    10.0   1_665     S
Er3     V4    10.0   1_664     S
Er3     Er2    10.0   1_655     S
V4     Er3    10.0   1_446     S
V4     Er6    10.0   1_455     S
V4     Er5    10.0   1_545     S
V4     Er2    10.0   1_556     S
Er5     V4    10.0   1_565     S
Er5     V1    10.0   1_565     S
Er5     Er6    10.0   1_565     S
Er5     Er6    10.0   .     S
Er6     V4    10.0   1_655     S
Er6     V1    10.0   1_655     S
Er6     Er5    10.0   1_545     S
