data_bcug
_audit_creation_date              2020-02-02
_audit_creation_method            'Pymatgen'
_symmetry_space_group_name_H-M    'P1'
_symmetry_Int_Tables_number       1
loop_
_symmetry_equiv_pos_as_xyz
  x,y,z
_cell_length_a                    31.6317
_cell_length_b                    31.6317
_cell_length_c                    23.537
_cell_angle_alpha                 90.0
_cell_angle_beta                 90.0
_cell_angle_gamma                 90.0
loop_
_atom_site_label
_atom_site_type_symbol
_atom_site_fract_x
_atom_site_fract_y
_atom_site_fract_z
V1     V     0.9762   0.3634   0.602
V2     V     0.1366   0.5238   0.898
V3     V     0.3634   0.5238   0.602
V4     V     0.5238   0.3634   0.898
V5     V     0.1366   0.9762   0.602
V6     V     0.9762   0.1366   0.898
V7     V     0.3634   0.9762   0.898
V8     V     0.5238   0.1366   0.602
V9     V     0.8634   0.4762   0.102
V10     V     0.0238   0.6366   0.398
V11     V     0.0238   0.8634   0.102
V12     V     0.8634   0.0238   0.398
V13     V     0.4762   0.6366   0.102
V14     V     0.6366   0.4762   0.398
V15     V     0.6366   0.0238   0.102
V16     V     0.4762   0.8634   0.398
loop_
_geom_bond_atom_site_label_1
_geom_bond_atom_site_label_2
_geom_bond_distance
_geom_bond_site_symmetry_2
_ccdc_geom_bond_type
V1     V2    10.0   1_655     S
V1     V6    10.0   .     S
V1     V10    10.0   1_655     S
V2     V1    10.0   1_455     S
V2     V3    10.0   .     S
V2     V9    10.0   1_456     S
V3     V4    10.0   .     S
V3     V14    10.0   .     S
V4     V8    10.0   .     S
V4     V13    10.0   1_556     S
V5     V6    10.0   1_465     S
V5     V7    10.0   .     S
V5     V12    10.0   1_465     S
V6     V5    10.0   1_645     S
V6     V11    10.0   1_646     S
V7     V8    10.0   1_565     S
V7     V15    10.0   1_566     S
V8     V7    10.0   1_545     S
V8     V16    10.0   1_545     S
V9     V2    10.0   1_654     S
V9     V10    10.0   1_655     S
V9     V14    10.0   .     S
V10     V1    10.0   1_455     S
V10     V9    10.0   1_455     S
V10     V11    10.0   .     S
V11     V6    10.0   1_464     S
V11     V12    10.0   1_465     S
V12     V5    10.0   1_645     S
V12     V11    10.0   1_645     S
V12     V15    10.0   .     S
V13     V14    10.0   .     S
V13     V16    10.0   .     S
V13     V4    10.0   1_554     S
V15     V16    10.0   1_545     S
V15     V7    10.0   1_544     S
V16     V8    10.0   1_565     S
V16     V15    10.0   1_565     S
