data_bcuh
_audit_creation_date              2020-02-02
_audit_creation_method            'Pymatgen'
_symmetry_space_group_name_H-M    'P1'
_symmetry_Int_Tables_number       1
loop_
_symmetry_equiv_pos_as_xyz
  x,y,z
_cell_length_a                    35.7544
_cell_length_b                    35.7544
_cell_length_c                    29.8459
_cell_angle_alpha                 90.0
_cell_angle_beta                 90.0
_cell_angle_gamma                 90.0
loop_
_atom_site_label
_atom_site_type_symbol
_atom_site_fract_x
_atom_site_fract_y
_atom_site_fract_z
V1     V     0.0268   0.6102   0.5981
V2     V     0.0268   0.8898   0.5981
V3     V     0.3898   0.5268   0.9019
V4     V     0.1102   0.5268   0.9019
V5     V     0.3898   0.9732   0.9019
V6     V     0.1102   0.9732   0.9019
V7     V     0.4732   0.6102   0.5981
V8     V     0.4732   0.8898   0.5981
V9     V     0.5268   0.1102   0.4019
V10     V     0.5268   0.3898   0.4019
V11     V     0.6102   0.0268   0.0981
V12     V     0.8898   0.0268   0.0981
V13     V     0.9732   0.3898   0.4019
V14     V     0.9732   0.1102   0.4019
V15     V     0.6102   0.4732   0.0981
V16     V     0.8898   0.4732   0.0981
loop_
_geom_bond_atom_site_label_1
_geom_bond_atom_site_label_2
_geom_bond_distance
_geom_bond_site_symmetry_2
_ccdc_geom_bond_type
V1     V2    10.0   .     S
V1     V4    10.0   .     S
V1     V13    10.0   1_455     S
V2     V6    10.0   .     S
V2     V14    10.0   1_465     S
V3     V4    10.0   .     S
V3     V7    10.0   .     S
V3     V15    10.0   1_556     S
V4     V16    10.0   1_456     S
V5     V6    10.0   .     S
V5     V8    10.0   .     S
V5     V11    10.0   1_566     S
V6     V12    10.0   1_466     S
V7     V8    10.0   .     S
V7     V10    10.0   .     S
V8     V9    10.0   1_565     S
V9     V10    10.0   .     S
V9     V11    10.0   .     S
V9     V8    10.0   1_545     S
V10     V15    10.0   .     S
V11     V12    10.0   .     S
V11     V5    10.0   1_544     S
V12     V14    10.0   .     S
V12     V6    10.0   1_644     S
V13     V1    10.0   1_655     S
V13     V14    10.0   .     S
V13     V16    10.0   .     S
V14     V2    10.0   1_645     S
V15     V16    10.0   .     S
V15     V3    10.0   1_554     S
V16     V4    10.0   1_654     S
