data_bcux
_audit_creation_date              2020-02-02
_audit_creation_method            'Pymatgen'
_symmetry_space_group_name_H-M    'P1'
_symmetry_Int_Tables_number       1
loop_
_symmetry_equiv_pos_as_xyz
  x,y,z
_cell_length_a                    21.658
_cell_length_b                    21.658
_cell_length_c                    21.658
_cell_angle_alpha                 90.0
_cell_angle_beta                 90.0
_cell_angle_gamma                 90.0
loop_
_atom_site_label
_atom_site_type_symbol
_atom_site_fract_x
_atom_site_fract_y
_atom_site_fract_z
V1     V     0.0   0.0   0.0
V2     V     0.0   0.0   0.5
V3     V     0.0   0.5   0.0
V4     V     0.0   0.5   0.5
V5     V     0.5   0.0   0.0
V6     V     0.5   0.0   0.5
V7     V     0.5   0.5   0.0
V8     V     0.5   0.5   0.5
V9     V     0.25   0.25   0.25
V10     V     0.25   0.25   0.75
V11     V     0.25   0.75   0.25
V12     V     0.25   0.75   0.75
V13     V     0.75   0.25   0.25
V14     V     0.75   0.25   0.75
V15     V     0.75   0.75   0.25
V16     V     0.75   0.75   0.75
loop_
_geom_bond_atom_site_label_1
_geom_bond_atom_site_label_2
_geom_bond_distance
_geom_bond_site_symmetry_2
_ccdc_geom_bond_type
V1     V2    10.829   .     S
V1     V2    10.829   1_554     S
V1     V5    10.829   .     S
V1     V5    10.829   1_455     S
V1     V3    10.829   .     S
V1     V3    10.829   1_545     S
V1     V9    9.378   .     S
V1     V13    9.378   1_455     S
V1     V15    9.378   1_445     S
V1     V11    9.378   1_545     S
V1     V12    9.378   1_544     S
V1     V10    9.378   1_554     S
V1     V14    9.378   1_454     S
V1     V16    9.378   1_444     S
V2     V1    10.829   1_556     S
V2     V6    10.829   .     S
V2     V6    10.829   1_455     S
V2     V4    10.829   .     S
V2     V4    10.829   1_545     S
V2     V10    9.378   .     S
V2     V14    9.378   1_455     S
V2     V16    9.378   1_445     S
V2     V12    9.378   1_545     S
V2     V11    9.378   1_545     S
V2     V9    9.378   .     S
V2     V13    9.378   1_455     S
V2     V15    9.378   1_445     S
V3     V4    10.829   .     S
V3     V4    10.829   1_554     S
V3     V7    10.829   .     S
V3     V7    10.829   1_455     S
V3     V1    10.829   1_565     S
V3     V11    9.378   .     S
V3     V15    9.378   1_455     S
V3     V13    9.378   1_455     S
V3     V9    9.378   .     S
V3     V10    9.378   1_554     S
V3     V12    9.378   1_554     S
V3     V16    9.378   1_454     S
V3     V14    9.378   1_454     S
V4     V3    10.829   1_556     S
V4     V8    10.829   .     S
V4     V8    10.829   1_455     S
V4     V2    10.829   1_565     S
V4     V12    9.378   .     S
V4     V16    9.378   1_455     S
V4     V14    9.378   1_455     S
V4     V10    9.378   .     S
V4     V9    9.378   .     S
V4     V11    9.378   .     S
V4     V15    9.378   1_455     S
V4     V13    9.378   1_455     S
V5     V6    10.829   .     S
V5     V6    10.829   1_554     S
V5     V1    10.829   1_655     S
V5     V7    10.829   .     S
V5     V7    10.829   1_545     S
V5     V13    9.378   .     S
V5     V9    9.378   .     S
V5     V11    9.378   1_545     S
V5     V15    9.378   1_545     S
V5     V16    9.378   1_544     S
V5     V14    9.378   1_554     S
V5     V10    9.378   1_554     S
V5     V12    9.378   1_544     S
V6     V5    10.829   1_556     S
V6     V2    10.829   1_655     S
V6     V8    10.829   .     S
V6     V8    10.829   1_545     S
V6     V14    9.378   .     S
V6     V10    9.378   .     S
V6     V12    9.378   1_545     S
V6     V16    9.378   1_545     S
V6     V15    9.378   1_545     S
V6     V13    9.378   .     S
V6     V9    9.378   .     S
V6     V11    9.378   1_545     S
V7     V8    10.829   .     S
V7     V8    10.829   1_554     S
V7     V3    10.829   1_655     S
V7     V5    10.829   1_565     S
V7     V15    9.378   .     S
V7     V11    9.378   .     S
V7     V9    9.378   .     S
V7     V13    9.378   .     S
V7     V14    9.378   1_554     S
V7     V16    9.378   1_554     S
V7     V12    9.378   1_554     S
V7     V10    9.378   1_554     S
V8     V7    10.829   1_556     S
V8     V4    10.829   1_655     S
V8     V6    10.829   1_565     S
V8     V16    9.378   .     S
V8     V12    9.378   .     S
V8     V10    9.378   .     S
V8     V14    9.378   .     S
V8     V13    9.378   .     S
V8     V15    9.378   .     S
V8     V11    9.378   .     S
V8     V9    9.378   .     S
V9     V10    10.829   1_554     S
V9     V10    10.829   .     S
V9     V13    10.829   1_455     S
V9     V13    10.829   .     S
V9     V11    10.829   1_545     S
V9     V11    10.829   .     S
V10     V9    10.829   1_556     S
V10     V14    10.829   1_455     S
V10     V14    10.829   .     S
V10     V12    10.829   1_545     S
V10     V12    10.829   .     S
V10     V3    9.378   1_556     S
V10     V1    9.378   1_556     S
V10     V5    9.378   1_556     S
V10     V7    9.378   1_556     S
V11     V12    10.829   1_554     S
V11     V12    10.829   .     S
V11     V15    10.829   1_455     S
V11     V15    10.829   .     S
V11     V9    10.829   1_565     S
V11     V5    9.378   1_565     S
V11     V1    9.378   1_565     S
V11     V2    9.378   1_565     S
V11     V6    9.378   1_565     S
V12     V11    10.829   1_556     S
V12     V16    10.829   1_455     S
V12     V16    10.829   .     S
V12     V10    10.829   1_565     S
V12     V6    9.378   1_565     S
V12     V2    9.378   1_565     S
V12     V1    9.378   1_566     S
V12     V3    9.378   1_556     S
V12     V7    9.378   1_556     S
V12     V5    9.378   1_566     S
V13     V14    10.829   1_554     S
V13     V14    10.829   .     S
V13     V9    10.829   1_655     S
V13     V15    10.829   1_545     S
V13     V15    10.829   .     S
V13     V1    9.378   1_655     S
V13     V3    9.378   1_655     S
V13     V2    9.378   1_655     S
V13     V4    9.378   1_655     S
V14     V13    10.829   1_556     S
V14     V10    10.829   1_655     S
V14     V16    10.829   1_545     S
V14     V16    10.829   .     S
V14     V2    9.378   1_655     S
V14     V4    9.378   1_655     S
V14     V7    9.378   1_556     S
V14     V5    9.378   1_556     S
V14     V1    9.378   1_656     S
V14     V3    9.378   1_656     S
V15     V16    10.829   1_554     S
V15     V16    10.829   .     S
V15     V11    10.829   1_655     S
V15     V13    10.829   1_565     S
V15     V3    9.378   1_655     S
V15     V1    9.378   1_665     S
V15     V5    9.378   1_565     S
V15     V6    9.378   1_565     S
V15     V4    9.378   1_655     S
V15     V2    9.378   1_665     S
V16     V15    10.829   1_556     S
V16     V12    10.829   1_655     S
V16     V14    10.829   1_565     S
V16     V4    9.378   1_655     S
V16     V2    9.378   1_665     S
V16     V6    9.378   1_565     S
V16     V5    9.378   1_566     S
V16     V7    9.378   1_556     S
V16     V3    9.378   1_656     S
V16     V1    9.378   1_666     S
