data_bcx
_audit_creation_date              2020-02-02
_audit_creation_method            'Pymatgen'
_symmetry_space_group_name_H-M    'P1'
_symmetry_Int_Tables_number       1
loop_
_symmetry_equiv_pos_as_xyz
  x,y,z
_cell_length_a                    38.6937
_cell_length_b                    38.6937
_cell_length_c                    38.6937
_cell_angle_alpha                 90.0
_cell_angle_beta                 90.0
_cell_angle_gamma                 90.0
loop_
_atom_site_label
_atom_site_type_symbol
_atom_site_fract_x
_atom_site_fract_y
_atom_site_fract_z
V1     V     0.1996   0.1996   0.1996
V2     V     0.0504   0.0504   0.0504
V3     V     0.9496   0.5504   0.4496
V4     V     0.8004   0.6996   0.3004
V5     V     0.5504   0.4496   0.9496
V6     V     0.6996   0.3004   0.8004
V7     V     0.4496   0.9496   0.5504
V8     V     0.3004   0.8004   0.6996
Er9     Er     0.5042   0.4519   0.2039
Er10     Er     0.2458   0.4539   0.2019
Er11     Er     0.2039   0.5042   0.4519
Er12     Er     0.2019   0.2458   0.4539
Er13     Er     0.4519   0.2039   0.5042
Er14     Er     0.4539   0.2019   0.2458
Er15     Er     0.7458   0.0461   0.7981
Er16     Er     0.0042   0.0481   0.7961
Er17     Er     0.9519   0.2961   0.4958
Er18     Er     0.9539   0.2981   0.7542
Er19     Er     0.2542   0.5461   0.7019
Er20     Er     0.9958   0.5481   0.7039
Er21     Er     0.0461   0.7981   0.7458
Er22     Er     0.0481   0.7961   0.0042
Er23     Er     0.2961   0.4958   0.9519
Er24     Er     0.2981   0.7542   0.9539
Er25     Er     0.5461   0.7019   0.2542
Er26     Er     0.5481   0.7039   0.9958
Er27     Er     0.7019   0.2542   0.5461
Er28     Er     0.7039   0.9958   0.5481
Er29     Er     0.7981   0.7458   0.0461
Er30     Er     0.7961   0.0042   0.0481
Er31     Er     0.4958   0.9519   0.2961
Er32     Er     0.7542   0.9539   0.2981
loop_
_geom_bond_atom_site_label_1
_geom_bond_atom_site_label_2
_geom_bond_distance
_geom_bond_site_symmetry_2
_ccdc_geom_bond_type
V1     V2    9.999   .     S
V1     Er10    10.0   .     S
V1     Er12    10.0   .     S
V1     Er14    10.0   .     S
V2     Er16    10.0   1_554     S
V2     Er22    10.0   1_545     S
V2     Er30    10.0   1_455     S
V3     V4    9.999   .     S
V3     Er11    10.0   1_655     S
V3     Er17    10.0   .     S
V3     Er20    10.0   .     S
V4     Er25    10.0   .     S
V4     Er29    10.0   .     S
V4     Er32    10.0   .     S
V5     V6    9.999   .     S
V5     Er9    10.0   1_556     S
V5     Er23    10.0   .     S
V5     Er26    10.0   .     S
V6     Er15    10.0   .     S
V6     Er18    10.0   .     S
V6     Er27    10.0   .     S
V7     V8    9.999   .     S
V7     Er13    10.0   1_565     S
V7     Er28    10.0   .     S
V7     Er31    10.0   .     S
V8     Er19    10.0   .     S
V8     Er21    10.0   .     S
V8     Er24    10.0   .     S
Er9     V5    10.0   1_554     S
Er9     Er10    10.0   .     S
Er9     Er25    10.0   .     S
Er9     Er14    10.0   .     S
Er10     Er23    10.0   1_554     S
Er10     Er11    10.0   .     S
Er11     V3    10.0   1_455     S
Er11     Er12    10.0   .     S
Er11     Er19    10.0   .     S
Er12     Er17    10.0   1_455     S
Er12     Er13    10.0   .     S
Er13     V7    10.0   1_545     S
Er13     Er14    10.0   .     S
Er13     Er27    10.0   .     S
Er14     Er31    10.0   1_545     S
Er15     Er16    10.0   1_655     S
Er15     Er30    10.0   1_556     S
Er15     Er28    10.0   1_545     S
Er16     V2    10.0   1_556     S
Er16     Er15    10.0   1_455     S
Er16     Er18    10.0   1_455     S
Er16     Er21    10.0   1_545     S
Er17     Er12    10.0   1_655     S
Er17     Er18    10.0   .     S
Er17     Er27    10.0   .     S
Er18     Er16    10.0   1_655     S
Er18     Er20    10.0   .     S
Er19     Er20    10.0   1_455     S
Er19     Er23    10.0   .     S
Er20     Er19    10.0   1_655     S
Er20     Er21    10.0   1_655     S
Er21     Er22    10.0   1_556     S
Er21     Er16    10.0   1_565     S
Er21     Er20    10.0   1_455     S
Er22     V2    10.0   1_565     S
Er22     Er21    10.0   1_554     S
Er22     Er24    10.0   1_554     S
Er22     Er29    10.0   1_455     S
Er23     Er10    10.0   1_556     S
Er23     Er24    10.0   .     S
Er24     Er22    10.0   1_556     S
Er24     Er26    10.0   .     S
Er25     Er26    10.0   1_554     S
Er25     Er31    10.0   .     S
Er26     Er25    10.0   1_556     S
Er26     Er29    10.0   1_556     S
Er27     Er28    10.0   1_545     S
Er28     Er27    10.0   1_565     S
Er28     Er32    10.0   .     S
Er28     Er15    10.0   1_565     S
Er29     Er30    10.0   1_565     S
Er29     Er22    10.0   1_655     S
Er29     Er26    10.0   1_554     S
Er30     Er15    10.0   1_554     S
Er30     V2    10.0   1_655     S
Er30     Er29    10.0   1_545     S
Er30     Er32    10.0   1_545     S
Er31     Er14    10.0   1_565     S
Er31     Er32    10.0   .     S
Er32     Er30    10.0   1_565     S
