data_bcy
_audit_creation_date              2020-02-02
_audit_creation_method            'Pymatgen'
_symmetry_space_group_name_H-M    'P1'
_symmetry_Int_Tables_number       1
loop_
_symmetry_equiv_pos_as_xyz
  x,y,z
_cell_length_a                    62.1693
_cell_length_b                    62.1693
_cell_length_c                    33.001
_cell_angle_alpha                 90.0
_cell_angle_beta                 90.0
_cell_angle_gamma                 120.0
loop_
_atom_site_label
_atom_site_type_symbol
_atom_site_fract_x
_atom_site_fract_y
_atom_site_fract_z
V1     V     0.0   0.5089   0.25
Er2     Er     0.0923   0.4158   0.266
Er3     Er     0.9077   0.3234   0.234
V4     V     0.8244   0.1578   0.9167
Er5     Er     0.0099   0.2509   0.9006
Er6     Er     0.9176   0.3432   0.9327
V7     V     0.1756   0.3333   0.5833
Er8     Er     0.0824   0.4257   0.5673
Er9     Er     0.9901   0.241   0.5994
V10     V     0.0   0.4911   0.75
Er11     Er     0.9077   0.5842   0.734
Er12     Er     0.0923   0.6766   0.766
V13     V     0.1756   0.8422   0.0833
Er14     Er     0.0824   0.6568   0.0673
Er15     Er     0.9901   0.7491   0.0993
V16     V     0.8244   0.6667   0.4167
Er17     Er     0.0099   0.759   0.4006
Er18     Er     0.9176   0.5743   0.4327
V19     V     0.4911   0.4911   0.25
Er20     Er     0.6766   0.5842   0.234
Er21     Er     0.5842   0.6766   0.266
V22     V     0.8422   0.6667   0.9167
Er23     Er     0.7491   0.759   0.9006
Er24     Er     0.6568   0.5743   0.9327
V25     V     0.6667   0.8422   0.5833
Er26     Er     0.759   0.7491   0.5994
Er27     Er     0.5743   0.6568   0.5673
V28     V     0.5089   0.5089   0.75
Er29     Er     0.4158   0.3234   0.734
Er30     Er     0.3234   0.4158   0.766
V31     V     0.1578   0.3333   0.0833
Er32     Er     0.3432   0.4257   0.0673
Er33     Er     0.2509   0.241   0.0993
V34     V     0.3333   0.1578   0.4167
Er35     Er     0.241   0.2509   0.4006
Er36     Er     0.4257   0.3432   0.4327
V37     V     0.5089   0.0   0.25
Er38     Er     0.4158   0.0923   0.234
Er39     Er     0.3234   0.9077   0.266
V40     V     0.3333   0.1756   0.9167
Er41     Er     0.241   0.9901   0.9006
Er42     Er     0.4257   0.0824   0.9327
V43     V     0.1578   0.8244   0.5833
Er44     Er     0.3432   0.9176   0.5673
Er45     Er     0.2509   0.0099   0.5994
V46     V     0.4911   0.0   0.75
Er47     Er     0.6766   0.0923   0.734
Er48     Er     0.5842   0.9077   0.766
V49     V     0.6667   0.8244   0.0833
Er50     Er     0.759   0.0099   0.0993
Er51     Er     0.5743   0.9176   0.0673
V52     V     0.8422   0.1756   0.4167
Er53     Er     0.6568   0.0824   0.4327
Er54     Er     0.7491   0.9901   0.4006
loop_
_geom_bond_atom_site_label_1
_geom_bond_atom_site_label_2
_geom_bond_distance
_geom_bond_site_symmetry_2
_ccdc_geom_bond_type
V1     Er2    10.0   .     S
V1     Er3    10.0   1_455     S
V1     Er14    10.0   .     S
V1     Er18    10.0   1_455     S
Er2     Er3    10.0   1_455     S
Er2     Er8    10.0   .     S
Er2     V31    10.0   .     S
Er3     V1    10.0   1_655     S
Er3     Er2    10.0   1_655     S
Er3     Er6    10.0   1_554     S
Er3     V52    10.0   .     S
V4     Er6    10.0   .     S
V4     Er5    10.0   1_655     S
V4     Er47    10.0   .     S
V4     Er50    10.0   1_556     S
Er5     V4    10.0   1_455     S
Er5     Er6    10.0   1_455     S
Er5     Er9    10.0   1_455     S
Er5     V31    10.0   1_556     S
Er6     Er3    10.0   1_556     S
Er6     Er5    10.0   1_655     S
Er6     V10    10.0   1_655     S
V7     Er8    10.0   .     S
V7     Er9    10.0   1_455     S
V7     Er35    10.0   .     S
V7     Er30    10.0   .     S
Er8     Er9    10.0   1_455     S
Er8     V10    10.0   .     S
Er9     V7    10.0   1_655     S
Er9     Er8    10.0   1_655     S
Er9     Er5    10.0   1_655     S
Er9     V52    10.0   .     S
V10     Er11    10.0   1_455     S
V10     Er12    10.0   .     S
V10     Er6    10.0   1_455     S
Er11     V10    10.0   1_655     S
Er11     Er12    10.0   1_655     S
Er11     Er18    10.0   .     S
Er11     V22    10.0   .     S
Er12     Er11    10.0   1_455     S
Er12     Er14    10.0   1_556     S
Er12     V43    10.0   .     S
V13     Er14    10.0   .     S
V13     Er15    10.0   1_455     S
V13     Er39    10.0   .     S
V13     Er41    10.0   1_554     S
Er14     Er12    10.0   1_554     S
Er14     Er15    10.0   1_455     S
Er15     V13    10.0   1_655     S
Er15     Er14    10.0   1_655     S
Er15     Er17    10.0   1_655     S
Er15     V22    10.0   1_554     S
V16     Er18    10.0   .     S
V16     Er17    10.0   1_655     S
V16     Er26    10.0   .     S
V16     Er20    10.0   .     S
Er17     V16    10.0   1_455     S
Er17     Er18    10.0   1_455     S
Er17     Er15    10.0   1_455     S
Er17     V43    10.0   .     S
Er18     V1    10.0   1_655     S
Er18     Er17    10.0   1_655     S
V19     Er20    10.0   .     S
V19     Er21    10.0   .     S
V19     Er36    10.0   .     S
V19     Er32    10.0   .     S
Er20     Er21    10.0   .     S
Er20     Er24    10.0   1_554     S
Er21     Er27    10.0   .     S
Er21     V49    10.0   .     S
V22     Er23    10.0   .     S
V22     Er24    10.0   .     S
V22     Er15    10.0   1_556     S
Er23     Er24    10.0   .     S
Er23     Er26    10.0   .     S
Er23     V49    10.0   1_556     S
Er24     Er20    10.0   1_556     S
Er24     V28    10.0   .     S
V25     Er26    10.0   .     S
V25     Er27    10.0   .     S
V25     Er48    10.0   .     S
V25     Er54    10.0   .     S
Er26     Er27    10.0   .     S
Er27     V28    10.0   .     S
V28     Er30    10.0   .     S
V28     Er29    10.0   .     S
Er29     Er30    10.0   .     S
Er29     Er36    10.0   .     S
Er29     V40    10.0   .     S
Er30     Er32    10.0   1_556     S
V31     Er33    10.0   .     S
V31     Er32    10.0   .     S
V31     Er5    10.0   1_554     S
Er32     Er30    10.0   1_554     S
Er32     Er33    10.0   .     S
Er33     Er35    10.0   .     S
Er33     V40    10.0   1_554     S
V34     Er35    10.0   .     S
V34     Er36    10.0   .     S
V34     Er45    10.0   .     S
V34     Er38    10.0   .     S
Er35     Er36    10.0   .     S
V37     Er39    10.0   1_545     S
V37     Er38    10.0   .     S
V37     Er53    10.0   .     S
V37     Er51    10.0   1_545     S
Er38     Er39    10.0   1_545     S
Er38     Er42    10.0   1_554     S
Er39     V37    10.0   1_565     S
Er39     Er38    10.0   1_565     S
Er39     Er44    10.0   .     S
V40     Er42    10.0   .     S
V40     Er41    10.0   1_545     S
V40     Er33    10.0   1_556     S
Er41     V13    10.0   1_556     S
Er41     V40    10.0   1_565     S
Er41     Er42    10.0   1_565     S
Er41     Er45    10.0   1_565     S
Er42     Er41    10.0   1_545     S
Er42     Er38    10.0   1_556     S
Er42     V46    10.0   .     S
V43     Er44    10.0   .     S
V43     Er45    10.0   1_565     S
Er44     Er45    10.0   1_565     S
Er44     V46    10.0   1_565     S
Er45     V43    10.0   1_545     S
Er45     Er44    10.0   1_545     S
Er45     Er41    10.0   1_545     S
V46     Er48    10.0   1_545     S
V46     Er47    10.0   .     S
V46     Er44    10.0   1_545     S
Er47     Er48    10.0   1_545     S
Er47     Er53    10.0   .     S
Er48     V46    10.0   1_565     S
Er48     Er47    10.0   1_565     S
Er48     Er51    10.0   1_556     S
V49     Er51    10.0   .     S
V49     Er50    10.0   1_565     S
V49     Er23    10.0   1_554     S
Er50     V4    10.0   1_554     S
Er50     V49    10.0   1_545     S
Er50     Er51    10.0   1_545     S
Er50     Er54    10.0   1_545     S
Er51     V37    10.0   1_565     S
Er51     Er48    10.0   1_554     S
Er51     Er50    10.0   1_565     S
V52     Er54    10.0   1_545     S
V52     Er53    10.0   .     S
Er53     Er54    10.0   1_545     S
Er54     V52    10.0   1_565     S
Er54     Er53    10.0   1_565     S
Er54     Er50    10.0   1_565     S
