data_bcz
_audit_creation_date              2020-02-02
_audit_creation_method            'Pymatgen'
_symmetry_space_group_name_H-M    'P1'
_symmetry_Int_Tables_number       1
loop_
_symmetry_equiv_pos_as_xyz
  x,y,z
_cell_length_a                    37.9768
_cell_length_b                    37.9768
_cell_length_c                    37.9768
_cell_angle_alpha                 90.0
_cell_angle_beta                 90.0
_cell_angle_gamma                 90.0
loop_
_atom_site_label
_atom_site_type_symbol
_atom_site_fract_x
_atom_site_fract_y
_atom_site_fract_z
V1     V     0.2675   0.9825   0.625
V2     V     0.375   0.7675   0.5175
V3     V     0.4825   0.875   0.7325
V4     V     0.9825   0.625   0.2675
V5     V     0.7675   0.5175   0.375
V6     V     0.875   0.7325   0.4825
V7     V     0.5175   0.375   0.7675
V8     V     0.7325   0.4825   0.875
V9     V     0.625   0.2675   0.9825
V10     V     0.2325   0.0175   0.125
V11     V     0.125   0.2325   0.0175
V12     V     0.0175   0.125   0.2325
Er13     Er     0.6927   0.0117   0.6521
Er14     Er     0.5979   0.2383   0.5573
Er15     Er     0.4427   0.0979   0.2617
Er16     Er     0.3479   0.1927   0.4883
Er17     Er     0.7383   0.9427   0.4021
Er18     Er     0.5117   0.8479   0.3073
Er19     Er     0.0117   0.6521   0.6927
Er20     Er     0.2383   0.5573   0.5979
Er21     Er     0.0979   0.2617   0.4427
Er22     Er     0.1927   0.4883   0.3479
Er23     Er     0.9427   0.4021   0.7383
Er24     Er     0.8479   0.3073   0.5117
Er25     Er     0.1521   0.8073   0.9883
Er26     Er     0.0573   0.9021   0.7617
Er27     Er     0.9883   0.1521   0.8073
Er28     Er     0.7617   0.0573   0.9021
Er29     Er     0.8073   0.9883   0.1521
Er30     Er     0.9021   0.7617   0.0573
Er31     Er     0.6521   0.6927   0.0117
Er32     Er     0.5573   0.5979   0.2383
Er33     Er     0.4883   0.3479   0.1927
Er34     Er     0.2617   0.4427   0.0979
Er35     Er     0.4021   0.7383   0.9427
Er36     Er     0.3073   0.5117   0.8479
loop_
_geom_bond_atom_site_label_1
_geom_bond_atom_site_label_2
_geom_bond_distance
_geom_bond_site_symmetry_2
_ccdc_geom_bond_type
V1     Er16    10.0   1_565     S
V1     Er26    10.0   .     S
V1     V3    10.0   .     S
V1     V2    10.0   .     S
V2     Er18    10.0   .     S
V2     Er20    10.0   .     S
V2     V3    10.0   .     S
V3     Er35    10.0   .     S
V3     Er13    10.0   1_565     S
V4     Er22    10.0   1_655     S
V4     Er30    10.0   .     S
V4     V6    10.0   .     S
V4     V5    10.0   .     S
V5     Er24    10.0   .     S
V5     Er32    10.0   .     S
V5     V6    10.0   .     S
V6     Er17    10.0   .     S
V6     Er19    10.0   1_655     S
V7     Er36    10.0   .     S
V7     Er14    10.0   .     S
V7     V9    10.0   .     S
V7     V8    10.0   .     S
V8     Er23    10.0   .     S
V8     Er31    10.0   1_556     S
V8     V9    10.0   .     S
V9     Er33    10.0   1_556     S
V9     Er28    10.0   .     S
V10     Er15    10.0   .     S
V10     Er25    10.0   1_544     S
V10     V12    10.0   .     S
V10     V11    10.0   .     S
V11     Er34    10.0   .     S
V11     Er27    10.0   1_454     S
V11     V12    10.0   .     S
V12     Er21    10.0   .     S
V12     Er29    10.0   1_445     S
Er13     V3    10.0   1_545     S
Er13     Er28    10.0   .     S
Er13     Er14    10.0   .     S
Er13     Er17    10.0   1_545     S
Er14     Er16    10.0   .     S
Er14     Er24    10.0   .     S
Er15     Er18    10.0   1_545     S
Er15     Er16    10.0   .     S
Er15     Er33    10.0   .     S
Er16     V1    10.0   1_545     S
Er16     Er21    10.0   .     S
Er17     Er13    10.0   1_565     S
Er17     Er18    10.0   .     S
Er17     Er29    10.0   .     S
Er18     Er15    10.0   1_565     S
Er18     Er32    10.0   .     S
Er19     V6    10.0   1_455     S
Er19     Er26    10.0   .     S
Er19     Er20    10.0   .     S
Er19     Er23    10.0   1_455     S
Er20     Er22    10.0   .     S
Er20     Er36    10.0   .     S
Er21     Er24    10.0   1_455     S
Er21     Er22    10.0   .     S
Er22     V4    10.0   1_455     S
Er22     Er34    10.0   .     S
Er23     Er19    10.0   1_655     S
Er23     Er24    10.0   .     S
Er23     Er27    10.0   .     S
Er24     Er21    10.0   1_655     S
Er25     V10    10.0   1_566     S
Er25     Er35    10.0   .     S
Er25     Er26    10.0   .     S
Er25     Er30    10.0   1_456     S
Er26     Er27    10.0   1_465     S
Er27     V11    10.0   1_656     S
Er27     Er26    10.0   1_645     S
Er27     Er28    10.0   .     S
Er28     Er29    10.0   1_546     S
Er29     V12    10.0   1_665     S
Er29     Er28    10.0   1_564     S
Er29     Er30    10.0   .     S
Er30     Er25    10.0   1_654     S
Er30     Er31    10.0   .     S
Er31     V8    10.0   1_554     S
Er31     Er32    10.0   .     S
Er31     Er35    10.0   1_554     S
Er32     Er33    10.0   .     S
Er33     V9    10.0   1_554     S
Er33     Er34    10.0   .     S
Er34     Er36    10.0   1_554     S
Er35     Er31    10.0   1_556     S
Er35     Er36    10.0   .     S
Er36     Er34    10.0   1_556     S
