data_bele
_audit_creation_date              2020-02-02
_audit_creation_method            'Pymatgen'
_symmetry_space_group_name_H-M    'P1'
_symmetry_Int_Tables_number       1
loop_
_symmetry_equiv_pos_as_xyz
  x,y,z
_cell_length_a                    27.2473
_cell_length_b                    27.2473
_cell_length_c                    26.3299
_cell_angle_alpha                 90.0
_cell_angle_beta                 90.0
_cell_angle_gamma                 120.0
loop_
_atom_site_label
_atom_site_type_symbol
_atom_site_fract_x
_atom_site_fract_y
_atom_site_fract_z
Ti1     Ti     0.2447   0.1223   0.3101
Ti2     Ti     0.8777   0.1223   0.3101
Ti3     Ti     0.8777   0.7553   0.3101
Er4     Er     0.9113   0.4557   0.5
Er5     Er     0.5443   0.4557   0.5
Er6     Er     0.5443   0.0887   0.5
Ti7     Ti     0.2447   0.1223   0.6899
Ti8     Ti     0.8777   0.1223   0.6899
Ti9     Ti     0.8777   0.7553   0.6899
V10     V     0.0   0.0   0.0
loop_
_geom_bond_atom_site_label_1
_geom_bond_atom_site_label_2
_geom_bond_distance
_geom_bond_site_symmetry_2
_ccdc_geom_bond_type
Ti1     Ti7    10.0   .     S
Ti1     Er6    10.0   .     S
Ti1     Er5    10.0   .     S
Ti1     Ti2    10.0   1_455     S
Ti1     Ti3    10.0   1_445     S
Ti1     V10    10.0   .     S
Ti2     Ti1    10.0   1_655     S
Ti2     Ti3    10.0   1_545     S
Ti2     V10    10.0   1_655     S
Ti2     Ti8    10.0   .     S
Ti2     Er4    10.0   .     S
Ti2     Er6    10.0   .     S
Ti3     Ti2    10.0   1_565     S
Ti3     Ti1    10.0   1_665     S
Ti3     V10    10.0   1_665     S
Ti3     Er5    10.0   .     S
Ti3     Er4    10.0   .     S
Ti3     Ti9    10.0   .     S
Er4     Ti9    10.0   .     S
Er4     Er6    10.0   .     S
Er4     Er5    10.0   .     S
Er4     Ti8    10.0   .     S
Er5     Ti7    10.0   .     S
Er5     Ti9    10.0   .     S
Er5     Er6    10.0   .     S
Er6     Ti7    10.0   .     S
Er6     Ti8    10.0   .     S
Ti7     Ti8    10.0   1_455     S
Ti7     Ti9    10.0   1_445     S
Ti7     V10    10.0   1_556     S
Ti8     Ti7    10.0   1_655     S
Ti8     Ti9    10.0   1_545     S
Ti8     V10    10.0   1_656     S
Ti9     Ti8    10.0   1_565     S
Ti9     Ti7    10.0   1_665     S
Ti9     V10    10.0   1_666     S
V10     Ti2    10.0   1_455     S
V10     Ti3    10.0   1_445     S
V10     Ti9    10.0   1_444     S
V10     Ti7    10.0   1_554     S
V10     Ti8    10.0   1_454     S
