data_bik
_audit_creation_date              2020-02-02
_audit_creation_method            'Pymatgen'
_symmetry_space_group_name_H-M    'P1'
_symmetry_Int_Tables_number       1
loop_
_symmetry_equiv_pos_as_xyz
  x,y,z
_cell_length_a                    23.503
_cell_length_b                    50.8686
_cell_length_c                    16.7244
_cell_angle_alpha                 90.0
_cell_angle_beta                 90.0
_cell_angle_gamma                 90.0
loop_
_atom_site_label
_atom_site_type_symbol
_atom_site_fract_x
_atom_site_fract_y
_atom_site_fract_z
Er1     Er     0.0   0.4461   0.75
Er2     Er     0.0   0.5539   0.25
V3     V     0.7873   0.1989   0.25
V4     V     0.7127   0.3011   0.75
V5     V     0.2127   0.1989   0.25
V6     V     0.2873   0.3011   0.75
Er7     Er     0.5   0.9461   0.75
Er8     Er     0.5   0.0539   0.25
V9     V     0.7127   0.6989   0.25
V10     V     0.7873   0.8011   0.75
V11     V     0.2873   0.6989   0.25
V12     V     0.2127   0.8011   0.75
loop_
_geom_bond_atom_site_label_1
_geom_bond_atom_site_label_2
_geom_bond_distance
_geom_bond_site_symmetry_2
_ccdc_geom_bond_type
Er1     Er2    10.0   .     S
Er1     Er2    10.0   1_556     S
Er1     V4    10.0   1_455     S
Er1     V6    10.0   .     S
Er2     Er1    10.0   1_554     S
Er2     V9    10.0   1_455     S
Er2     V11    10.0   .     S
V3     V4    10.0   .     S
V3     V4    10.0   1_554     S
V3     V5    10.0   1_655     S
V3     Er8    10.0   .     S
V4     V3    10.0   1_556     S
V4     V6    10.0   .     S
V4     Er1    10.0   1_655     S
V5     V6    10.0   1_554     S
V5     V6    10.0   .     S
V5     V3    10.0   1_455     S
V5     Er8    10.0   .     S
V6     V5    10.0   1_556     S
Er7     Er8    10.0   1_565     S
Er7     Er8    10.0   1_566     S
Er7     V12    10.0   .     S
Er7     V10    10.0   .     S
Er8     Er7    10.0   1_545     S
Er8     Er7    10.0   1_544     S
V9     V10    10.0   .     S
V9     V10    10.0   1_554     S
V9     V11    10.0   .     S
V9     Er2    10.0   1_655     S
V10     V9    10.0   1_556     S
V10     V12    10.0   1_655     S
V11     V12    10.0   .     S
V11     V12    10.0   1_554     S
V12     V11    10.0   1_556     S
V12     V10    10.0   1_455     S
