data_bnnt
_audit_creation_date              2020-02-02
_audit_creation_method            'Pymatgen'
_symmetry_space_group_name_H-M    'P1'
_symmetry_Int_Tables_number       1
loop_
_symmetry_equiv_pos_as_xyz
  x,y,z
_cell_length_a                    63.1803
_cell_length_b                    63.1803
_cell_length_c                    49.9654
_cell_angle_alpha                 90.0
_cell_angle_beta                 90.0
_cell_angle_gamma                 120.0
loop_
_atom_site_label
_atom_site_type_symbol
_atom_site_fract_x
_atom_site_fract_y
_atom_site_fract_z
Ti1     Ti     0.5084   0.3333   0.3999
Ti2     Ti     0.6667   0.4916   0.3999
Ti3     Ti     0.5084   0.3333   0.6001
Ti4     Ti     0.6667   0.4916   0.6001
Ti5     Ti     0.175   0.5084   0.6001
Ti6     Ti     0.175   0.5084   0.3999
Ti7     Ti     0.3333   0.825   0.3999
Ti8     Ti     0.4916   0.825   0.3999
Ti9     Ti     0.3333   0.825   0.6001
Ti10     Ti     0.4916   0.825   0.6001
Ti11     Ti     0.175   0.6667   0.6001
Ti12     Ti     0.175   0.6667   0.3999
Ti13     Ti     0.3333   0.5084   0.3999
Ti14     Ti     0.4916   0.6667   0.3999
Ti15     Ti     0.3333   0.5084   0.6001
Ti16     Ti     0.4916   0.6667   0.6001
V17     V     0.6248   0.0914   0.222
V18     V     0.5334   0.9086   0.222
Er19     Er     0.7503   0.0914   0.1001
Er20     Er     0.659   0.9086   0.1001
Er21     Er     0.7503   0.0914   0.8999
Er22     Er     0.659   0.9086   0.8999
V23     V     0.6248   0.0914   0.778
V24     V     0.5334   0.9086   0.778
Er25     Er     0.341   0.0914   0.1001
Er26     Er     0.2497   0.9086   0.1001
V27     V     0.3752   0.9086   0.222
V28     V     0.4666   0.0914   0.222
Er29     Er     0.2497   0.9086   0.8999
Er30     Er     0.341   0.0914   0.8999
V31     V     0.3752   0.9086   0.778
V32     V     0.4666   0.0914   0.778
Er33     Er     0.2497   0.341   0.1001
Er34     Er     0.341   0.2497   0.1001
V35     V     0.3752   0.4666   0.222
V36     V     0.4666   0.3752   0.222
V37     V     0.3752   0.4666   0.778
V38     V     0.4666   0.3752   0.778
Er39     Er     0.2497   0.341   0.8999
Er40     Er     0.341   0.2497   0.8999
V41     V     0.9086   0.3752   0.222
V42     V     0.0914   0.4666   0.222
Er43     Er     0.0914   0.341   0.1001
Er44     Er     0.9086   0.2497   0.1001
V45     V     0.9086   0.3752   0.778
V46     V     0.0914   0.4666   0.778
Er47     Er     0.0914   0.341   0.8999
Er48     Er     0.9086   0.2497   0.8999
Er49     Er     0.7503   0.659   0.1001
Er50     Er     0.659   0.7503   0.1001
V51     V     0.6248   0.5334   0.222
V52     V     0.5334   0.6248   0.222
Er53     Er     0.7503   0.659   0.8999
Er54     Er     0.659   0.7503   0.8999
V55     V     0.6248   0.5334   0.778
V56     V     0.5334   0.6248   0.778
V57     V     0.9086   0.5334   0.222
V58     V     0.0914   0.6248   0.222
Er59     Er     0.0914   0.7503   0.1001
Er60     Er     0.9086   0.659   0.1001
V61     V     0.9086   0.5334   0.778
V62     V     0.0914   0.6248   0.778
Er63     Er     0.0914   0.7503   0.8999
Er64     Er     0.9086   0.659   0.8999
Ti65     Ti     0.825   0.4916   0.3999
Ti66     Ti     0.825   0.3333   0.3999
Ti67     Ti     0.825   0.4916   0.6001
Ti68     Ti     0.825   0.3333   0.6001
Ti69     Ti     0.6667   0.175   0.6001
Ti70     Ti     0.6667   0.175   0.3999
Ti71     Ti     0.5084   0.175   0.3999
Ti72     Ti     0.5084   0.175   0.6001
loop_
_geom_bond_atom_site_label_1
_geom_bond_atom_site_label_2
_geom_bond_distance
_geom_bond_site_symmetry_2
_ccdc_geom_bond_type
Ti1     Ti2    10.0   .     S
Ti1     V36    10.0   .     S
Ti1     Ti3    10.0   .     S
Ti1     Ti71    10.001   .     S
Ti2     V51    10.0   .     S
Ti2     Ti4    10.0   .     S
Ti2     Ti65    10.001   .     S
Ti3     Ti4    10.0   .     S
Ti3     V38    10.0   .     S
Ti3     Ti72    10.001   .     S
Ti4     V55    10.0   .     S
Ti4     Ti67    10.001   .     S
Ti5     Ti11    10.0   .     S
Ti5     V46    10.0   .     S
Ti5     Ti6    10.0   .     S
Ti5     Ti15    10.001   .     S
Ti6     V42    10.0   .     S
Ti6     Ti12    10.0   .     S
Ti6     Ti13    10.001   .     S
Ti7     Ti8    10.0   .     S
Ti7     V27    10.0   .     S
Ti7     Ti9    10.0   .     S
Ti7     Ti12    10.001   .     S
Ti8     V18    10.0   .     S
Ti8     Ti10    10.0   .     S
Ti8     Ti14    10.001   .     S
Ti9     Ti10    10.0   .     S
Ti9     V31    10.0   .     S
Ti9     Ti11    10.001   .     S
Ti10     V24    10.0   .     S
Ti10     Ti16    10.001   .     S
Ti11     V62    10.0   .     S
Ti11     Ti12    10.0   .     S
Ti12     V58    10.0   .     S
Ti13     Ti14    10.0   .     S
Ti13     V35    10.0   .     S
Ti13     Ti15    10.0   .     S
Ti14     V52    10.0   .     S
Ti14     Ti16    10.0   .     S
Ti15     Ti16    10.0   .     S
Ti15     V37    10.0   .     S
Ti16     V56    10.0   .     S
V17     Er19    10.0   .     S
V17     V18    10.0   1_545     S
V17     V28    10.0   .     S
V17     Ti70    10.0   .     S
V18     Er20    10.0   .     S
V18     V17    10.0   1_565     S
V18     V27    10.0   .     S
Er19     Er20    10.0   1_545     S
Er19     Er21    10.0   1_554     S
Er19     Er44    10.0   .     S
Er20     Er19    10.0   1_565     S
Er20     Er22    10.0   1_554     S
Er20     Er50    10.0   .     S
Er21     Er22    10.0   1_545     S
Er21     V23    10.0   .     S
Er21     Er19    10.0   1_556     S
Er21     Er48    10.0   .     S
Er22     Er21    10.0   1_565     S
Er22     V24    10.0   .     S
Er22     Er20    10.0   1_556     S
Er22     Er54    10.0   .     S
V23     V24    10.0   1_545     S
V23     V32    10.0   .     S
V23     Ti69    10.0   .     S
V24     V23    10.0   1_565     S
V24     V31    10.0   .     S
Er25     Er26    10.0   1_545     S
Er25     V28    10.0   .     S
Er25     Er30    10.0   1_554     S
Er25     Er34    10.0   .     S
Er26     Er25    10.0   1_565     S
Er26     V27    10.0   .     S
Er26     Er29    10.0   1_554     S
Er26     Er59    10.0   .     S
V27     V28    10.0   1_565     S
V28     V27    10.0   1_545     S
V28     Ti71    10.0   .     S
Er29     Er30    10.0   1_565     S
Er29     V31    10.0   .     S
Er29     Er26    10.0   1_556     S
Er29     Er63    10.0   .     S
Er30     Er29    10.0   1_545     S
Er30     V32    10.0   .     S
Er30     Er25    10.0   1_556     S
Er30     Er40    10.0   .     S
V31     V32    10.0   1_565     S
V32     V31    10.0   1_545     S
V32     Ti72    10.0   .     S
Er33     Er34    10.0   .     S
Er33     V35    10.0   .     S
Er33     Er39    10.0   1_554     S
Er33     Er43    10.0   .     S
Er34     V36    10.0   .     S
Er34     Er40    10.0   1_554     S
V35     V36    10.0   .     S
V35     V52    10.0   .     S
V36     V51    10.0   .     S
V37     Er39    10.0   .     S
V37     V38    10.0   .     S
V37     V56    10.0   .     S
V38     Er40    10.0   .     S
V38     V55    10.0   .     S
Er39     Er40    10.0   .     S
Er39     Er33    10.0   1_556     S
Er39     Er47    10.0   .     S
Er40     Er34    10.0   1_556     S
V41     Er44    10.0   .     S
V41     V42    10.0   1_655     S
V41     V57    10.0   .     S
V41     Ti66    10.0   .     S
V42     Er43    10.0   .     S
V42     V41    10.0   1_455     S
V42     V58    10.0   .     S
Er43     Er44    10.0   1_455     S
Er43     Er47    10.0   1_554     S
Er44     Er43    10.0   1_655     S
Er44     Er48    10.0   1_554     S
V45     Er48    10.0   .     S
V45     V46    10.0   1_655     S
V45     V61    10.0   .     S
V45     Ti68    10.0   .     S
V46     Er47    10.0   .     S
V46     V45    10.0   1_455     S
V46     V62    10.0   .     S
Er47     Er48    10.0   1_455     S
Er47     Er43    10.0   1_556     S
Er48     Er47    10.0   1_655     S
Er48     Er44    10.0   1_556     S
Er49     Er50    10.0   .     S
Er49     V51    10.0   .     S
Er49     Er53    10.0   1_554     S
Er49     Er60    10.0   .     S
Er50     V52    10.0   .     S
Er50     Er54    10.0   1_554     S
V51     V52    10.0   .     S
Er53     Er54    10.0   .     S
Er53     V55    10.0   .     S
Er53     Er49    10.0   1_556     S
Er53     Er64    10.0   .     S
Er54     V56    10.0   .     S
Er54     Er50    10.0   1_556     S
V55     V56    10.0   .     S
V57     Er60    10.0   .     S
V57     V58    10.0   1_655     S
V57     Ti65    10.0   .     S
V58     Er59    10.0   .     S
V58     V57    10.0   1_455     S
Er59     Er60    10.0   1_455     S
Er59     Er63    10.0   1_554     S
Er60     Er59    10.0   1_655     S
Er60     Er64    10.0   1_554     S
V61     Er64    10.0   .     S
V61     V62    10.0   1_655     S
V61     Ti67    10.0   .     S
V62     Er63    10.0   .     S
V62     V61    10.0   1_455     S
Er63     Er64    10.0   1_455     S
Er63     Er59    10.0   1_556     S
Er64     Er63    10.0   1_655     S
Er64     Er60    10.0   1_556     S
Ti65     Ti66    10.0   .     S
Ti65     Ti67    10.0   .     S
Ti66     Ti70    10.001   .     S
Ti66     Ti68    10.0   .     S
Ti67     Ti68    10.0   .     S
Ti68     Ti69    10.001   .     S
Ti69     Ti72    10.0   .     S
Ti69     Ti70    10.0   .     S
Ti70     Ti71    10.0   .     S
Ti71     Ti72    10.0   .     S
