data_bow
_audit_creation_date              2020-02-02
_audit_creation_method            'Pymatgen'
_symmetry_space_group_name_H-M    'P1'
_symmetry_Int_Tables_number       1
loop_
_symmetry_equiv_pos_as_xyz
  x,y,z
_cell_length_a                    41.1948
_cell_length_b                    16.4741
_cell_length_c                    29.2548
_cell_angle_alpha                 90.0
_cell_angle_beta                 90.0
_cell_angle_gamma                 90.0
loop_
_atom_site_label
_atom_site_type_symbol
_atom_site_fract_x
_atom_site_fract_y
_atom_site_fract_z
V1     V     0.5   0.5   0.5
Er2     Er     0.2102   0.0   0.1709
Er3     Er     0.2102   0.0   0.8291
Er4     Er     0.2898   0.5   0.3291
Er5     Er     0.2898   0.5   0.6709
V6     V     0.0   0.0   0.0
Er7     Er     0.7102   0.5   0.3291
Er8     Er     0.7102   0.5   0.6709
Er9     Er     0.7898   0.0   0.1709
Er10     Er     0.7898   0.0   0.8291
loop_
_geom_bond_atom_site_label_1
_geom_bond_atom_site_label_2
_geom_bond_distance
_geom_bond_site_symmetry_2
_ccdc_geom_bond_type
V1     Er4    10.0   .     S
V1     Er8    10.0   .     S
V1     Er5    10.0   .     S
V1     Er7    10.0   .     S
Er2     Er3    10.0   1_554     S
Er2     Er4    10.0   .     S
Er2     Er4    10.0   1_545     S
Er2     V6    10.0   .     S
Er3     Er2    10.0   1_556     S
Er3     Er5    10.0   1_545     S
Er3     Er5    10.0   .     S
Er3     V6    10.0   1_556     S
Er4     Er2    10.0   1_565     S
Er4     Er5    10.0   .     S
Er5     Er3    10.0   1_565     S
V6     Er9    10.0   1_455     S
V6     Er3    10.0   1_554     S
V6     Er10    10.0   1_454     S
Er7     Er8    10.0   .     S
Er7     Er9    10.0   1_565     S
Er7     Er9    10.0   .     S
Er8     Er10    10.0   .     S
Er8     Er10    10.0   1_565     S
Er9     V6    10.0   1_655     S
Er9     Er10    10.0   1_554     S
Er9     Er7    10.0   1_545     S
Er10     V6    10.0   1_656     S
Er10     Er8    10.0   1_545     S
Er10     Er9    10.0   1_556     S
