data_bpc
_audit_creation_date              2020-02-02
_audit_creation_method            'Pymatgen'
_symmetry_space_group_name_H-M    'P1'
_symmetry_Int_Tables_number       1
loop_
_symmetry_equiv_pos_as_xyz
  x,y,z
_cell_length_a                    18.8594
_cell_length_b                    56.6307
_cell_length_c                    35.5179
_cell_angle_alpha                 90.0
_cell_angle_beta                 90.0
_cell_angle_gamma                 90.0
loop_
_atom_site_label
_atom_site_type_symbol
_atom_site_fract_x
_atom_site_fract_y
_atom_site_fract_z
Er1     Er     0.5   0.0558   0.8908
V2     V     0.5   0.2221   0.9849
Er3     Er     0.5   0.0558   0.6092
V4     V     0.5   0.2221   0.5151
Er5     Er     0.5   0.9442   0.3908
V6     V     0.5   0.7779   0.4849
Er7     Er     0.5   0.9442   0.1092
V8     V     0.5   0.7779   0.0151
Er9     Er     0.0   0.5558   0.8908
V10     V     0.0   0.7221   0.9849
Er11     Er     0.0   0.5558   0.6092
V12     V     0.0   0.7221   0.5151
Er13     Er     0.0   0.4442   0.3908
V14     V     0.0   0.2779   0.4849
Er15     Er     0.0   0.4442   0.1092
V16     V     0.0   0.2779   0.0151
loop_
_geom_bond_atom_site_label_1
_geom_bond_atom_site_label_2
_geom_bond_distance
_geom_bond_site_symmetry_2
_ccdc_geom_bond_type
Er1     V2    9.994   .     S
Er1     Er3    10.003   .     S
Er1     Er7    10.003   1_546     S
V2     V16    10.003   1_556     S
V2     V16    10.003   1_656     S
Er3     V4    9.994   .     S
Er3     Er5    10.003   1_545     S
V4     V14    10.003   1_655     S
V4     V14    10.003   .     S
Er5     V6    9.994   .     S
Er5     Er7    10.003   .     S
Er5     Er3    10.003   1_565     S
V6     V12    10.003   1_655     S
V6     V12    10.003   .     S
Er7     V8    9.994   .     S
Er7     Er1    10.003   1_564     S
V8     V10    10.003   1_554     S
V8     V10    10.003   1_654     S
Er9     V10    9.994   .     S
Er9     Er11    10.003   .     S
Er9     Er15    10.003   1_556     S
V10     V8    10.003   1_556     S
V10     V8    10.003   1_456     S
Er11     V12    9.994   .     S
Er11     Er13    10.003   .     S
V12     V6    10.003   1_455     S
Er13     V14    9.994   .     S
Er13     Er15    10.003   .     S
V14     V4    10.003   1_455     S
Er15     V16    9.994   .     S
Er15     Er9    10.003   1_554     S
V16     V2    10.003   1_554     S
V16     V2    10.003   1_454     S
