data_bpd
_audit_creation_date              2020-02-02
_audit_creation_method            'Pymatgen'
_symmetry_space_group_name_H-M    'P1'
_symmetry_Int_Tables_number       1
loop_
_symmetry_equiv_pos_as_xyz
  x,y,z
_cell_length_a                    59.1405
_cell_length_b                    27.1291
_cell_length_c                    25.2787
_cell_angle_alpha                 90.0
_cell_angle_beta                 90.0
_cell_angle_gamma                 90.0
loop_
_atom_site_label
_atom_site_type_symbol
_atom_site_fract_x
_atom_site_fract_y
_atom_site_fract_z
Er1     Er     0.4573   0.6283   0.6012
Er2     Er     0.0427   0.3717   0.6012
Er3     Er     0.4573   0.8717   0.8988
Er4     Er     0.0427   0.1283   0.8988
V5     V     0.1833   0.1132   0.1177
V6     V     0.1833   0.3868   0.3823
V7     V     0.3167   0.8868   0.1177
V8     V     0.3167   0.6132   0.3823
Er9     Er     0.5427   0.3717   0.3988
Er10     Er     0.5427   0.1283   0.1012
Er11     Er     0.9573   0.6283   0.3988
Er12     Er     0.9573   0.8717   0.1012
V13     V     0.8167   0.8868   0.8823
V14     V     0.8167   0.6132   0.6177
V15     V     0.6833   0.3868   0.6177
V16     V     0.6833   0.1132   0.8823
loop_
_geom_bond_atom_site_label_1
_geom_bond_atom_site_label_2
_geom_bond_distance
_geom_bond_site_symmetry_2
_ccdc_geom_bond_type
Er1     V8    9.996   .     S
Er1     Er9    10.007   .     S
Er1     Er3    10.011   .     S
Er2     V6    9.996   .     S
Er2     Er11    10.007   1_455     S
Er2     Er4    10.011   .     S
Er3     V7    9.996   1_556     S
Er3     Er10    10.007   1_566     S
Er4     V5    9.996   1_556     S
Er4     Er12    10.007   1_446     S
V5     Er4    9.996   1_554     S
V5     V6    9.993   .     S
V5     V7    9.996   1_545     S
V6     V8    9.996   .     S
V7     Er3    9.996   1_554     S
V7     V8    9.993   .     S
V7     V5    9.996   1_565     S
Er9     V15    9.996   .     S
Er9     Er10    10.011   .     S
Er10     V16    9.996   1_554     S
Er10     Er3    10.007   1_544     S
Er11     V14    9.996   .     S
Er11     Er2    10.007   1_655     S
Er11     Er12    10.011   .     S
Er12     Er4    10.007   1_664     S
Er12     V13    9.996   1_554     S
V13     Er12    9.996   1_556     S
V13     V14    9.993   .     S
V13     V16    9.996   1_565     S
V14     V15    9.996   .     S
V15     V16    9.993   .     S
V16     Er10    9.996   1_556     S
V16     V13    9.996   1_545     S
