data_bpl
_audit_creation_date              2020-02-02
_audit_creation_method            'Pymatgen'
_symmetry_space_group_name_H-M    'P1'
_symmetry_Int_Tables_number       1
loop_
_symmetry_equiv_pos_as_xyz
  x,y,z
_cell_length_a                    35.7076
_cell_length_b                    37.635
_cell_length_c                    56.7964
_cell_angle_alpha                 90.0
_cell_angle_beta                 90.0
_cell_angle_gamma                 90.0
loop_
_atom_site_label
_atom_site_type_symbol
_atom_site_fract_x
_atom_site_fract_y
_atom_site_fract_z
V1     V     0.3599   0.627   0.1954
Er2     Er     0.2769   0.6263   0.0274
V3     V     0.6401   0.627   0.1954
Er4     Er     0.7231   0.6263   0.0274
V5     V     0.1401   0.873   0.8046
Er6     Er     0.2231   0.8737   0.9726
V7     V     0.8599   0.873   0.8046
Er8     Er     0.7769   0.8737   0.9726
V9     V     0.3599   0.373   0.8046
Er10     Er     0.2769   0.3737   0.9726
V11     V     0.6401   0.373   0.8046
Er12     Er     0.7231   0.3737   0.9726
V13     V     0.1401   0.127   0.1954
Er14     Er     0.2231   0.1263   0.0274
V15     V     0.8599   0.127   0.1954
Er16     Er     0.7769   0.1263   0.0274
V17     V     0.6401   0.127   0.3046
Er18     Er     0.7231   0.1263   0.4726
V19     V     0.3599   0.127   0.3046
Er20     Er     0.2769   0.1263   0.4726
V21     V     0.1401   0.373   0.6954
Er22     Er     0.2231   0.3737   0.5274
V23     V     0.8599   0.373   0.6954
Er24     Er     0.7769   0.3737   0.5274
V25     V     0.1401   0.627   0.3046
Er26     Er     0.2231   0.6263   0.4726
V27     V     0.8599   0.627   0.3046
Er28     Er     0.7769   0.6263   0.4726
V29     V     0.6401   0.873   0.6954
Er30     Er     0.7231   0.8737   0.5274
V31     V     0.3599   0.873   0.6954
Er32     Er     0.2769   0.8737   0.5274
loop_
_geom_bond_atom_site_label_1
_geom_bond_atom_site_label_2
_geom_bond_distance
_geom_bond_site_symmetry_2
_ccdc_geom_bond_type
V1     Er2    9.994   .     S
V1     V3    10.002   .     S
V1     V25    10.003   .     S
Er2     Er6    10.003   1_554     S
Er2     Er10    10.003   1_554     S
V3     Er4    9.994   .     S
V3     V27    10.003   .     S
Er4     Er8    10.003   1_554     S
Er4     Er12    10.003   1_554     S
V5     Er6    9.994   .     S
V5     V7    10.002   1_455     S
V5     V31    10.003   .     S
Er6     Er2    10.003   1_556     S
Er6     Er14    10.003   1_566     S
V7     Er8    9.994   .     S
V7     V5    10.002   1_655     S
V7     V29    10.003   .     S
Er8     Er4    10.003   1_556     S
Er8     Er16    10.003   1_566     S
V9     Er10    9.994   .     S
V9     V11    10.002   .     S
V9     V21    10.003   .     S
Er10     Er2    10.003   1_556     S
Er10     Er14    10.003   1_556     S
V11     Er12    9.994   .     S
V11     V23    10.003   .     S
Er12     Er4    10.003   1_556     S
Er12     Er16    10.003   1_556     S
V13     Er14    9.994   .     S
V13     V15    10.002   1_455     S
V13     V19    10.003   .     S
Er14     Er10    10.003   1_554     S
Er14     Er6    10.003   1_544     S
V15     Er16    9.994   .     S
V15     V13    10.002   1_655     S
V15     V17    10.003   .     S
Er16     Er12    10.003   1_554     S
Er16     Er8    10.003   1_544     S
V17     Er18    9.994   .     S
V17     V19    10.002   .     S
Er18     Er24    10.003   .     S
Er18     Er30    10.003   1_545     S
V19     Er20    9.994   .     S
Er20     Er22    10.003   .     S
Er20     Er32    10.003   1_545     S
V21     Er22    9.994   .     S
V21     V23    10.002   1_455     S
Er22     Er26    10.003   .     S
V23     Er24    9.994   .     S
V23     V21    10.002   1_655     S
Er24     Er28    10.003   .     S
V25     Er26    9.994   .     S
V25     V27    10.002   1_455     S
Er26     Er32    10.003   .     S
V27     Er28    9.994   .     S
V27     V25    10.002   1_655     S
Er28     Er30    10.003   .     S
V29     Er30    9.994   .     S
V29     V31    10.002   .     S
Er30     Er18    10.003   1_565     S
V31     Er32    9.994   .     S
Er32     Er20    10.003   1_565     S
