data_brk
_audit_creation_date              2020-02-02
_audit_creation_method            'Pymatgen'
_symmetry_space_group_name_H-M    'P1'
_symmetry_Int_Tables_number       1
loop_
_symmetry_equiv_pos_as_xyz
  x,y,z
_cell_length_a                    47.1972
_cell_length_b                    27.3114
_cell_length_c                    27.127
_cell_angle_alpha                 90.0
_cell_angle_beta                 90.0
_cell_angle_gamma                 90.0
loop_
_atom_site_label
_atom_site_type_symbol
_atom_site_fract_x
_atom_site_fract_y
_atom_site_fract_z
V1     V     0.0271   0.1281   0.159
Ti2     Ti     0.8668   0.8887   0.1595
Er3     Er     0.7753   0.6034   0.992
V4     V     0.9729   0.6281   0.341
Ti5     Ti     0.1332   0.3887   0.3405
Er6     Er     0.2247   0.1034   0.508
V7     V     0.0271   0.3719   0.659
Ti8     Ti     0.8668   0.6113   0.6595
Er9     Er     0.7753   0.8966   0.492
V10     V     0.9729   0.8719   0.841
Ti11     Ti     0.1332   0.1113   0.8405
Er12     Er     0.2247   0.3966   0.008
V13     V     0.4729   0.6281   0.159
Ti14     Ti     0.6332   0.3887   0.1595
Er15     Er     0.7247   0.1034   0.992
V16     V     0.5271   0.1281   0.341
Ti17     Ti     0.3668   0.8887   0.3405
Er18     Er     0.2753   0.6034   0.508
V19     V     0.5271   0.3719   0.841
Ti20     Ti     0.3668   0.6113   0.8405
Er21     Er     0.2753   0.8966   0.008
V22     V     0.4729   0.8719   0.659
Ti23     Ti     0.6332   0.1113   0.6595
Er24     Er     0.7247   0.3966   0.492
loop_
_geom_bond_atom_site_label_1
_geom_bond_atom_site_label_2
_geom_bond_distance
_geom_bond_site_symmetry_2
_ccdc_geom_bond_type
V1     Ti2    10.0   1_445     S
V1     Ti5    10.0   .     S
V1     Ti11    10.0   1_554     S
Ti2     V1    10.0   1_665     S
Ti2     Er15    10.0   1_564     S
Ti2     V4    10.0   .     S
Ti2     Er3    10.0   1_554     S
Ti2     V10    10.0   1_554     S
Ti2     Er9    10.0   .     S
Er3     Ti8    10.0   .     S
Er3     Ti2    10.0   1_556     S
Er3     Ti14    10.0   1_556     S
V4     Ti5    10.0   1_655     S
V4     Ti8    10.0   .     S
Ti5     V4    10.0   1_455     S
Ti5     Er18    10.0   .     S
Ti5     Er6    10.0   .     S
Ti5     V7    10.0   .     S
Ti5     Er12    10.0   .     S
Er6     Ti11    10.0   .     S
Er6     Ti17    10.0   1_545     S
V7     Ti8    10.0   1_455     S
V7     Ti11    10.0   .     S
Ti8     V7    10.0   1_655     S
Ti8     Er24    10.0   .     S
Ti8     V10    10.0   .     S
Ti8     Er9    10.0   .     S
Er9     Ti23    10.0   1_565     S
V10     Ti2    10.0   1_556     S
V10     Ti11    10.0   1_665     S
Ti11     V10    10.0   1_445     S
Ti11     Er21    10.0   1_546     S
Ti11     Er12    10.0   1_556     S
Ti11     V1    10.0   1_556     S
Er12     Ti11    10.0   1_554     S
Er12     Ti20    10.0   1_554     S
V13     Ti14    10.0   .     S
V13     Ti17    10.0   .     S
V13     Ti20    10.0   1_554     S
Ti14     Er3    10.0   1_554     S
Ti14     V16    10.0   .     S
Ti14     Er15    10.0   1_554     S
Ti14     V19    10.0   1_554     S
Ti14     Er24    10.0   .     S
Er15     Ti2    10.0   1_546     S
Er15     Ti23    10.0   .     S
Er15     Ti14    10.0   1_556     S
V16     Ti17    10.0   1_545     S
V16     Ti23    10.0   .     S
Ti17     V16    10.0   1_565     S
Ti17     Er6    10.0   1_565     S
Ti17     Er18    10.0   .     S
Ti17     V22    10.0   .     S
Ti17     Er21    10.0   .     S
Er18     Ti20    10.0   .     S
V19     Ti14    10.0   1_556     S
V19     Ti20    10.0   .     S
V19     Ti23    10.0   .     S
Ti20     Er12    10.0   1_556     S
Ti20     V22    10.0   .     S
Ti20     Er21    10.0   1_556     S
Ti20     V13    10.0   1_556     S
Er21     Ti11    10.0   1_564     S
Er21     Ti20    10.0   1_554     S
V22     Ti23    10.0   1_565     S
Ti23     V22    10.0   1_545     S
Ti23     Er9    10.0   1_545     S
Ti23     Er24    10.0   .     S
