data_buh
_audit_creation_date              2020-02-02
_audit_creation_method            'Pymatgen'
_symmetry_space_group_name_H-M    'P1'
_symmetry_Int_Tables_number       1
loop_
_symmetry_equiv_pos_as_xyz
  x,y,z
_cell_length_a                    28.6217
_cell_length_b                    28.6217
_cell_length_c                    28.6217
_cell_angle_alpha                 90.0
_cell_angle_beta                 90.0
_cell_angle_gamma                 90.0
loop_
_atom_site_label
_atom_site_type_symbol
_atom_site_fract_x
_atom_site_fract_y
_atom_site_fract_z
Ti1     Ti     0.5   0.0   0.75
V2     V     0.6562   0.1875   0.5
Ti3     Ti     0.5   0.0   0.25
V4     V     0.3125   0.8438   0.0
V5     V     0.6875   0.8438   0.0
V6     V     0.6562   0.8125   0.5
V7     V     0.3125   0.1562   0.0
V8     V     0.6875   0.1562   0.0
V9     V     0.3438   0.1875   0.5
V10     V     0.3438   0.8125   0.5
Ti11     Ti     0.0   0.75   0.5
Ti12     Ti     0.0   0.25   0.5
V13     V     0.8125   0.5   0.6562
V14     V     0.1875   0.5   0.6562
V15     V     0.8438   0.0   0.3125
V16     V     0.8438   0.0   0.6875
V17     V     0.8125   0.5   0.3438
V18     V     0.1875   0.5   0.3438
V19     V     0.1562   0.0   0.3125
V20     V     0.1562   0.0   0.6875
Ti21     Ti     0.75   0.5   0.0
Ti22     Ti     0.25   0.5   0.0
V23     V     0.0   0.6875   0.8438
V24     V     0.0   0.3125   0.8438
V25     V     0.5   0.6562   0.8125
V26     V     0.5   0.6562   0.1875
V27     V     0.0   0.3125   0.1562
V28     V     0.0   0.6875   0.1562
V29     V     0.5   0.3438   0.8125
V30     V     0.5   0.3438   0.1875
Er31     Er     0.5   0.5   0.5
Er32     Er     0.0   0.0   0.0
loop_
_geom_bond_atom_site_label_1
_geom_bond_atom_site_label_2
_geom_bond_distance
_geom_bond_site_symmetry_2
_ccdc_geom_bond_type
Ti1     V8    10.0   1_556     S
Ti1     V5    10.0   1_546     S
Ti1     V4    10.0   1_546     S
Ti1     V7    10.0   1_556     S
Ti1     V25    10.0   1_545     S
Ti1     V29    10.0   .     S
Ti1     V10    10.0   1_545     S
Ti1     V6    10.0   1_545     S
Ti1     V2    10.0   .     S
Ti1     V9    10.0   .     S
Ti1     V16    10.0   .     S
Ti1     V20    10.0   .     S
V2     Er31    10.0   .     S
V2     Ti3    10.0   .     S
V2     Ti12    10.0   1_655     S
Ti3     V7    10.0   .     S
Ti3     V4    10.0   1_545     S
Ti3     V5    10.0   1_545     S
Ti3     V8    10.0   .     S
Ti3     V26    10.0   1_545     S
Ti3     V30    10.0   .     S
Ti3     V9    10.0   .     S
Ti3     V6    10.0   1_545     S
Ti3     V10    10.0   1_545     S
Ti3     V15    10.0   .     S
Ti3     V19    10.0   .     S
V4     Ti1    10.0   1_564     S
V4     Er32    10.0   1_565     S
V4     Ti3    10.0   1_565     S
V4     Ti22    10.0   .     S
V5     Er32    10.0   1_665     S
V5     Ti1    10.0   1_564     S
V5     Ti3    10.0   1_565     S
V5     Ti21    10.0   .     S
V6     Er31    10.0   .     S
V6     Ti1    10.0   1_565     S
V6     Ti3    10.0   1_565     S
V6     Ti11    10.0   1_655     S
V7     Ti1    10.0   1_554     S
V7     Er32    10.0   .     S
V7     Ti22    10.0   .     S
V8     Er32    10.0   1_655     S
V8     Ti1    10.0   1_554     S
V8     Ti21    10.0   .     S
V9     Er31    10.0   .     S
V9     Ti12    10.0   .     S
V10     Er31    10.0   .     S
V10     Ti1    10.0   1_565     S
V10     Ti3    10.0   1_565     S
V10     Ti11    10.0   .     S
Ti11     V20    10.0   1_565     S
Ti11     V16    10.0   1_465     S
Ti11     V15    10.0   1_465     S
Ti11     V19    10.0   1_565     S
Ti11     V6    10.0   1_455     S
Ti11     V17    10.0   1_455     S
Ti11     V13    10.0   1_455     S
Ti11     V14    10.0   .     S
Ti11     V18    10.0   .     S
Ti11     V23    10.0   .     S
Ti11     V28    10.0   .     S
Ti12     V19    10.0   .     S
Ti12     V15    10.0   1_455     S
Ti12     V16    10.0   1_455     S
Ti12     V20    10.0   .     S
Ti12     V2    10.0   1_455     S
Ti12     V18    10.0   .     S
Ti12     V14    10.0   .     S
Ti12     V13    10.0   1_455     S
Ti12     V17    10.0   1_455     S
Ti12     V24    10.0   .     S
Ti12     V27    10.0   .     S
V13     Er31    10.0   .     S
V13     Ti11    10.0   1_655     S
V13     Ti12    10.0   1_655     S
V13     Ti21    10.0   1_556     S
V14     Er31    10.0   .     S
V14     Ti22    10.0   1_556     S
V15     Er32    10.0   1_655     S
V15     Ti11    10.0   1_645     S
V15     Ti12    10.0   1_655     S
V16     Er32    10.0   1_656     S
V16     Ti11    10.0   1_645     S
V16     Ti12    10.0   1_655     S
V17     Er31    10.0   .     S
V17     Ti11    10.0   1_655     S
V17     Ti12    10.0   1_655     S
V17     Ti21    10.0   .     S
V18     Er31    10.0   .     S
V18     Ti22    10.0   .     S
V19     Er32    10.0   .     S
V19     Ti11    10.0   1_545     S
V20     Er32    10.0   1_556     S
V20     Ti11    10.0   1_545     S
Ti21     V28    10.0   1_655     S
Ti21     V23    10.0   1_654     S
Ti21     V24    10.0   1_654     S
Ti21     V27    10.0   1_655     S
Ti21     V13    10.0   1_554     S
Ti21     V29    10.0   1_554     S
Ti21     V25    10.0   1_554     S
Ti21     V26    10.0   .     S
Ti21     V30    10.0   .     S
Ti22     V30    10.0   .     S
Ti22     V26    10.0   .     S
Ti22     V25    10.0   1_554     S
Ti22     V29    10.0   1_554     S
Ti22     V23    10.0   1_554     S
Ti22     V28    10.0   .     S
Ti22     V27    10.0   .     S
Ti22     V24    10.0   1_554     S
Ti22     V14    10.0   1_554     S
V23     Er32    10.0   1_566     S
V23     Ti21    10.0   1_456     S
V23     Ti22    10.0   1_556     S
V24     Er32    10.0   1_556     S
V24     Ti21    10.0   1_456     S
V24     Ti22    10.0   1_556     S
V25     Ti1    10.0   1_565     S
V25     Er31    10.0   .     S
V25     Ti21    10.0   1_556     S
V25     Ti22    10.0   1_556     S
V26     Ti3    10.0   1_565     S
V26     Er31    10.0   .     S
V27     Er32    10.0   .     S
V27     Ti21    10.0   1_455     S
V28     Er32    10.0   1_565     S
V28     Ti21    10.0   1_455     S
V29     Er31    10.0   .     S
V29     Ti21    10.0   1_556     S
V29     Ti22    10.0   1_556     S
V30     Er31    10.0   .     S
Er32     V8    10.0   1_455     S
Er32     V5    10.0   1_445     S
Er32     V4    10.0   1_545     S
Er32     V20    10.0   1_554     S
Er32     V16    10.0   1_454     S
Er32     V15    10.0   1_455     S
Er32     V28    10.0   1_545     S
Er32     V23    10.0   1_544     S
Er32     V24    10.0   1_554     S
