data_buha
_audit_creation_date              2020-02-02
_audit_creation_method            'Pymatgen'
_symmetry_space_group_name_H-M    'P1'
_symmetry_Int_Tables_number       1
loop_
_symmetry_equiv_pos_as_xyz
  x,y,z
_cell_length_a                    73.9094
_cell_length_b                    73.9094
_cell_length_c                    73.9094
_cell_angle_alpha                 90.0
_cell_angle_beta                 90.0
_cell_angle_gamma                 90.0
loop_
_atom_site_label
_atom_site_type_symbol
_atom_site_fract_x
_atom_site_fract_y
_atom_site_fract_z
V1     V     0.3905   0.5676   0.5
V2     V     0.6095   0.5676   0.5
V3     V     0.5   0.3905   0.5676
V4     V     0.5   0.6095   0.5676
V5     V     0.5676   0.5   0.6095
V6     V     0.5676   0.5   0.3905
V7     V     0.3905   0.4324   0.5
V8     V     0.6095   0.4324   0.5
V9     V     0.5   0.6095   0.4324
V10     V     0.5   0.3905   0.4324
V11     V     0.4324   0.5   0.6095
V12     V     0.4324   0.5   0.3905
V13     V     0.9324   0.1095   0.0
V14     V     0.9324   0.8905   0.0
V15     V     0.1095   0.0   0.9324
V16     V     0.8905   0.0   0.9324
V17     V     0.0   0.9324   0.1095
V18     V     0.0   0.9324   0.8905
V19     V     0.0676   0.1095   0.0
V20     V     0.0676   0.8905   0.0
V21     V     0.0   0.0676   0.1095
V22     V     0.0   0.0676   0.8905
V23     V     0.1095   0.0   0.0676
V24     V     0.8905   0.0   0.0676
Er25     Er     0.2375   0.0   0.1114
Ce26     Ce     0.3536   0.0676   0.1272
Ce27     Ce     0.3536   0.9324   0.1272
Ti28     Ti     0.3   0.0   0.2314
Er29     Er     0.2625   0.3886   0.5
Ce30     Ce     0.1464   0.3728   0.5676
Ce31     Ce     0.1464   0.3728   0.4324
Ti32     Ti     0.2   0.2686   0.5
Er33     Er     0.2625   0.6114   0.5
Ce34     Ce     0.1464   0.6272   0.5676
Ce35     Ce     0.1464   0.6272   0.4324
Ti36     Ti     0.2   0.7314   0.5
Er37     Er     0.2375   0.0   0.8886
Ce38     Ce     0.3536   0.0676   0.8728
Ce39     Ce     0.3536   0.9324   0.8728
Ti40     Ti     0.3   0.0   0.7686
H41     H     0.25   0.1429   0.5
H42     H     0.25   0.8571   0.5
S43     S     0.1601   0.9324   0.4324
S44     S     0.1601   0.0676   0.4324
S45     S     0.1601   0.9324   0.5676
S46     S     0.1601   0.0676   0.5676
H47     H     0.25   0.0   0.6429
H48     H     0.25   0.0   0.3571
S49     S     0.3398   0.9324   0.4324
S50     S     0.3398   0.0676   0.4324
S51     S     0.3398   0.9324   0.5676
S52     S     0.3398   0.0676   0.5676
Er53     Er     0.1114   0.7625   0.0
Ce54     Ce     0.1272   0.6464   0.0676
Ce55     Ce     0.1272   0.6464   0.9324
Ti56     Ti     0.2314   0.7   0.0
Er57     Er     0.5   0.7375   0.3886
Ce58     Ce     0.4324   0.8536   0.3728
Ce59     Ce     0.5676   0.8536   0.3728
Ti60     Ti     0.5   0.8   0.2686
Er61     Er     0.5   0.7375   0.6114
Ce62     Ce     0.4324   0.8536   0.6272
Ce63     Ce     0.5676   0.8536   0.6272
Ti64     Ti     0.5   0.8   0.7314
Er65     Er     0.8886   0.7625   0.0
Ce66     Ce     0.8728   0.6464   0.0676
Ce67     Ce     0.8728   0.6464   0.9324
Ti68     Ti     0.7686   0.7   0.0
H69     H     0.6429   0.75   0.0
H70     H     0.3571   0.75   0.0
S71     S     0.4324   0.6602   0.0676
S72     S     0.4324   0.6602   0.9324
S73     S     0.5676   0.6602   0.9324
S74     S     0.5676   0.6602   0.0676
H75     H     0.5   0.75   0.1429
H76     H     0.5   0.75   0.8571
S77     S     0.5676   0.8398   0.9324
S78     S     0.5676   0.8398   0.0676
S79     S     0.4324   0.8398   0.9324
S80     S     0.4324   0.8398   0.0676
Er81     Er     0.1114   0.2375   0.0
Ce82     Ce     0.1272   0.3536   0.0676
Ce83     Ce     0.1272   0.3536   0.9324
Ti84     Ti     0.2314   0.3   0.0
Er85     Er     0.5   0.2625   0.3886
Ce86     Ce     0.5676   0.1464   0.3728
Ce87     Ce     0.4324   0.1464   0.3728
Ti88     Ti     0.5   0.2   0.2686
Er89     Er     0.5   0.2625   0.6114
Ce90     Ce     0.5676   0.1464   0.6272
Ce91     Ce     0.4324   0.1464   0.6272
Ti92     Ti     0.5   0.2   0.7314
Er93     Er     0.8886   0.2375   0.0
Ce94     Ce     0.8728   0.3536   0.0676
Ce95     Ce     0.8728   0.3536   0.9324
Ti96     Ti     0.7686   0.3   0.0
H97     H     0.5   0.25   0.1429
H98     H     0.5   0.25   0.8571
S99     S     0.4324   0.1601   0.9324
S100     S     0.4324   0.1601   0.0676
S101     S     0.5676   0.1601   0.9324
S102     S     0.5676   0.1601   0.0676
H103     H     0.6429   0.25   0.0
H104     H     0.3571   0.25   0.0
S105     S     0.4324   0.3398   0.0676
S106     S     0.4324   0.3398   0.9324
S107     S     0.5676   0.3398   0.9324
S108     S     0.5676   0.3398   0.0676
Er109     Er     0.0   0.1114   0.7625
Ce110     Ce     0.0676   0.1272   0.6464
Ce111     Ce     0.9324   0.1272   0.6464
Ti112     Ti     0.0   0.2314   0.7
Er113     Er     0.3886   0.5   0.7375
Ce114     Ce     0.3728   0.4324   0.8536
Ce115     Ce     0.3728   0.5676   0.8536
Ti116     Ti     0.2686   0.5   0.8
Er117     Er     0.6114   0.5   0.7375
Ce118     Ce     0.6272   0.4324   0.8536
Ce119     Ce     0.6272   0.5676   0.8536
Ti120     Ti     0.7314   0.5   0.8
Er121     Er     0.0   0.8886   0.7625
Ce122     Ce     0.0676   0.8728   0.6464
Ce123     Ce     0.9324   0.8728   0.6464
Ti124     Ti     0.0   0.7686   0.7
H125     H     0.0   0.6429   0.75
H126     H     0.0   0.3571   0.75
S127     S     0.9324   0.4324   0.6602
S128     S     0.0676   0.4324   0.6602
S129     S     0.9324   0.5676   0.6602
S130     S     0.0676   0.5676   0.6602
H131     H     0.1429   0.5   0.75
H132     H     0.8571   0.5   0.75
S133     S     0.9324   0.5676   0.8398
S134     S     0.9324   0.4324   0.8398
S135     S     0.0676   0.4324   0.8398
S136     S     0.0676   0.5676   0.8398
Er137     Er     0.0   0.1114   0.2375
Ce138     Ce     0.0676   0.1272   0.3536
Ce139     Ce     0.9324   0.1272   0.3536
Ti140     Ti     0.0   0.2314   0.3
Er141     Er     0.3886   0.5   0.2625
Ce142     Ce     0.3728   0.5676   0.1464
Ce143     Ce     0.3728   0.4324   0.1464
Ti144     Ti     0.2686   0.5   0.2
Er145     Er     0.6114   0.5   0.2625
Ce146     Ce     0.6272   0.5676   0.1464
Ce147     Ce     0.6272   0.4324   0.1464
Ti148     Ti     0.7314   0.5   0.2
Er149     Er     0.0   0.8886   0.2375
Ce150     Ce     0.0676   0.8728   0.3536
Ce151     Ce     0.9324   0.8728   0.3536
Ti152     Ti     0.0   0.7686   0.3
H153     H     0.1429   0.5   0.25
H154     H     0.8571   0.5   0.25
S155     S     0.9324   0.4324   0.1601
S156     S     0.0676   0.4324   0.1601
S157     S     0.9324   0.5676   0.1601
S158     S     0.0676   0.5676   0.1601
H159     H     0.0   0.6429   0.25
H160     H     0.0   0.3571   0.25
S161     S     0.0676   0.4324   0.3398
S162     S     0.9324   0.4324   0.3398
S163     S     0.9324   0.5676   0.3398
S164     S     0.0676   0.5676   0.3398
Er165     Er     0.7625   0.0   0.1114
Ce166     Ce     0.6464   0.0676   0.1272
Ce167     Ce     0.6464   0.9324   0.1272
Ti168     Ti     0.7   0.0   0.2314
Er169     Er     0.7375   0.3886   0.5
Ce170     Ce     0.8536   0.3728   0.4324
Ce171     Ce     0.8536   0.3728   0.5676
Ti172     Ti     0.8   0.2686   0.5
Er173     Er     0.7375   0.6114   0.5
Ce174     Ce     0.8536   0.6272   0.4324
Ce175     Ce     0.8536   0.6272   0.5676
Ti176     Ti     0.8   0.7314   0.5
Er177     Er     0.7625   0.0   0.8886
Ce178     Ce     0.6464   0.0676   0.8728
Ce179     Ce     0.6464   0.9324   0.8728
Ti180     Ti     0.7   0.0   0.7686
H181     H     0.75   0.0   0.6429
H182     H     0.75   0.0   0.3571
S183     S     0.6602   0.9324   0.5676
S184     S     0.6602   0.0676   0.5676
S185     S     0.6602   0.0676   0.4324
S186     S     0.6602   0.9324   0.4324
H187     H     0.75   0.1429   0.5
H188     H     0.75   0.8571   0.5
S189     S     0.8398   0.0676   0.5676
S190     S     0.8398   0.0676   0.4324
S191     S     0.8398   0.9324   0.5676
S192     S     0.8398   0.9324   0.4324
loop_
_geom_bond_atom_site_label_1
_geom_bond_atom_site_label_2
_geom_bond_distance
_geom_bond_site_symmetry_2
_ccdc_geom_bond_type
V1     V4    10.0   .     S
V1     V9    10.0   .     S
V1     Er33    10.0   .     S
V1     V11    10.0   .     S
V1     V12    10.0   .     S
V1     V7    10.0   .     S
V2     V9    10.0   .     S
V2     V4    10.0   .     S
V2     Er173    10.0   .     S
V2     V5    10.0   .     S
V2     V6    10.0   .     S
V2     V8    10.0   .     S
V3     V5    10.0   .     S
V3     V11    10.0   .     S
V3     Er89    10.0   .     S
V3     V7    10.0   .     S
V3     V8    10.0   .     S
V3     V10    10.0   .     S
V4     V9    10.0   .     S
V4     V11    10.0   .     S
V4     V5    10.0   .     S
V4     Er61    10.0   .     S
V5     V11    10.0   .     S
V5     V8    10.0   .     S
V5     Er117    10.0   .     S
V6     V8    10.0   .     S
V6     Er145    10.0   .     S
V6     V9    10.0   .     S
V6     V10    10.0   .     S
V6     V12    10.0   .     S
V7     V10    10.0   .     S
V7     Er29    10.0   .     S
V7     V11    10.0   .     S
V7     V12    10.0   .     S
V8     V10    10.0   .     S
V8     Er169    10.0   .     S
V9     V12    10.0   .     S
V9     Er57    10.0   .     S
V10     V12    10.0   .     S
V10     Er85    10.0   .     S
V11     Er113    10.0   .     S
V12     Er141    10.0   .     S
V13     V16    10.0   1_554     S
V13     V24    10.0   .     S
V13     Er93    10.0   .     S
V13     V21    10.0   1_655     S
V13     V22    10.0   1_654     S
V13     V19    10.0   1_655     S
V14     V24    10.0   1_565     S
V14     V16    10.0   1_564     S
V14     Er65    10.0   .     S
V14     V17    10.0   1_655     S
V14     V18    10.0   1_654     S
V14     V20    10.0   1_655     S
V15     V18    10.0   1_545     S
V15     V22    10.0   .     S
V15     Er37    10.0   .     S
V15     V19    10.0   1_556     S
V15     V20    10.0   1_546     S
V15     V23    10.0   1_556     S
V16     V13    10.0   1_556     S
V16     V14    10.0   1_546     S
V16     V24    10.0   1_556     S
V16     V22    10.0   1_655     S
V16     V18    10.0   1_645     S
V16     Er177    10.0   .     S
V17     V14    10.0   1_455     S
V17     V20    10.0   .     S
V17     Er149    10.0   .     S
V17     V23    10.0   1_565     S
V17     V24    10.0   1_465     S
V17     V21    10.0   1_565     S
V18     V15    10.0   1_565     S
V18     V16    10.0   1_465     S
V18     V22    10.0   1_565     S
V18     V20    10.0   1_556     S
V18     V14    10.0   1_456     S
V18     Er121    10.0   .     S
V19     V23    10.0   .     S
V19     V15    10.0   1_554     S
V19     Er81    10.0   .     S
V19     V21    10.0   .     S
V19     V22    10.0   1_554     S
V19     V13    10.0   1_455     S
V20     V18    10.0   1_554     S
V20     V14    10.0   1_455     S
V20     V15    10.0   1_564     S
V20     V23    10.0   1_565     S
V20     Er53    10.0   .     S
V21     V13    10.0   1_455     S
V21     Er137    10.0   .     S
V21     V23    10.0   .     S
V21     V24    10.0   1_455     S
V21     V17    10.0   1_545     S
V22     V16    10.0   1_455     S
V22     V18    10.0   1_545     S
V22     V13    10.0   1_456     S
V22     V19    10.0   1_556     S
V22     Er109    10.0   .     S
V23     V20    10.0   1_545     S
V23     V15    10.0   1_554     S
V23     V17    10.0   1_545     S
V23     Er25    10.0   .     S
V24     V14    10.0   1_545     S
V24     V16    10.0   1_554     S
V24     V17    10.0   1_645     S
V24     V21    10.0   1_655     S
V24     Er165    10.0   .     S
Er25     Ce26    10.0   .     S
Er25     Ce27    10.0   1_545     S
Er25     Ti28    10.0   .     S
Ce26     Ti28    10.0   .     S
Ce26     Ce27    10.0   1_545     S
Ce26     S100    10.0   .     S
Ce27     Er25    10.0   1_565     S
Ce27     Ti28    10.0   1_565     S
Ce27     Ce26    10.0   1_565     S
Ce27     S80    10.0   .     S
Ti28     Ce27    10.0   1_545     S
Ti28     H48    10.0   .     S
Er29     Ce31    10.0   .     S
Er29     Ce30    10.0   .     S
Er29     Ti32    10.0   .     S
Ce30     Ti32    10.0   .     S
Ce30     Ce31    10.0   .     S
Ce30     S128    10.0   .     S
Ce31     Ti32    10.0   .     S
Ce31     S161    10.0   .     S
Ti32     H41    10.0   .     S
Er33     Ce34    10.0   .     S
Er33     Ce35    10.0   .     S
Er33     Ti36    10.0   .     S
Ce34     Ti36    10.0   .     S
Ce34     Ce35    10.0   .     S
Ce34     S130    10.0   .     S
Ce35     Ti36    10.0   .     S
Ce35     S164    10.0   .     S
Ti36     H42    10.0   .     S
Er37     Ce39    10.0   1_545     S
Er37     Ce38    10.0   .     S
Er37     Ti40    10.0   .     S
Ce38     Ti40    10.0   .     S
Ce38     Ce39    10.0   1_545     S
Ce38     S99    10.0   .     S
Ce39     Er37    10.0   1_565     S
Ce39     Ti40    10.0   1_565     S
Ce39     Ce38    10.0   1_565     S
Ce39     S79    10.0   .     S
Ti40     Ce39    10.0   1_545     S
Ti40     H47    10.0   .     S
H41     S50    10.0   .     S
H41     S52    10.0   .     S
H41     S44    10.0   .     S
H41     S46    10.0   .     S
H42     S51    10.0   .     S
H42     S49    10.0   .     S
H42     S43    10.0   .     S
H42     S45    10.0   .     S
S43     S45    10.0   .     S
S43     S44    10.0   1_565     S
S43     Ce150    10.0   .     S
S43     H48    10.0   1_565     S
S44     S46    10.0   .     S
S44     S43    10.0   1_545     S
S44     Ce138    10.0   .     S
S44     H48    10.0   .     S
S45     S46    10.0   1_565     S
S45     Ce122    10.0   .     S
S45     H47    10.0   1_565     S
S46     S45    10.0   1_545     S
S46     Ce110    10.0   .     S
S46     H47    10.0   .     S
H47     S45    10.0   1_545     S
H47     S51    10.0   1_545     S
H47     S52    10.0   .     S
H48     S43    10.0   1_545     S
H48     S49    10.0   1_545     S
H48     S50    10.0   .     S
S49     H48    10.0   1_565     S
S49     S51    10.0   .     S
S49     S50    10.0   1_565     S
S49     Ce58    10.0   .     S
S50     S52    10.0   .     S
S50     S49    10.0   1_545     S
S50     Ce87    10.0   .     S
S51     H47    10.0   1_565     S
S51     S52    10.0   1_565     S
S51     Ce62    10.0   .     S
S52     S51    10.0   1_545     S
S52     Ce91    10.0   .     S
Er53     Ce55    10.0   1_554     S
Er53     Ce54    10.0   .     S
Er53     Ti56    10.0   .     S
Ce54     Ti56    10.0   .     S
Ce54     Ce55    10.0   1_554     S
Ce54     S158    10.0   .     S
Ce55     Er53    10.0   1_556     S
Ce55     Ti56    10.0   1_556     S
Ce55     Ce54    10.0   1_556     S
Ce55     S136    10.0   .     S
Ti56     Ce55    10.0   1_554     S
Ti56     H70    10.0   .     S
Er57     Ce59    10.0   .     S
Er57     Ce58    10.0   .     S
Er57     Ti60    10.0   .     S
Ce58     Ti60    10.0   .     S
Ce58     Ce59    10.0   .     S
Ce59     Ti60    10.0   .     S
Ce59     S186    10.0   .     S
Ti60     H75    10.0   .     S
Er61     Ce62    10.0   .     S
Er61     Ce63    10.0   .     S
Er61     Ti64    10.0   .     S
Ce62     Ti64    10.0   .     S
Ce62     Ce63    10.0   .     S
Ce63     Ti64    10.0   .     S
Ce63     S183    10.0   .     S
Ti64     H76    10.0   .     S
Er65     Ce66    10.0   .     S
Er65     Ce67    10.0   1_554     S
Er65     Ti68    10.0   .     S
Ce66     Ti68    10.0   .     S
Ce66     Ce67    10.0   1_554     S
Ce66     S157    10.0   .     S
Ce67     Er65    10.0   1_556     S
Ce67     Ti68    10.0   1_556     S
Ce67     Ce66    10.0   1_556     S
Ce67     S133    10.0   .     S
Ti68     Ce67    10.0   1_554     S
Ti68     H69    10.0   .     S
H69     S78    10.0   .     S
H69     S77    10.0   1_554     S
H69     S73    10.0   1_554     S
H69     S74    10.0   .     S
H70     S79    10.0   1_554     S
H70     S80    10.0   .     S
H70     S71    10.0   .     S
H70     S72    10.0   1_554     S
S71     S72    10.0   1_554     S
S71     S74    10.0   .     S
S71     Ce142    10.0   .     S
S71     H75    10.0   .     S
S72     S71    10.0   1_556     S
S72     H70    10.0   1_556     S
S72     S73    10.0   .     S
S72     Ce115    10.0   .     S
S72     H76    10.0   .     S
S73     H69    10.0   1_556     S
S73     S74    10.0   1_556     S
S73     Ce119    10.0   .     S
S73     H76    10.0   .     S
S74     S73    10.0   1_554     S
S74     Ce146    10.0   .     S
S74     H75    10.0   .     S
H75     S78    10.0   .     S
H75     S80    10.0   .     S
H76     S77    10.0   .     S
H76     S79    10.0   .     S
S77     H69    10.0   1_556     S
S77     S78    10.0   1_556     S
S77     S79    10.0   .     S
S77     Ce179    10.0   .     S
S78     S77    10.0   1_554     S
S78     S80    10.0   .     S
S78     Ce167    10.0   .     S
S79     H70    10.0   1_556     S
S79     S80    10.0   1_556     S
S80     S79    10.0   1_554     S
Er81     Ce82    10.0   .     S
Er81     Ce83    10.0   1_554     S
Er81     Ti84    10.0   .     S
Ce82     Ti84    10.0   .     S
Ce82     Ce83    10.0   1_554     S
Ce82     S156    10.0   .     S
Ce83     Er81    10.0   1_556     S
Ce83     Ti84    10.0   1_556     S
Ce83     Ce82    10.0   1_556     S
Ce83     S135    10.0   .     S
Ti84     Ce83    10.0   1_554     S
Ti84     H104    10.0   .     S
Er85     Ce87    10.0   .     S
Er85     Ce86    10.0   .     S
Er85     Ti88    10.0   .     S
Ce86     Ti88    10.0   .     S
Ce86     Ce87    10.0   .     S
Ce86     S185    10.0   .     S
Ce87     Ti88    10.0   .     S
Ti88     H97    10.0   .     S
Er89     Ce90    10.0   .     S
Er89     Ce91    10.0   .     S
Er89     Ti92    10.0   .     S
Ce90     Ti92    10.0   .     S
Ce90     Ce91    10.0   .     S
Ce90     S184    10.0   .     S
Ce91     Ti92    10.0   .     S
Ti92     H98    10.0   .     S
Er93     Ce95    10.0   1_554     S
Er93     Ce94    10.0   .     S
Er93     Ti96    10.0   .     S
Ce94     Ti96    10.0   .     S
Ce94     Ce95    10.0   1_554     S
Ce94     S155    10.0   .     S
Ce95     Er93    10.0   1_556     S
Ce95     Ti96    10.0   1_556     S
Ce95     Ce94    10.0   1_556     S
Ce95     S134    10.0   .     S
Ti96     Ce95    10.0   1_554     S
Ti96     H103    10.0   .     S
H97     S105    10.0   .     S
H97     S108    10.0   .     S
H97     S100    10.0   .     S
H97     S102    10.0   .     S
H98     S107    10.0   .     S
H98     S106    10.0   .     S
H98     S99    10.0   .     S
H98     S101    10.0   .     S
S99     S101    10.0   .     S
S99     S100    10.0   1_556     S
S99     H104    10.0   1_556     S
S100     S102    10.0   .     S
S100     S99    10.0   1_554     S
S100     H104    10.0   .     S
S101     S102    10.0   1_556     S
S101     Ce178    10.0   .     S
S101     H103    10.0   1_556     S
S102     S101    10.0   1_554     S
S102     Ce166    10.0   .     S
S102     H103    10.0   .     S
H103     S101    10.0   1_554     S
H103     S107    10.0   1_554     S
H103     S108    10.0   .     S
H104     S99    10.0   1_554     S
H104     S105    10.0   .     S
H104     S106    10.0   1_554     S
S105     S108    10.0   .     S
S105     S106    10.0   1_554     S
S105     Ce143    10.0   .     S
S106     S105    10.0   1_556     S
S106     H104    10.0   1_556     S
S106     S107    10.0   .     S
S106     Ce114    10.0   .     S
S107     H103    10.0   1_556     S
S107     S108    10.0   1_556     S
S107     Ce118    10.0   .     S
S108     S107    10.0   1_554     S
S108     Ce147    10.0   .     S
Er109     Ce111    10.0   1_455     S
Er109     Ce110    10.0   .     S
Er109     Ti112    10.0   .     S
Ce110     Ti112    10.0   .     S
Ce110     Ce111    10.0   1_455     S
Ce111     Er109    10.0   1_655     S
Ce111     Ti112    10.0   1_655     S
Ce111     Ce110    10.0   1_655     S
Ce111     S189    10.0   .     S
Ti112     Ce111    10.0   1_455     S
Ti112     H126    10.0   .     S
Er113     Ce115    10.0   .     S
Er113     Ce114    10.0   .     S
Er113     Ti116    10.0   .     S
Ce114     Ti116    10.0   .     S
Ce114     Ce115    10.0   .     S
Ce115     Ti116    10.0   .     S
Ti116     H131    10.0   .     S
Er117     Ce118    10.0   .     S
Er117     Ce119    10.0   .     S
Er117     Ti120    10.0   .     S
Ce118     Ti120    10.0   .     S
Ce118     Ce119    10.0   .     S
Ce119     Ti120    10.0   .     S
Ti120     H132    10.0   .     S
Er121     Ce122    10.0   .     S
Er121     Ce123    10.0   1_455     S
Er121     Ti124    10.0   .     S
Ce122     Ti124    10.0   .     S
Ce122     Ce123    10.0   1_455     S
Ce123     Er121    10.0   1_655     S
Ce123     Ti124    10.0   1_655     S
Ce123     Ce122    10.0   1_655     S
Ce123     S191    10.0   .     S
Ti124     Ce123    10.0   1_455     S
Ti124     H125    10.0   .     S
H125     S136    10.0   .     S
H125     S133    10.0   1_455     S
H125     S129    10.0   1_455     S
H125     S130    10.0   .     S
H126     S134    10.0   1_455     S
H126     S135    10.0   .     S
H126     S127    10.0   1_455     S
H126     S128    10.0   .     S
S127     H126    10.0   1_655     S
S127     S129    10.0   .     S
S127     S128    10.0   1_655     S
S127     Ce171    10.0   .     S
S127     H132    10.0   .     S
S128     S130    10.0   .     S
S128     S127    10.0   1_455     S
S128     H131    10.0   .     S
S129     H125    10.0   1_655     S
S129     S130    10.0   1_655     S
S129     Ce175    10.0   .     S
S129     H132    10.0   .     S
S130     S129    10.0   1_455     S
S130     H131    10.0   .     S
H131     S135    10.0   .     S
H131     S136    10.0   .     S
H132     S133    10.0   .     S
H132     S134    10.0   .     S
S133     H125    10.0   1_655     S
S133     S134    10.0   .     S
S133     S136    10.0   1_655     S
S134     H126    10.0   1_655     S
S134     S135    10.0   1_655     S
S135     S136    10.0   .     S
S135     S134    10.0   1_455     S
S136     S133    10.0   1_455     S
Er137     Ce138    10.0   .     S
Er137     Ce139    10.0   1_455     S
Er137     Ti140    10.0   .     S
Ce138     Ti140    10.0   .     S
Ce138     Ce139    10.0   1_455     S
Ce139     Er137    10.0   1_655     S
Ce139     Ti140    10.0   1_655     S
Ce139     Ce138    10.0   1_655     S
Ce139     S190    10.0   .     S
Ti140     Ce139    10.0   1_455     S
Ti140     H160    10.0   .     S
Er141     Ce143    10.0   .     S
Er141     Ce142    10.0   .     S
Er141     Ti144    10.0   .     S
Ce142     Ti144    10.0   .     S
Ce142     Ce143    10.0   .     S
Ce143     Ti144    10.0   .     S
Ti144     H153    10.0   .     S
Er145     Ce146    10.0   .     S
Er145     Ce147    10.0   .     S
Er145     Ti148    10.0   .     S
Ce146     Ti148    10.0   .     S
Ce146     Ce147    10.0   .     S
Ce147     Ti148    10.0   .     S
Ti148     H154    10.0   .     S
Er149     Ce151    10.0   1_455     S
Er149     Ce150    10.0   .     S
Er149     Ti152    10.0   .     S
Ce150     Ti152    10.0   .     S
Ce150     Ce151    10.0   1_455     S
Ce151     Er149    10.0   1_655     S
Ce151     Ti152    10.0   1_655     S
Ce151     Ce150    10.0   1_655     S
Ce151     S192    10.0   .     S
Ti152     Ce151    10.0   1_455     S
Ti152     H159    10.0   .     S
H153     S161    10.0   .     S
H153     S164    10.0   .     S
H153     S156    10.0   .     S
H153     S158    10.0   .     S
H154     S163    10.0   .     S
H154     S162    10.0   .     S
H154     S155    10.0   .     S
H154     S157    10.0   .     S
S155     S157    10.0   .     S
S155     S156    10.0   1_655     S
S155     H160    10.0   1_655     S
S156     S158    10.0   .     S
S156     S155    10.0   1_455     S
S156     H160    10.0   .     S
S157     S158    10.0   1_655     S
S157     H159    10.0   1_655     S
S158     S157    10.0   1_455     S
S158     H159    10.0   .     S
H159     S157    10.0   1_455     S
H159     S163    10.0   1_455     S
H159     S164    10.0   .     S
H160     S155    10.0   1_455     S
H160     S161    10.0   .     S
H160     S162    10.0   1_455     S
S161     S164    10.0   .     S
S161     S162    10.0   1_455     S
S162     S161    10.0   1_655     S
S162     H160    10.0   1_655     S
S162     S163    10.0   .     S
S162     Ce170    10.0   .     S
S163     H159    10.0   1_655     S
S163     S164    10.0   1_655     S
S163     Ce174    10.0   .     S
S164     S163    10.0   1_455     S
Er165     Ce167    10.0   1_545     S
Er165     Ce166    10.0   .     S
Er165     Ti168    10.0   .     S
Ce166     Ti168    10.0   .     S
Ce166     Ce167    10.0   1_545     S
Ce167     Er165    10.0   1_565     S
Ce167     Ti168    10.0   1_565     S
Ce167     Ce166    10.0   1_565     S
Ti168     Ce167    10.0   1_545     S
Ti168     H182    10.0   .     S
Er169     Ce171    10.0   .     S
Er169     Ce170    10.0   .     S
Er169     Ti172    10.0   .     S
Ce170     Ti172    10.0   .     S
Ce170     Ce171    10.0   .     S
Ce171     Ti172    10.0   .     S
Ti172     H187    10.0   .     S
Er173     Ce174    10.0   .     S
Er173     Ce175    10.0   .     S
Er173     Ti176    10.0   .     S
Ce174     Ti176    10.0   .     S
Ce174     Ce175    10.0   .     S
Ce175     Ti176    10.0   .     S
Ti176     H188    10.0   .     S
Er177     Ce178    10.0   .     S
Er177     Ce179    10.0   1_545     S
Er177     Ti180    10.0   .     S
Ce178     Ti180    10.0   .     S
Ce178     Ce179    10.0   1_545     S
Ce179     Er177    10.0   1_565     S
Ce179     Ti180    10.0   1_565     S
Ce179     Ce178    10.0   1_565     S
Ti180     Ce179    10.0   1_545     S
Ti180     H181    10.0   .     S
H181     S189    10.0   .     S
H181     S191    10.0   1_545     S
H181     S183    10.0   1_545     S
H181     S184    10.0   .     S
H182     S192    10.0   1_545     S
H182     S190    10.0   .     S
H182     S185    10.0   .     S
H182     S186    10.0   1_545     S
S183     H181    10.0   1_565     S
S183     S184    10.0   1_565     S
S183     S186    10.0   .     S
S183     H188    10.0   .     S
S184     S183    10.0   1_545     S
S184     S185    10.0   .     S
S184     H187    10.0   .     S
S185     S186    10.0   1_545     S
S185     H187    10.0   .     S
S186     S185    10.0   1_565     S
S186     H182    10.0   1_565     S
S186     H188    10.0   .     S
H187     S189    10.0   .     S
H187     S190    10.0   .     S
H188     S191    10.0   .     S
H188     S192    10.0   .     S
S189     S191    10.0   1_545     S
S189     S190    10.0   .     S
S190     S192    10.0   1_545     S
S191     H181    10.0   1_565     S
S191     S189    10.0   1_565     S
S191     S192    10.0   .     S
S192     H182    10.0   1_565     S
S192     S190    10.0   1_565     S
