data_bvh
_audit_creation_date              2020-02-02
_audit_creation_method            'Pymatgen'
_symmetry_space_group_name_H-M    'P1'
_symmetry_Int_Tables_number       1
loop_
_symmetry_equiv_pos_as_xyz
  x,y,z
_cell_length_a                    16.3095
_cell_length_b                    31.8058
_cell_length_c                    43.1925
_cell_angle_alpha                 90.0
_cell_angle_beta                 90.0
_cell_angle_gamma                 90.0
loop_
_atom_site_label
_atom_site_type_symbol
_atom_site_fract_x
_atom_site_fract_y
_atom_site_fract_z
V1     V     0.9985   0.5928   0.5666
V2     V     0.0015   0.9072   0.5666
Er3     Er     0.5   0.75   0.634
V4     V     0.5015   0.4072   0.5666
V5     V     0.4985   0.0928   0.5666
Er6     Er     0.0   0.25   0.634
V7     V     0.0015   0.4072   0.4334
V8     V     0.9985   0.0928   0.4334
Er9     Er     0.5   0.25   0.366
V10     V     0.5015   0.9072   0.4334
V11     V     0.4985   0.5928   0.4334
Er12     Er     0.0   0.75   0.366
V13     V     0.5015   0.5928   0.0666
V14     V     0.4985   0.9072   0.0666
Er15     Er     0.0   0.75   0.134
V16     V     0.5015   0.0928   0.9334
V17     V     0.4985   0.4072   0.9334
Er18     Er     0.0   0.25   0.866
V19     V     0.9985   0.9072   0.9334
V20     V     0.0015   0.5928   0.9334
Er21     Er     0.5   0.75   0.866
V22     V     0.9985   0.4072   0.0666
V23     V     0.0015   0.0928   0.0666
Er24     Er     0.5   0.25   0.134
loop_
_geom_bond_atom_site_label_1
_geom_bond_atom_site_label_2
_geom_bond_distance
_geom_bond_site_symmetry_2
_ccdc_geom_bond_type
V1     V4    10.029   .     S
V1     Er3    10.017   1_655     S
V1     V11    9.982   .     S
V1     V2    9.998   1_655     S
V1     V11    9.982   1_655     S
V1     Er12    10.004   1_655     S
V1     Er3    9.977   .     S
V2     Er3    10.017   1_455     S
V2     V5    10.029   1_565     S
V2     V1    9.998   1_455     S
V2     V10    9.982   .     S
V2     V10    9.982   1_455     S
V2     Er12    10.004   .     S
V2     Er3    9.977   .     S
Er3     V1    10.017   1_455     S
Er3     V2    10.017   1_655     S
Er3     Er21    10.023   .     S
Er3     V11    10.004   .     S
Er3     V10    10.004   .     S
V4     Er6    10.017   .     S
V4     V5    9.998   .     S
V4     V7    9.982   1_655     S
V4     V7    9.982   .     S
V4     Er9    10.004   .     S
V4     Er6    9.977   1_655     S
V5     Er6    10.017   1_655     S
V5     V2    10.029   1_545     S
V5     V8    9.982   1_455     S
V5     V8    9.982   .     S
V5     Er9    10.004   .     S
V5     Er6    9.977   .     S
Er6     V5    10.017   1_455     S
Er6     Er18    10.023   .     S
Er6     V7    10.004   .     S
Er6     V8    10.004   1_455     S
Er6     V4    9.977   1_455     S
V7     Er9    10.017   1_455     S
V7     V11    10.029   .     S
V7     V8    9.998   1_455     S
V7     V4    9.982   1_455     S
V7     Er9    9.977   .     S
V8     Er9    10.017   1_655     S
V8     V10    10.029   1_545     S
V8     V7    9.998   1_655     S
V8     V5    9.982   1_655     S
V8     Er6    10.004   1_655     S
V8     Er9    9.977   .     S
Er9     V8    10.017   1_455     S
Er9     V7    10.017   1_655     S
Er9     Er24    10.023   .     S
V10     Er12    10.017   .     S
V10     V8    10.029   1_565     S
V10     V11    9.998   .     S
V10     V2    9.982   1_655     S
V10     Er12    9.977   1_655     S
V11     Er12    10.017   1_655     S
V11     V1    9.982   1_455     S
V11     Er12    9.977   .     S
Er12     V11    10.017   1_455     S
Er12     Er15    10.023   .     S
Er12     V1    10.004   1_455     S
Er12     V10    9.977   1_455     S
V13     Er15    10.017   .     S
V13     V22    10.029   .     S
V13     V14    9.998   .     S
V13     V20    9.982   1_654     S
V13     V20    9.982   1_554     S
V13     Er21    10.004   1_554     S
V13     Er15    9.977   1_655     S
V14     Er15    10.017   1_655     S
V14     V23    10.029   1_565     S
V14     V19    9.982   1_554     S
V14     Er21    10.004   1_554     S
V14     V19    9.982   1_454     S
V14     Er15    9.977   .     S
Er15     V14    10.017   1_455     S
Er15     V20    10.004   1_554     S
Er15     V19    10.004   1_454     S
Er15     V13    9.977   1_455     S
V16     Er18    10.017   .     S
V16     V19    10.029   1_545     S
V16     V17    9.998   .     S
V16     V23    9.982   1_656     S
V16     V23    9.982   1_556     S
V16     Er24    10.004   1_556     S
V16     Er18    9.977   1_655     S
V17     Er18    10.017   1_655     S
V17     V20    10.029   .     S
V17     V22    9.982   1_556     S
V17     Er24    10.004   1_556     S
V17     V22    9.982   1_456     S
V17     Er18    9.977   .     S
Er18     V17    10.017   1_455     S
Er18     V23    10.004   1_556     S
Er18     V22    10.004   1_456     S
Er18     V16    9.977   1_455     S
V19     V16    10.029   1_565     S
V19     Er21    10.017   1_655     S
V19     V14    9.982   1_556     S
V19     V20    9.998   1_655     S
V19     V14    9.982   1_656     S
V19     Er15    10.004   1_656     S
V19     Er21    9.977   .     S
V20     Er21    10.017   1_455     S
V20     V13    9.982   1_456     S
V20     Er15    10.004   1_556     S
V20     V19    9.998   1_455     S
V20     V13    9.982   1_556     S
V20     Er21    9.977   .     S
Er21     V19    10.017   1_455     S
Er21     V20    10.017   1_655     S
Er21     V14    10.004   1_556     S
Er21     V13    10.004   1_556     S
V22     Er24    10.017   1_655     S
V22     V17    9.982   1_554     S
V22     V23    9.998   1_655     S
V22     V17    9.982   1_654     S
V22     Er18    10.004   1_654     S
V22     Er24    9.977   .     S
V23     Er24    10.017   1_455     S
V23     V14    10.029   1_545     S
V23     V22    9.998   1_455     S
V23     V16    9.982   1_454     S
V23     Er18    10.004   1_554     S
V23     V16    9.982   1_554     S
V23     Er24    9.977   .     S
Er24     V22    10.017   1_455     S
Er24     V23    10.017   1_655     S
Er24     V17    10.004   1_554     S
Er24     V16    10.004   1_554     S
