data_bwt
_audit_creation_date              2020-02-02
_audit_creation_method            'Pymatgen'
_symmetry_space_group_name_H-M    'P1'
_symmetry_Int_Tables_number       1
loop_
_symmetry_equiv_pos_as_xyz
  x,y,z
_cell_length_a                    39.9999
_cell_length_b                    39.9999
_cell_length_c                    39.9999
_cell_angle_alpha                 90.0
_cell_angle_beta                 90.0
_cell_angle_gamma                 90.0
loop_
_atom_site_label
_atom_site_type_symbol
_atom_site_fract_x
_atom_site_fract_y
_atom_site_fract_z
V1     V     0.4955   0.2503   0.7165
Er2     Er     0.4958   0.25   0.9665
V3     V     0.4955   0.2497   0.2165
Er4     Er     0.4958   0.25   0.4665
V5     V     0.2503   0.7165   0.4955
Er6     Er     0.25   0.9665   0.4958
V7     V     0.2497   0.2165   0.4955
Er8     Er     0.25   0.4665   0.4958
V9     V     0.5045   0.7503   0.7835
Er10     Er     0.5042   0.75   0.5335
V11     V     0.5045   0.7497   0.2835
Er12     Er     0.5042   0.75   0.0335
V13     V     0.0045   0.7503   0.7165
Er14     Er     0.0042   0.75   0.9665
V15     V     0.0045   0.7497   0.2165
Er16     Er     0.0042   0.75   0.4665
V17     V     0.7835   0.9955   0.2503
Er18     Er     0.5335   0.9958   0.25
V19     V     0.2835   0.9955   0.2497
Er20     Er     0.0335   0.9958   0.25
V21     V     0.7165   0.0045   0.7503
Er22     Er     0.9665   0.0042   0.75
V23     V     0.2165   0.0045   0.7497
Er24     Er     0.4665   0.0042   0.75
V25     V     0.2503   0.7835   0.9955
Er26     Er     0.25   0.5335   0.9958
V27     V     0.2497   0.2835   0.9955
Er28     Er     0.25   0.0335   0.9958
V29     V     0.7835   0.5045   0.7503
Er30     Er     0.5335   0.5042   0.75
V31     V     0.2835   0.5045   0.7497
Er32     Er     0.0335   0.5042   0.75
V33     V     0.2165   0.4955   0.2497
Er34     Er     0.4665   0.4958   0.25
V35     V     0.7165   0.4955   0.2503
Er36     Er     0.9665   0.4958   0.25
V37     V     0.7503   0.7835   0.5045
Er38     Er     0.75   0.5335   0.5042
V39     V     0.7497   0.2835   0.5045
Er40     Er     0.75   0.0335   0.5042
V41     V     0.7497   0.2165   0.0045
Er42     Er     0.75   0.4665   0.0042
V43     V     0.7503   0.7165   0.0045
Er44     Er     0.75   0.9665   0.0042
V45     V     0.9955   0.2503   0.7835
Er46     Er     0.9958   0.25   0.5335
V47     V     0.9955   0.2497   0.2835
Er48     Er     0.9958   0.25   0.0335
loop_
_geom_bond_atom_site_label_1
_geom_bond_atom_site_label_2
_geom_bond_distance
_geom_bond_site_symmetry_2
_ccdc_geom_bond_type
V1     Er24    10.0   .     S
V1     Er2    10.0   .     S
V1     Er4    10.0   .     S
Er2     V3    10.0   1_556     S
Er2     V27    10.0   .     S
V3     Er34    10.0   .     S
V3     Er4    10.0   .     S
V3     Er2    10.0   1_554     S
Er4     V7    10.0   .     S
V5     Er16    10.0   .     S
V5     Er6    10.0   .     S
V5     Er8    10.0   .     S
Er6     V7    10.0   1_565     S
Er6     V19    10.0   .     S
V7     Er8    10.0   .     S
V7     Er6    10.0   1_545     S
Er8     V33    10.0   .     S
V9     Er30    10.0   .     S
V9     Er10    10.0   .     S
V9     Er12    10.0   1_556     S
Er10     V11    10.0   .     S
Er10     V37    10.0   .     S
V11     Er18    10.0   .     S
V11     Er12    10.0   .     S
Er12     V9    10.0   1_554     S
Er12     V43    10.0   .     S
V13     Er32    10.0   .     S
V13     Er14    10.0   .     S
V13     Er16    10.0   .     S
Er14     V15    10.0   1_556     S
Er14     V25    10.0   .     S
V15     Er20    10.0   .     S
V15     Er16    10.0   .     S
V15     Er14    10.0   1_554     S
V17     Er44    10.0   .     S
V17     Er18    10.0   .     S
V17     Er20    10.0   1_655     S
Er18     V19    10.0   .     S
V19     Er20    10.0   .     S
Er20     V17    10.0   1_455     S
V21     Er40    10.0   .     S
V21     Er22    10.0   .     S
V21     Er24    10.0   .     S
Er22     V23    10.0   1_655     S
Er22     V45    10.0   .     S
V23     Er28    10.0   .     S
V23     Er24    10.0   .     S
V23     Er22    10.0   1_455     S
V25     Er26    10.0   .     S
V25     Er28    10.0   1_565     S
Er26     V27    10.0   .     S
Er26     V31    10.0   .     S
V27     Er28    10.0   .     S
Er28     V25    10.0   1_545     S
V29     Er38    10.0   .     S
V29     Er30    10.0   .     S
V29     Er32    10.0   1_655     S
Er30     V31    10.0   .     S
V31     Er32    10.0   .     S
Er32     V29    10.0   1_455     S
V33     Er34    10.0   .     S
V33     Er36    10.0   1_455     S
Er34     V35    10.0   .     S
V35     Er42    10.0   .     S
V35     Er36    10.0   .     S
Er36     V33    10.0   1_655     S
Er36     V47    10.0   .     S
V37     Er38    10.0   .     S
V37     Er40    10.0   1_565     S
Er38     V39    10.0   .     S
V39     Er46    10.0   .     S
V39     Er40    10.0   .     S
Er40     V37    10.0   1_545     S
V41     Er48    10.0   .     S
V41     Er42    10.0   .     S
V41     Er44    10.0   1_545     S
Er42     V43    10.0   .     S
V43     Er44    10.0   .     S
Er44     V41    10.0   1_565     S
V45     Er46    10.0   .     S
V45     Er48    10.0   1_556     S
Er46     V47    10.0   .     S
V47     Er48    10.0   .     S
Er48     V45    10.0   1_554     S
