data_byl
_audit_creation_date              2020-02-02
_audit_creation_method            'Pymatgen'
_symmetry_space_group_name_H-M    'P1'
_symmetry_Int_Tables_number       1
loop_
_symmetry_equiv_pos_as_xyz
  x,y,z
_cell_length_a                    48.9305
_cell_length_b                    27.8685
_cell_length_c                    27.9752
_cell_angle_alpha                 90.0
_cell_angle_beta                 90.0
_cell_angle_gamma                 90.0
loop_
_atom_site_label
_atom_site_type_symbol
_atom_site_fract_x
_atom_site_fract_y
_atom_site_fract_z
Er1     Er     0.8397   0.4294   0.8357
Er2     Er     0.8397   0.0706   0.8357
Er3     Er     0.1603   0.4294   0.8357
Er4     Er     0.1603   0.0706   0.8357
V5     V     0.0   0.5706   0.6643
V6     V     0.0   0.9294   0.6643
Er7     Er     0.6603   0.4294   0.6643
Er8     Er     0.6603   0.0706   0.6643
V9     V     0.5   0.5706   0.8357
V10     V     0.5   0.9294   0.8357
Er11     Er     0.3397   0.4294   0.6643
Er12     Er     0.3397   0.0706   0.6643
Er13     Er     0.8397   0.5706   0.1643
Er14     Er     0.8397   0.9294   0.1643
Er15     Er     0.1603   0.5706   0.1643
Er16     Er     0.1603   0.9294   0.1643
V17     V     0.0   0.0706   0.3357
V18     V     0.0   0.4294   0.3357
Er19     Er     0.3397   0.9294   0.3357
Er20     Er     0.3397   0.5706   0.3357
V21     V     0.5   0.4294   0.1643
V22     V     0.5   0.0706   0.1643
Er23     Er     0.6603   0.5706   0.3357
Er24     Er     0.6603   0.9294   0.3357
loop_
_geom_bond_atom_site_label_1
_geom_bond_atom_site_label_2
_geom_bond_distance
_geom_bond_site_symmetry_2
_ccdc_geom_bond_type
Er1     Er2    10.0   .     S
Er1     V5    10.0   1_655     S
Er1     Er7    10.0   .     S
Er1     Er13    10.0   1_556     S
Er2     V6    10.0   1_645     S
Er2     Er8    10.0   .     S
Er2     Er14    10.0   1_546     S
Er3     Er4    10.0   .     S
Er3     V5    10.0   .     S
Er3     Er11    10.0   .     S
Er3     Er15    10.0   1_556     S
Er4     V6    10.0   1_545     S
Er4     Er12    10.0   .     S
Er4     Er16    10.0   1_546     S
V5     V6    10.0   .     S
V5     Er1    10.0   1_455     S
V5     V18    10.0   .     S
V6     Er2    10.0   1_465     S
V6     Er4    10.0   1_565     S
V6     V17    10.0   1_565     S
Er7     Er8    10.0   .     S
Er7     V9    10.0   .     S
Er7     Er23    10.0   .     S
Er8     V10    10.0   1_545     S
Er8     Er24    10.0   1_545     S
V9     V10    10.0   .     S
V9     Er11    10.0   .     S
V9     V21    10.0   1_556     S
V10     Er8    10.0   1_565     S
V10     Er12    10.0   1_565     S
V10     V22    10.0   1_566     S
Er11     Er12    10.0   .     S
Er11     Er20    10.0   .     S
Er12     V10    10.0   1_545     S
Er12     Er19    10.0   1_545     S
Er13     Er14    10.0   .     S
Er13     V18    10.0   1_655     S
Er13     Er23    10.0   .     S
Er13     Er1    10.0   1_554     S
Er14     V17    10.0   1_665     S
Er14     Er24    10.0   .     S
Er14     Er2    10.0   1_564     S
Er15     Er16    10.0   .     S
Er15     V18    10.0   .     S
Er15     Er20    10.0   .     S
Er15     Er3    10.0   1_554     S
Er16     V17    10.0   1_565     S
Er16     Er19    10.0   .     S
Er16     Er4    10.0   1_564     S
V17     V18    10.0   .     S
V17     Er14    10.0   1_445     S
V17     Er16    10.0   1_545     S
V17     V6    10.0   1_545     S
V18     Er13    10.0   1_455     S
Er19     Er20    10.0   .     S
Er19     V22    10.0   1_565     S
Er19     Er12    10.0   1_565     S
Er20     V21    10.0   .     S
V21     V22    10.0   .     S
V21     Er23    10.0   .     S
V21     V9    10.0   1_554     S
V22     Er24    10.0   1_545     S
V22     Er19    10.0   1_545     S
V22     V10    10.0   1_544     S
Er23     Er24    10.0   .     S
Er24     V22    10.0   1_565     S
Er24     Er8    10.0   1_565     S
