data_cal
_audit_creation_date              2020-02-02
_audit_creation_method            'Pymatgen'
_symmetry_space_group_name_H-M    'P1'
_symmetry_Int_Tables_number       1
loop_
_symmetry_equiv_pos_as_xyz
  x,y,z
_cell_length_a                    20.916
_cell_length_b                    20.916
_cell_length_c                    17.6569
_cell_angle_alpha                 90.0
_cell_angle_beta                 90.0
_cell_angle_gamma                 90.0
loop_
_atom_site_label
_atom_site_type_symbol
_atom_site_fract_x
_atom_site_fract_y
_atom_site_fract_z
Er1     Er     0.5   0.5   0.75
Er2     Er     0.5   0.5   0.25
V3     V     0.3458   0.8458   0.5
V4     V     0.8458   0.3458   0.0
Er5     Er     0.0   0.0   0.25
Er6     Er     0.0   0.0   0.75
V7     V     0.3458   0.1542   0.0
V8     V     0.1542   0.3458   0.5
V9     V     0.6542   0.1542   0.5
V10     V     0.1542   0.6542   0.0
V11     V     0.6542   0.8458   0.0
V12     V     0.8458   0.6542   0.5
loop_
_geom_bond_atom_site_label_1
_geom_bond_atom_site_label_2
_geom_bond_distance
_geom_bond_site_symmetry_2
_ccdc_geom_bond_type
Er1     Er2    8.828   .     S
Er1     Er2    8.828   1_556     S
Er1     V4    9.067   1_556     S
Er1     V7    9.067   1_556     S
Er1     V8    9.067   .     S
Er1     V10    9.067   1_556     S
Er1     V11    9.067   1_556     S
Er1     V3    9.067   .     S
Er1     V12    9.067   .     S
Er1     V9    9.067   .     S
Er2     Er1    8.828   1_554     S
Er2     V4    9.067   .     S
Er2     V7    9.067   .     S
Er2     V8    9.067   .     S
Er2     V10    9.067   .     S
Er2     V11    9.067   .     S
Er2     V3    9.067   .     S
Er2     V12    9.067   .     S
Er2     V9    9.067   .     S
V3     V7    10.933   1_565     S
V3     V7    10.933   1_566     S
V3     V11    10.933   1_556     S
V3     V11    10.933   .     S
V3     V12    11.2   1_455     S
V3     V12    11.2   .     S
V3     V8    11.2   .     S
V3     V8    11.2   1_565     S
V3     V9    9.12   1_565     S
V3     Er5    9.067   1_565     S
V3     Er6    9.067   1_565     S
V3     V10    10.492   1_556     S
V3     V10    10.492   .     S
V4     V8    10.933   1_655     S
V4     V8    10.933   1_654     S
V4     V12    10.933   1_554     S
V4     V12    10.933   .     S
V4     V11    11.2   1_545     S
V4     V11    11.2   .     S
V4     V7    11.2   .     S
V4     V7    11.2   1_655     S
V4     V10    9.12   1_655     S
V4     Er1    9.067   1_554     S
V4     Er5    9.067   1_655     S
V4     Er6    9.067   1_654     S
V4     V9    10.492   1_554     S
V4     V9    10.492   .     S
Er5     Er6    8.828   1_554     S
Er5     Er6    8.828   .     S
Er5     V3    9.067   1_545     S
Er5     V4    9.067   1_455     S
Er5     V8    9.067   .     S
Er5     V12    9.067   1_445     S
Er5     V9    9.067   1_455     S
Er5     V10    9.067   1_545     S
Er5     V11    9.067   1_445     S
Er5     V7    9.067   .     S
Er6     Er5    8.828   1_556     S
Er6     V3    9.067   1_545     S
Er6     V4    9.067   1_456     S
Er6     V8    9.067   .     S
Er6     V12    9.067   1_445     S
Er6     V9    9.067   1_455     S
Er6     V10    9.067   1_546     S
Er6     V11    9.067   1_446     S
Er6     V7    9.067   1_556     S
V7     V3    10.933   1_545     S
V7     V3    10.933   1_544     S
V7     V9    10.933   1_554     S
V7     V9    10.933   .     S
V7     V10    11.2   1_545     S
V7     V4    11.2   1_455     S
V7     V10    11.2   .     S
V7     V11    9.12   1_545     S
V7     Er1    9.067   1_554     S
V7     Er6    9.067   1_554     S
V7     V8    10.492   1_554     S
V7     V8    10.492   .     S
V8     V4    10.933   1_455     S
V8     V4    10.933   1_456     S
V8     V10    10.933   1_556     S
V8     V10    10.933   .     S
V8     V9    11.2   1_455     S
V8     V3    11.2   1_545     S
V8     V9    11.2   .     S
V8     V12    9.12   1_455     S
V8     V7    10.492   1_556     S
V9     V7    10.933   1_556     S
V9     V11    10.933   1_546     S
V9     V11    10.933   1_545     S
V9     V12    11.2   1_545     S
V9     V8    11.2   1_655     S
V9     V12    11.2   .     S
V9     V3    9.12   1_545     S
V9     Er5    9.067   1_655     S
V9     Er6    9.067   1_655     S
V9     V4    10.492   1_556     S
V10     V8    10.933   1_554     S
V10     V12    10.933   1_454     S
V10     V12    10.933   1_455     S
V10     V11    11.2   1_455     S
V10     V7    11.2   1_565     S
V10     V11    11.2   .     S
V10     V4    9.12   1_455     S
V10     Er1    9.067   1_554     S
V10     Er5    9.067   1_565     S
V10     Er6    9.067   1_564     S
V10     V3    10.492   1_554     S
V11     V9    10.933   1_564     S
V11     V3    10.933   1_554     S
V11     V9    10.933   1_565     S
V11     V4    11.2   1_565     S
V11     V10    11.2   1_655     S
V11     V7    9.12   1_565     S
V11     Er1    9.067   1_554     S
V11     Er5    9.067   1_665     S
V11     Er6    9.067   1_664     S
V11     V12    10.492   .     S
V11     V12    10.492   1_554     S
V12     V10    10.933   1_656     S
V12     V4    10.933   1_556     S
V12     V10    10.933   1_655     S
V12     V3    11.2   1_655     S
V12     V9    11.2   1_565     S
V12     V8    9.12   1_655     S
V12     Er5    9.067   1_665     S
V12     Er6    9.067   1_665     S
V12     V11    10.492   1_556     S
