data_cald
_audit_creation_date              2020-02-02
_audit_creation_method            'Pymatgen'
_symmetry_space_group_name_H-M    'P1'
_symmetry_Int_Tables_number       1
loop_
_symmetry_equiv_pos_as_xyz
  x,y,z
_cell_length_a                    52.3438
_cell_length_b                    52.3438
_cell_length_c                    42.5317
_cell_angle_alpha                 90.0
_cell_angle_beta                 90.0
_cell_angle_gamma                 90.0
loop_
_atom_site_label
_atom_site_type_symbol
_atom_site_fract_x
_atom_site_fract_y
_atom_site_fract_z
Ti1     Ti     0.6243   0.5529   0.0
Ce2     Ce     0.7124   0.588   0.7958
Ce3     Ce     0.588   0.7124   0.7042
Ti4     Ti     0.5529   0.6243   0.5
Ce5     Ce     0.588   0.7124   0.2958
Ce6     Ce     0.7124   0.588   0.2042
Ti7     Ti     0.0529   0.8757   0.5
Ce8     Ce     0.2124   0.912   0.2042
Ce9     Ce     0.088   0.7876   0.2958
Ti10     Ti     0.1243   0.9471   0.0
Ce11     Ce     0.2124   0.912   0.7958
Ce12     Ce     0.088   0.7876   0.7042
Ti13     Ti     0.9471   0.8757   0.0
Ce14     Ce     0.912   0.7876   0.7958
Ce15     Ce     0.7876   0.912   0.7042
Ti16     Ti     0.8757   0.9471   0.5
Ce17     Ce     0.912   0.7876   0.2042
Ce18     Ce     0.7876   0.912   0.2958
Ti19     Ti     0.8757   0.0529   0.0
Ce20     Ce     0.912   0.2124   0.7042
Ce21     Ce     0.7876   0.088   0.7958
Ti22     Ti     0.9471   0.1243   0.5
Ce23     Ce     0.912   0.2124   0.2958
Ce24     Ce     0.7876   0.088   0.2042
Ti25     Ti     0.0529   0.1243   0.0
Ce26     Ce     0.088   0.2124   0.7958
Ce27     Ce     0.2124   0.088   0.7042
Ti28     Ti     0.1243   0.0529   0.5
Ce29     Ce     0.088   0.2124   0.2042
Ce30     Ce     0.2124   0.088   0.2958
Ti31     Ti     0.6243   0.4471   0.5
Ce32     Ce     0.588   0.2876   0.2042
Ce33     Ce     0.7124   0.412   0.2958
Ti34     Ti     0.5529   0.3757   0.0
Ce35     Ce     0.588   0.2876   0.7958
Ce36     Ce     0.7124   0.412   0.7042
Er37     Er     0.6116   0.8884   0.6176
Er38     Er     0.6116   0.8884   0.3824
Er39     Er     0.3884   0.8884   0.8824
Er40     Er     0.3884   0.8884   0.1176
Er41     Er     0.6116   0.1116   0.8824
Er42     Er     0.6116   0.1116   0.1176
Er43     Er     0.3884   0.1116   0.6176
Er44     Er     0.3884   0.1116   0.3824
V45     V     0.5   0.0   0.75
V46     V     0.5   0.0   0.25
Ti47     Ti     0.3757   0.4471   0.0
Ce48     Ce     0.2876   0.412   0.7958
Ce49     Ce     0.412   0.2876   0.7042
Ti50     Ti     0.4471   0.3757   0.5
Ce51     Ce     0.2876   0.412   0.2042
Ce52     Ce     0.412   0.2876   0.2958
Ti53     Ti     0.4471   0.6243   0.0
Ce54     Ce     0.2876   0.588   0.7042
Ce55     Ce     0.412   0.7124   0.7958
Ti56     Ti     0.3757   0.5529   0.5
Ce57     Ce     0.2876   0.588   0.2958
Ce58     Ce     0.412   0.7124   0.2042
Er59     Er     0.8884   0.3884   0.3824
Er60     Er     0.8884   0.3884   0.6176
Er61     Er     0.8884   0.6116   0.8824
Er62     Er     0.8884   0.6116   0.1176
Er63     Er     0.1116   0.6116   0.6176
Er64     Er     0.1116   0.6116   0.3824
Er65     Er     0.1116   0.3884   0.8824
Er66     Er     0.1116   0.3884   0.1176
V67     V     0.0   0.5   0.75
V68     V     0.0   0.5   0.25
loop_
_geom_bond_atom_site_label_1
_geom_bond_atom_site_label_2
_geom_bond_distance
_geom_bond_site_symmetry_2
_ccdc_geom_bond_type
Ti1     Ti53    10.0   .     S
Ti1     Ce2    10.0   1_554     S
Ti1     Ce6    10.0   .     S
Ti1     Ti34    10.0   .     S
Ce2     Ce3    10.0   .     S
Ce2     Ti1    10.0   1_556     S
Ce2     Er61    10.0   .     S
Ce2     Ce36    10.0   .     S
Ce3     Ti4    10.0   .     S
Ce3     Er37    10.0   .     S
Ce3     Ce55    10.0   .     S
Ti4     Ti31    10.0   .     S
Ti4     Ce5    10.0   .     S
Ti4     Ti56    10.0   .     S
Ce5     Ce6    10.0   .     S
Ce5     Er38    10.0   .     S
Ce5     Ce58    10.0   .     S
Ce6     Er62    10.0   .     S
Ce6     Ce33    10.0   .     S
Ti7     Ti28    10.0   1_565     S
Ti7     Ce9    10.0   .     S
Ti7     Ce12    10.0   .     S
Ti7     Ti16    10.0   1_455     S
Ce8     Ce9    10.0   .     S
Ce8     Ti10    10.0   .     S
Ce8     Er40    10.0   .     S
Ce8     Ce30    10.0   1_565     S
Ce9     Er64    10.0   .     S
Ce9     Ce17    10.0   1_455     S
Ti10     Ti13    10.0   1_455     S
Ti10     Ce11    10.0   1_554     S
Ti10     Ti25    10.0   1_565     S
Ce11     Ce12    10.0   .     S
Ce11     Ti10    10.0   1_556     S
Ce11     Er39    10.0   .     S
Ce11     Ce27    10.0   1_565     S
Ce12     Er63    10.0   .     S
Ce12     Ce14    10.0   1_455     S
Ti13     Ti10    10.0   1_655     S
Ti13     Ti19    10.0   1_565     S
Ti13     Ce14    10.0   1_554     S
Ti13     Ce17    10.0   .     S
Ce14     Ce15    10.0   .     S
Ce14     Ti13    10.0   1_556     S
Ce14     Er61    10.0   .     S
Ce14     Ce12    10.0   1_655     S
Ce15     Ti16    10.0   .     S
Ce15     Er37    10.0   .     S
Ce15     Ce21    10.0   1_565     S
Ti16     Ti7    10.0   1_655     S
Ti16     Ce18    10.0   .     S
Ti16     Ti22    10.0   1_565     S
Ce17     Ce18    10.0   .     S
Ce17     Er62    10.0   .     S
Ce17     Ce9    10.0   1_655     S
Ce18     Er38    10.0   .     S
Ce18     Ce24    10.0   1_565     S
Ti19     Ti13    10.0   1_545     S
Ti19     Ti25    10.0   1_655     S
Ti19     Ce21    10.0   1_554     S
Ti19     Ce24    10.0   .     S
Ce20     Ce21    10.0   .     S
Ce20     Ti22    10.0   .     S
Ce20     Er60    10.0   .     S
Ce20     Ce26    10.0   1_655     S
Ce21     Ti19    10.0   1_556     S
Ce21     Er41    10.0   .     S
Ce21     Ce15    10.0   1_545     S
Ti22     Ti16    10.0   1_545     S
Ti22     Ce23    10.0   .     S
Ti22     Ti28    10.0   1_655     S
Ce23     Ce24    10.0   .     S
Ce23     Er59    10.0   .     S
Ce23     Ce29    10.0   1_655     S
Ce24     Er42    10.0   .     S
Ce24     Ce18    10.0   1_545     S
Ti25     Ti19    10.0   1_455     S
Ti25     Ti10    10.0   1_545     S
Ti25     Ce26    10.0   1_554     S
Ti25     Ce29    10.0   .     S
Ce26     Ce27    10.0   .     S
Ce26     Ti25    10.0   1_556     S
Ce26     Er65    10.0   .     S
Ce26     Ce20    10.0   1_455     S
Ce27     Ti28    10.0   .     S
Ce27     Er43    10.0   .     S
Ce27     Ce11    10.0   1_545     S
Ti28     Ti7    10.0   1_545     S
Ti28     Ti22    10.0   1_455     S
Ti28     Ce30    10.0   .     S
Ce29     Ce30    10.0   .     S
Ce29     Er66    10.0   .     S
Ce29     Ce23    10.0   1_455     S
Ce30     Er44    10.0   .     S
Ce30     Ce8    10.0   1_545     S
Ti31     Ti50    10.0   .     S
Ti31     Ce33    10.0   .     S
Ti31     Ce36    10.0   .     S
Ce32     Ce33    10.0   .     S
Ce32     Ti34    10.0   .     S
Ce32     Er42    10.0   .     S
Ce32     Ce52    10.0   .     S
Ce33     Er59    10.0   .     S
Ti34     Ce35    10.0   1_554     S
Ti34     Ti47    10.0   .     S
Ce35     Ce36    10.0   .     S
Ce35     Ti34    10.0   1_556     S
Ce35     Er41    10.0   .     S
Ce35     Ce49    10.0   .     S
Ce36     Er60    10.0   .     S
Er37     Er38    10.0   .     S
Er37     V45    10.0   1_565     S
Er38     V46    10.0   1_565     S
Er39     Ce55    10.0   .     S
Er39     Er40    10.0   1_556     S
Er39     V45    10.0   1_565     S
Er40     Ce58    10.0   .     S
Er40     Er39    10.0   1_554     S
Er40     V46    10.0   1_565     S
Er41     Er42    10.0   1_556     S
Er41     V45    10.0   .     S
Er42     Er41    10.0   1_554     S
Er42     V46    10.0   .     S
Er43     Ce49    10.0   .     S
Er43     Er44    10.0   .     S
Er43     V45    10.0   .     S
Er44     Ce52    10.0   .     S
Er44     V46    10.0   .     S
V45     Er39    10.0   1_545     S
V45     Er37    10.0   1_545     S
V46     Er40    10.0   1_545     S
V46     Er38    10.0   1_545     S
Ti47     Ce48    10.0   1_554     S
Ti47     Ce51    10.0   .     S
Ti47     Ti53    10.0   .     S
Ce48     Ce49    10.0   .     S
Ce48     Ti47    10.0   1_556     S
Ce48     Er65    10.0   .     S
Ce48     Ce54    10.0   .     S
Ce49     Ti50    10.0   .     S
Ti50     Ti56    10.0   .     S
Ti50     Ce52    10.0   .     S
Ce51     Ce52    10.0   .     S
Ce51     Er66    10.0   .     S
Ce51     Ce57    10.0   .     S
Ti53     Ce55    10.0   1_554     S
Ti53     Ce58    10.0   .     S
Ce54     Ce55    10.0   .     S
Ce54     Ti56    10.0   .     S
Ce54     Er63    10.0   .     S
Ce55     Ti53    10.0   1_556     S
Ti56     Ce57    10.0   .     S
Ce57     Ce58    10.0   .     S
Ce57     Er64    10.0   .     S
Er59     Er60    10.0   .     S
Er59     V68    10.0   1_655     S
Er60     V67    10.0   1_655     S
Er61     Er62    10.0   1_556     S
Er61     V67    10.0   1_655     S
Er62     Er61    10.0   1_554     S
Er62     V68    10.0   1_655     S
Er63     Er64    10.0   .     S
Er63     V67    10.0   .     S
Er64     V68    10.0   .     S
Er65     Er66    10.0   1_556     S
Er65     V67    10.0   .     S
Er66     Er65    10.0   1_554     S
Er66     V68    10.0   .     S
V67     Er60    10.0   1_455     S
V67     Er61    10.0   1_455     S
V68     Er59    10.0   1_455     S
V68     Er62    10.0   1_455     S
