data_cbn
_audit_creation_date              2020-02-02
_audit_creation_method            'Pymatgen'
_symmetry_space_group_name_H-M    'P1'
_symmetry_Int_Tables_number       1
loop_
_symmetry_equiv_pos_as_xyz
  x,y,z
_cell_length_a                    59.1585
_cell_length_b                    16.4
_cell_length_c                    26.3698
_cell_angle_alpha                 90.0
_cell_angle_beta                 96.5006
_cell_angle_gamma                 90.0
loop_
_atom_site_label
_atom_site_type_symbol
_atom_site_fract_x
_atom_site_fract_y
_atom_site_fract_z
Ce1     Ce     0.2211   0.5   0.5801
Ce2     Ce     0.2789   0.0   0.4199
Ce3     Ce     0.7789   0.5   0.4199
Ce4     Ce     0.7211   0.0   0.5801
Er5     Er     0.9412   0.5   0.348
Er6     Er     0.0588   0.5   0.652
Ti7     Ti     0.211   0.0   0.055
Ti8     Ti     0.289   0.5   0.945
V9     V     0.9458   0.0   0.1323
V10     V     0.0542   0.0   0.8677
Ti11     Ti     0.711   0.5   0.055
Ti12     Ti     0.789   0.0   0.945
V13     V     0.5542   0.5   0.8677
V14     V     0.4458   0.5   0.1323
Er15     Er     0.5588   0.0   0.652
Er16     Er     0.4412   0.0   0.348
loop_
_geom_bond_atom_site_label_1
_geom_bond_atom_site_label_2
_geom_bond_distance
_geom_bond_site_symmetry_2
_ccdc_geom_bond_type
Ce1     Ti8    10.0   .     S
Ce1     Ce2    10.0   .     S
Ce1     Ce2    10.0   1_565     S
Ce1     Er6    10.0   .     S
Ce2     Ti7    10.0   .     S
Ce2     Ce1    10.0   1_545     S
Ce2     Er16    10.0   .     S
Ce3     Ti11    10.0   .     S
Ce3     Ce4    10.0   .     S
Ce3     Ce4    10.0   1_565     S
Ce3     Er5    10.0   .     S
Ce4     Ti12    10.0   .     S
Ce4     Ce3    10.0   1_545     S
Ce4     Er15    10.0   .     S
Er5     Er6    10.0   1_655     S
Er5     V9    10.0   1_565     S
Er5     V9    10.0   .     S
Er6     Er5    10.0   1_455     S
Er6     V10    10.0   1_565     S
Er6     V10    10.0   .     S
Ti7     Ti8    10.0   1_554     S
Ti7     Ti8    10.0   1_544     S
Ti7     V10    10.0   1_554     S
Ti8     Ti7    10.0   1_556     S
Ti8     Ti7    10.0   1_566     S
Ti8     V14    10.0   1_556     S
V9     Er5    10.0   1_545     S
V9     Ti12    10.0   1_554     S
V9     V10    10.0   1_654     S
V10     Er6    10.0   1_545     S
V10     Ti7    10.0   1_556     S
V10     V9    10.0   1_456     S
Ti11     Ti12    10.0   1_554     S
Ti11     Ti12    10.0   1_564     S
Ti11     V13    10.0   1_554     S
Ti12     V9    10.0   1_556     S
Ti12     Ti11    10.0   1_556     S
Ti12     Ti11    10.0   1_546     S
V13     Ti11    10.0   1_556     S
V13     V14    10.0   1_556     S
V13     Er15    10.0   .     S
V13     Er15    10.0   1_565     S
V14     Ti8    10.0   1_554     S
V14     V13    10.0   1_554     S
V14     Er16    10.0   .     S
V14     Er16    10.0   1_565     S
Er15     Er16    10.0   .     S
Er15     V13    10.0   1_545     S
Er16     V14    10.0   1_545     S
