data_cboe
_audit_creation_date              2020-02-02
_audit_creation_method            'Pymatgen'
_symmetry_space_group_name_H-M    'P1'
_symmetry_Int_Tables_number       1
loop_
_symmetry_equiv_pos_as_xyz
  x,y,z
_cell_length_a                    39.5679
_cell_length_b                    39.5679
_cell_length_c                    39.5679
_cell_angle_alpha                 90.0
_cell_angle_beta                 90.0
_cell_angle_gamma                 90.0
loop_
_atom_site_label
_atom_site_type_symbol
_atom_site_fract_x
_atom_site_fract_y
_atom_site_fract_z
Er1     Er     0.7811   0.4268   0.5729
Er2     Er     0.5729   0.7811   0.4268
Er3     Er     0.4268   0.5729   0.7811
V4     V     0.7631   0.6784   0.5578
V5     V     0.5578   0.7631   0.6784
V6     V     0.6784   0.5578   0.7631
Er7     Er     0.5732   0.4271   0.2189
Er8     Er     0.4271   0.2189   0.5732
Er9     Er     0.2189   0.5732   0.4271
V10     V     0.2369   0.3216   0.4422
V11     V     0.4422   0.2369   0.3216
V12     V     0.3216   0.4422   0.2369
Er13     Er     0.9271   0.2811   0.4268
Er14     Er     0.0732   0.0729   0.7811
Er15     Er     0.7189   0.9268   0.5729
V16     V     0.7369   0.1784   0.5578
V17     V     0.9422   0.2631   0.6784
V18     V     0.8216   0.0578   0.7631
Er19     Er     0.5732   0.0729   0.7189
Er20     Er     0.2189   0.9268   0.9271
Er21     Er     0.4271   0.2811   0.0732
V22     V     0.4422   0.2631   0.8216
V23     V     0.3216   0.0578   0.7369
V24     V     0.2369   0.1784   0.9422
Er25     Er     0.0729   0.7189   0.5732
Er26     Er     0.9268   0.9271   0.2189
Er27     Er     0.2811   0.0732   0.4271
V28     V     0.2631   0.8216   0.4422
V29     V     0.0578   0.7369   0.3216
V30     V     0.1784   0.9422   0.2369
Er31     Er     0.0729   0.7811   0.0732
Er32     Er     0.2811   0.4268   0.9271
Er33     Er     0.9268   0.5729   0.7189
V34     V     0.2631   0.6784   0.9422
V35     V     0.0578   0.7631   0.8216
V36     V     0.1784   0.5578   0.7369
Er37     Er     0.7189   0.5732   0.0729
Er38     Er     0.9271   0.2189   0.9268
Er39     Er     0.0732   0.4271   0.2811
V40     V     0.8216   0.4422   0.2631
V41     V     0.7369   0.3216   0.0578
V42     V     0.9422   0.2369   0.1784
Er43     Er     0.7811   0.0732   0.0729
Er44     Er     0.4268   0.9271   0.2811
Er45     Er     0.5729   0.7189   0.9268
V46     V     0.7631   0.8216   0.0578
V47     V     0.5578   0.7369   0.1784
V48     V     0.6784   0.9422   0.2631
loop_
_geom_bond_atom_site_label_1
_geom_bond_atom_site_label_2
_geom_bond_distance
_geom_bond_site_symmetry_2
_ccdc_geom_bond_type
Er1     Er33    10.0   .     S
Er1     V4    10.0   .     S
Er1     V6    10.0   .     S
Er1     Er13    10.0   .     S
Er1     V16    10.0   .     S
Er1     V17    10.0   .     S
Er2     Er15    10.0   .     S
Er2     V5    10.0   .     S
Er2     V4    10.0   .     S
Er2     Er44    10.0   .     S
Er2     V47    10.0   .     S
Er2     V48    10.0   .     S
Er3     Er45    10.0   .     S
Er3     V6    10.0   .     S
Er3     V5    10.0   .     S
Er3     Er32    10.0   .     S
Er3     V36    10.0   .     S
Er3     V34    10.0   .     S
V4     V6    10.0   .     S
V4     Er15    10.0   .     S
V4     V5    10.0   .     S
V4     Er33    10.0   .     S
V5     Er45    10.0   .     S
V5     V6    10.0   .     S
V5     Er15    10.0   .     S
V6     Er33    10.0   .     S
V6     Er45    10.0   .     S
Er7     Er21    10.0   .     S
Er7     V12    10.0   .     S
Er7     V11    10.0   .     S
Er7     Er37    10.0   .     S
Er7     V40    10.0   .     S
Er7     V41    10.0   .     S
Er8     Er27    10.0   .     S
Er8     V11    10.0   .     S
Er8     V10    10.0   .     S
Er8     Er19    10.0   .     S
Er8     V22    10.0   .     S
Er8     V23    10.0   .     S
Er9     Er39    10.0   .     S
Er9     V10    10.0   .     S
Er9     V12    10.0   .     S
Er9     Er25    10.0   .     S
Er9     V28    10.0   .     S
Er9     V29    10.0   .     S
V10     Er27    10.0   .     S
V10     V11    10.0   .     S
V10     V12    10.0   .     S
V10     Er39    10.0   .     S
V11     Er21    10.0   .     S
V11     V12    10.0   .     S
V11     Er27    10.0   .     S
V12     Er39    10.0   .     S
V12     Er21    10.0   .     S
Er13     V17    10.0   .     S
Er13     V16    10.0   .     S
Er13     Er39    10.0   1_655     S
Er13     V42    10.0   .     S
Er13     V40    10.0   .     S
Er14     Er38    10.0   1_455     S
Er14     V18    10.0   1_455     S
Er14     V17    10.0   1_455     S
Er14     Er20    10.0   1_545     S
Er14     V23    10.0   .     S
Er14     V24    10.0   .     S
Er15     Er19    10.0   1_565     S
Er15     V16    10.0   1_565     S
Er15     V18    10.0   1_565     S
V16     V17    10.0   .     S
V16     Er15    10.0   1_545     S
V16     V18    10.0   .     S
V16     Er19    10.0   .     S
V17     Er14    10.0   1_655     S
V17     Er38    10.0   .     S
V17     V18    10.0   .     S
V18     Er14    10.0   1_655     S
V18     Er15    10.0   1_545     S
V18     Er19    10.0   .     S
V18     Er38    10.0   .     S
Er19     Er15    10.0   1_545     S
Er19     V23    10.0   .     S
Er19     V22    10.0   .     S
Er20     Er14    10.0   1_565     S
Er20     V24    10.0   1_565     S
Er20     V23    10.0   1_565     S
Er20     Er31    10.0   1_556     S
Er20     V34    10.0   .     S
Er20     V35    10.0   .     S
Er21     Er32    10.0   1_554     S
Er21     V22    10.0   1_554     S
Er21     V24    10.0   1_554     S
V22     V23    10.0   .     S
V22     Er21    10.0   1_556     S
V22     V24    10.0   .     S
V22     Er32    10.0   .     S
V23     Er20    10.0   1_545     S
V23     V24    10.0   .     S
V24     Er20    10.0   1_545     S
V24     Er21    10.0   1_556     S
V24     Er32    10.0   .     S
Er25     V29    10.0   .     S
Er25     V28    10.0   .     S
Er25     Er33    10.0   1_455     S
Er25     V35    10.0   .     S
Er25     V36    10.0   .     S
Er26     Er31    10.0   1_655     S
Er26     V30    10.0   1_655     S
Er26     V29    10.0   1_655     S
Er26     Er43    10.0   1_565     S
Er26     V48    10.0   .     S
Er26     V46    10.0   .     S
Er27     Er44    10.0   1_545     S
Er27     V28    10.0   1_545     S
Er27     V30    10.0   1_545     S
V28     V29    10.0   .     S
V28     Er27    10.0   1_565     S
V28     V30    10.0   .     S
V28     Er44    10.0   .     S
V29     Er26    10.0   1_455     S
V29     Er31    10.0   .     S
V29     V30    10.0   .     S
V30     Er26    10.0   1_455     S
V30     Er27    10.0   1_565     S
V30     Er44    10.0   .     S
V30     Er31    10.0   .     S
Er31     Er26    10.0   1_455     S
Er31     Er20    10.0   1_554     S
Er31     V35    10.0   1_554     S
Er31     V34    10.0   1_554     S
Er32     Er21    10.0   1_556     S
Er32     V34    10.0   .     S
Er32     V36    10.0   .     S
Er33     Er25    10.0   1_655     S
Er33     V36    10.0   1_655     S
Er33     V35    10.0   1_655     S
V34     Er31    10.0   1_556     S
V34     V35    10.0   .     S
V34     V36    10.0   .     S
V35     Er31    10.0   1_556     S
V35     Er33    10.0   1_455     S
V35     V36    10.0   .     S
V36     Er33    10.0   1_455     S
Er37     V41    10.0   .     S
Er37     V40    10.0   .     S
Er37     Er45    10.0   1_554     S
Er37     V46    10.0   .     S
Er37     V47    10.0   .     S
Er38     Er14    10.0   1_655     S
Er38     Er43    10.0   1_556     S
Er38     V42    10.0   1_556     S
Er38     V41    10.0   1_556     S
Er39     Er13    10.0   1_455     S
Er39     V40    10.0   1_455     S
Er39     V42    10.0   1_455     S
V40     V41    10.0   .     S
V40     Er39    10.0   1_655     S
V40     V42    10.0   .     S
V41     Er38    10.0   1_554     S
V41     Er43    10.0   .     S
V41     V42    10.0   .     S
V42     Er38    10.0   1_554     S
V42     Er39    10.0   1_655     S
V42     Er43    10.0   .     S
Er43     Er38    10.0   1_554     S
Er43     Er26    10.0   1_545     S
Er43     V46    10.0   1_545     S
Er43     V48    10.0   1_545     S
Er44     Er27    10.0   1_565     S
Er44     V48    10.0   .     S
Er44     V47    10.0   .     S
Er45     Er37    10.0   1_556     S
Er45     V47    10.0   1_556     S
Er45     V46    10.0   1_556     S
V46     Er43    10.0   1_565     S
V46     V48    10.0   .     S
V46     Er45    10.0   1_554     S
V46     V47    10.0   .     S
V47     V48    10.0   .     S
V47     Er45    10.0   1_554     S
V48     Er43    10.0   1_565     S
