data_cbt
_audit_creation_date              2020-02-02
_audit_creation_method            'Pymatgen'
_symmetry_space_group_name_H-M    'P1'
_symmetry_Int_Tables_number       1
loop_
_symmetry_equiv_pos_as_xyz
  x,y,z
_cell_length_a                    46.0858
_cell_length_b                    46.0858
_cell_length_c                    21.9973
_cell_angle_alpha                 90.0
_cell_angle_beta                 90.0
_cell_angle_gamma                 90.0
loop_
_atom_site_label
_atom_site_type_symbol
_atom_site_fract_x
_atom_site_fract_y
_atom_site_fract_z
V1     V     0.25   0.5092   0.375
V2     V     0.25   0.9908   0.875
Er3     Er     0.3557   0.6972   0.3235
Er4     Er     0.3557   0.8028   0.9265
Er5     Er     0.1443   0.6972   0.4265
Er6     Er     0.1443   0.8028   0.8235
V7     V     0.5092   0.75   0.625
V8     V     0.9908   0.75   0.125
Er9     Er     0.6972   0.8557   0.5735
Er10     Er     0.8028   0.8557   0.1765
Er11     Er     0.6972   0.6443   0.6765
Er12     Er     0.8028   0.6443   0.0735
V13     V     0.75   0.0092   0.875
V14     V     0.75   0.4908   0.375
Er15     Er     0.8557   0.3028   0.4265
Er16     Er     0.8557   0.1972   0.8235
Er17     Er     0.6443   0.1972   0.9265
Er18     Er     0.6443   0.3028   0.3235
V19     V     0.0092   0.25   0.125
V20     V     0.4908   0.25   0.625
Er21     Er     0.1972   0.3557   0.0735
Er22     Er     0.3028   0.3557   0.6765
Er23     Er     0.3028   0.1443   0.5735
Er24     Er     0.1972   0.1443   0.1765
loop_
_geom_bond_atom_site_label_1
_geom_bond_atom_site_label_2
_geom_bond_distance
_geom_bond_site_symmetry_2
_ccdc_geom_bond_type
V1     Er22    10.0   .     S
V1     Er21    10.0   .     S
V1     Er5    10.0   .     S
V1     Er3    10.0   .     S
V2     Er24    10.0   1_566     S
V2     Er23    10.0   1_565     S
V2     Er6    10.0   .     S
V2     Er4    10.0   .     S
Er3     Er4    10.0   1_554     S
Er3     Er5    10.0   .     S
Er3     V7    10.0   .     S
Er4     Er3    10.0   1_556     S
Er4     Er6    10.0   .     S
Er4     V7    10.0   .     S
Er5     Er6    10.0   .     S
Er5     V8    10.0   1_455     S
Er6     V8    10.0   1_456     S
V7     Er11    10.0   .     S
V7     Er9    10.0   .     S
V8     Er5    10.0   1_655     S
V8     Er6    10.0   1_654     S
V8     Er10    10.0   .     S
V8     Er12    10.0   .     S
Er9     Er10    10.0   .     S
Er9     Er11    10.0   .     S
Er9     V13    10.0   1_565     S
Er10     Er12    10.0   .     S
Er10     V13    10.0   1_564     S
Er11     Er12    10.0   1_556     S
Er11     V14    10.0   .     S
Er12     Er11    10.0   1_554     S
Er12     V14    10.0   .     S
V13     Er9    10.0   1_545     S
V13     Er10    10.0   1_546     S
V13     Er16    10.0   .     S
V13     Er17    10.0   .     S
V14     Er18    10.0   .     S
V14     Er15    10.0   .     S
Er15     Er16    10.0   .     S
Er15     Er18    10.0   .     S
Er15     V19    10.0   1_655     S
Er16     Er17    10.0   .     S
Er16     V19    10.0   1_656     S
Er17     Er18    10.0   1_556     S
Er17     V20    10.0   .     S
Er18     Er17    10.0   1_554     S
Er18     V20    10.0   .     S
V19     Er16    10.0   1_454     S
V19     Er15    10.0   1_455     S
V19     Er24    10.0   .     S
V19     Er21    10.0   .     S
V20     Er23    10.0   .     S
V20     Er22    10.0   .     S
Er21     Er22    10.0   1_554     S
Er21     Er24    10.0   .     S
Er22     Er21    10.0   1_556     S
Er22     Er23    10.0   .     S
Er23     V2    10.0   1_545     S
Er23     Er24    10.0   .     S
Er24     V2    10.0   1_544     S
