data_cda
_audit_creation_date              2020-02-02
_audit_creation_method            'Pymatgen'
_symmetry_space_group_name_H-M    'P1'
_symmetry_Int_Tables_number       1
loop_
_symmetry_equiv_pos_as_xyz
  x,y,z
_cell_length_a                    31.6703
_cell_length_b                    31.6703
_cell_length_c                    15.8397
_cell_angle_alpha                 90.0
_cell_angle_beta                 90.0
_cell_angle_gamma                 90.0
loop_
_atom_site_label
_atom_site_type_symbol
_atom_site_fract_x
_atom_site_fract_y
_atom_site_fract_z
V1     V     0.5   0.5   0.0
Er2     Er     0.25   0.455   0.375
Er3     Er     0.955   0.75   0.125
Er4     Er     0.75   0.955   0.875
Er5     Er     0.75   0.545   0.375
Er6     Er     0.045   0.25   0.125
V7     V     0.0   0.0   0.5
V8     V     0.0   0.5   0.75
Er9     Er     0.545   0.75   0.625
Er10     Er     0.455   0.25   0.625
V11     V     0.5   0.0   0.25
Er12     Er     0.25   0.045   0.875
loop_
_geom_bond_atom_site_label_1
_geom_bond_atom_site_label_2
_geom_bond_distance
_geom_bond_site_symmetry_2
_ccdc_geom_bond_type
V1     Er2    10.0   .     S
V1     Er5    10.0   .     S
V1     Er10    10.0   1_554     S
V1     Er9    10.0   1_554     S
Er2     V8    10.0   .     S
Er2     Er10    10.0   .     S
Er2     Er6    10.0   .     S
Er3     V7    10.0   1_665     S
Er3     V8    10.0   1_654     S
Er3     Er5    10.0   .     S
Er3     Er4    10.0   1_554     S
Er4     V11    10.0   1_566     S
Er4     V7    10.0   1_665     S
Er4     Er3    10.0   1_556     S
Er4     Er9    10.0   .     S
Er5     V8    10.0   1_655     S
Er5     Er9    10.0   .     S
Er6     V7    10.0   .     S
Er6     V8    10.0   1_554     S
Er6     Er12    10.0   1_554     S
V7     Er3    10.0   1_445     S
V7     Er4    10.0   1_445     S
V7     Er12    10.0   .     S
V8     Er3    10.0   1_456     S
V8     Er5    10.0   1_455     S
V8     Er6    10.0   1_556     S
Er9     V11    10.0   1_565     S
Er9     V1    10.0   1_556     S
Er10     V1    10.0   1_556     S
Er10     V11    10.0   .     S
Er10     Er12    10.0   .     S
V11     Er4    10.0   1_544     S
V11     Er9    10.0   1_545     S
V11     Er12    10.0   1_554     S
Er12     V11    10.0   1_556     S
Er12     Er6    10.0   1_556     S
