data_cdja
_audit_creation_date              2020-02-02
_audit_creation_method            'Pymatgen'
_symmetry_space_group_name_H-M    'P1'
_symmetry_Int_Tables_number       1
loop_
_symmetry_equiv_pos_as_xyz
  x,y,z
_cell_length_a                    81.6708
_cell_length_b                    81.6708
_cell_length_c                    81.6708
_cell_angle_alpha                 90.0
_cell_angle_beta                 90.0
_cell_angle_gamma                 90.0
loop_
_atom_site_label
_atom_site_type_symbol
_atom_site_fract_x
_atom_site_fract_y
_atom_site_fract_z
Ti1     Ti     0.7784   0.7291   0.8291
Ti2     Ti     0.6709   0.7216   0.7709
Ti3     Ti     0.8291   0.7784   0.7291
Ti4     Ti     0.7709   0.6709   0.7216
Ti5     Ti     0.7291   0.8291   0.7784
Ti6     Ti     0.7216   0.7709   0.6709
Ti7     Ti     0.7216   0.2291   0.6709
Ti8     Ti     0.7291   0.1709   0.7784
Ti9     Ti     0.7784   0.2709   0.8291
Ti10     Ti     0.6709   0.2784   0.7709
Ti11     Ti     0.8291   0.2216   0.7291
Ti12     Ti     0.7709   0.3291   0.7216
Er13     Er     0.5612   0.6672   0.7704
Er14     Er     0.4388   0.6672   0.7704
Er15     Er     0.5612   0.3328   0.7704
Er16     Er     0.4388   0.3328   0.7704
V17     V     0.5   0.4388   0.7675
V18     V     0.5   0.5612   0.7675
Ti19     Ti     0.2291   0.3291   0.7216
Ti20     Ti     0.1709   0.2216   0.7291
Ti21     Ti     0.2709   0.1709   0.7784
Ti22     Ti     0.2784   0.2291   0.6709
Ti23     Ti     0.2216   0.2709   0.8291
Ti24     Ti     0.3291   0.2784   0.7709
Er25     Er     0.9388   0.8328   0.7295
Er26     Er     0.0612   0.8328   0.7295
Er27     Er     0.9388   0.1672   0.7295
Er28     Er     0.0612   0.1672   0.7295
V29     V     0.0   0.0612   0.7325
V30     V     0.0   0.9388   0.7325
Er31     Er     0.6672   0.2296   0.5612
Er32     Er     0.6672   0.2296   0.4388
Er33     Er     0.3328   0.2296   0.5612
Er34     Er     0.3328   0.2296   0.4388
V35     V     0.4388   0.2325   0.5
V36     V     0.5612   0.2325   0.5
Ti37     Ti     0.2291   0.6709   0.7216
Ti38     Ti     0.1709   0.7784   0.7291
Ti39     Ti     0.2709   0.8291   0.7784
Ti40     Ti     0.2784   0.7709   0.6709
Ti41     Ti     0.2216   0.7291   0.8291
Ti42     Ti     0.3291   0.7216   0.7709
Er43     Er     0.6672   0.7704   0.5612
Er44     Er     0.6672   0.7704   0.4388
Er45     Er     0.3328   0.7704   0.5612
Er46     Er     0.3328   0.7704   0.4388
V47     V     0.4388   0.7675   0.5
V48     V     0.5612   0.7675   0.5
Ti49     Ti     0.3291   0.7216   0.2291
Ti50     Ti     0.2216   0.7291   0.1709
Ti51     Ti     0.1709   0.7784   0.2709
Ti52     Ti     0.2291   0.6709   0.2784
Ti53     Ti     0.2709   0.8291   0.2216
Ti54     Ti     0.2784   0.7709   0.3291
Er55     Er     0.8328   0.7295   0.9388
Er56     Er     0.8328   0.7295   0.0612
Er57     Er     0.1672   0.7295   0.9388
Er58     Er     0.1672   0.7295   0.0612
V59     V     0.0612   0.7325   0.0
V60     V     0.9388   0.7325   0.0
Er61     Er     0.2296   0.5612   0.6672
Er62     Er     0.2296   0.4388   0.6672
Er63     Er     0.2296   0.5612   0.3328
Er64     Er     0.2296   0.4388   0.3328
V65     V     0.2325   0.5   0.4388
V66     V     0.2325   0.5   0.5612
Ti67     Ti     0.6709   0.7216   0.2291
Ti68     Ti     0.7784   0.7291   0.1709
Ti69     Ti     0.8291   0.7784   0.2709
Ti70     Ti     0.7709   0.6709   0.2784
Ti71     Ti     0.7291   0.8291   0.2216
Ti72     Ti     0.7216   0.7709   0.3291
Er73     Er     0.7704   0.5612   0.6672
Er74     Er     0.7704   0.4388   0.6672
Er75     Er     0.7704   0.5612   0.3328
Er76     Er     0.7704   0.4388   0.3328
V77     V     0.7675   0.5   0.4388
V78     V     0.7675   0.5   0.5612
Er79     Er     0.7295   0.9388   0.8328
Er80     Er     0.7295   0.0612   0.8328
Er81     Er     0.7295   0.9388   0.1672
Er82     Er     0.7295   0.0612   0.1672
V83     V     0.7325   0.0   0.0612
V84     V     0.7325   0.0   0.9388
Ti85     Ti     0.7216   0.2291   0.3291
Ti86     Ti     0.7291   0.1709   0.2216
Ti87     Ti     0.7784   0.2709   0.1709
Ti88     Ti     0.6709   0.2784   0.2291
Ti89     Ti     0.8291   0.2216   0.2709
Ti90     Ti     0.7709   0.3291   0.2784
Er91     Er     0.5612   0.6672   0.2296
Er92     Er     0.4388   0.6672   0.2296
Er93     Er     0.5612   0.3328   0.2296
Er94     Er     0.4388   0.3328   0.2296
V95     V     0.5   0.4388   0.2325
V96     V     0.5   0.5612   0.2325
Er97     Er     0.8328   0.2705   0.9388
Er98     Er     0.8328   0.2705   0.0612
Er99     Er     0.1672   0.2705   0.9388
Er100     Er     0.1672   0.2705   0.0612
V101     V     0.0612   0.2675   0.0
V102     V     0.9388   0.2675   0.0
Er103     Er     0.2705   0.9388   0.8328
Er104     Er     0.2705   0.0612   0.8328
Er105     Er     0.2705   0.9388   0.1672
Er106     Er     0.2705   0.0612   0.1672
V107     V     0.2675   0.0   0.0612
V108     V     0.2675   0.0   0.9388
Ti109     Ti     0.3291   0.2784   0.2291
Ti110     Ti     0.2216   0.2709   0.1709
Ti111     Ti     0.1709   0.2216   0.2709
Ti112     Ti     0.2291   0.3291   0.2784
Ti113     Ti     0.2784   0.2291   0.3291
Ti114     Ti     0.2709   0.1709   0.2216
Er115     Er     0.9388   0.8328   0.2705
Er116     Er     0.0612   0.8328   0.2705
Er117     Er     0.9388   0.1672   0.2705
Er118     Er     0.0612   0.1672   0.2705
V119     V     0.0   0.0612   0.2675
V120     V     0.0   0.9388   0.2675
loop_
_geom_bond_atom_site_label_1
_geom_bond_atom_site_label_2
_geom_bond_distance
_geom_bond_site_symmetry_2
_ccdc_geom_bond_type
Ti1     Ti4    9.999   .     S
Ti1     Ti2    9.999   .     S
Ti1     Ti3    10.0   .     S
Ti1     Ti5    10.0   .     S
Ti1     Er55    10.0   .     S
Ti2     Ti5    9.999   .     S
Ti2     Ti6    10.0   .     S
Ti2     Ti4    10.0   .     S
Ti2     Er13    10.0   .     S
Ti3     Ti6    9.999   .     S
Ti3     Ti4    9.999   .     S
Ti3     Ti5    10.0   .     S
Ti3     Er25    10.0   .     S
Ti4     Ti6    10.0   .     S
Ti4     Er73    10.0   .     S
Ti5     Ti6    9.999   .     S
Ti5     Er79    10.0   .     S
Ti6     Er43    10.0   .     S
Ti7     Ti8    9.999   .     S
Ti7     Ti11    9.999   .     S
Ti7     Ti10    10.0   .     S
Ti7     Ti12    10.0   .     S
Ti7     Er31    10.0   .     S
Ti8     Ti10    9.999   .     S
Ti8     Ti11    10.0   .     S
Ti8     Ti9    10.0   .     S
Ti8     Er80    10.0   .     S
Ti9     Ti12    9.999   .     S
Ti9     Ti10    9.999   .     S
Ti9     Ti11    10.0   .     S
Ti9     Er97    10.0   .     S
Ti10     Ti12    10.0   .     S
Ti10     Er15    10.0   .     S
Ti11     Ti12    9.999   .     S
Ti11     Er27    10.0   .     S
Ti12     Er74    10.0   .     S
Er13     Er14    10.0   .     S
Er13     V18    10.0   .     S
Er14     Ti42    10.0   .     S
Er14     V18    10.0   .     S
Er15     Er16    10.0   .     S
Er15     V17    10.0   .     S
Er16     Ti24    10.0   .     S
Er16     V17    10.0   .     S
V17     V18    10.0   .     S
Ti19     Ti20    9.999   .     S
Ti19     Ti23    9.999   .     S
Ti19     Ti22    10.0   .     S
Ti19     Ti24    10.0   .     S
Ti19     Er62    10.0   .     S
Ti20     Ti22    9.999   .     S
Ti20     Ti23    10.0   .     S
Ti20     Ti21    10.0   .     S
Ti20     Er28    10.0   .     S
Ti21     Ti24    9.999   .     S
Ti21     Ti22    9.999   .     S
Ti21     Ti23    10.0   .     S
Ti21     Er104    10.0   .     S
Ti22     Ti24    10.0   .     S
Ti22     Er33    10.0   .     S
Ti23     Ti24    9.999   .     S
Ti23     Er99    10.0   .     S
Er25     Er26    10.0   1_655     S
Er25     V30    10.0   1_655     S
Er26     Ti38    10.0   .     S
Er26     Er25    10.0   1_455     S
Er26     V30    10.0   .     S
Er27     Er28    10.0   1_655     S
Er27     V29    10.0   1_655     S
Er28     Er27    10.0   1_455     S
Er28     V29    10.0   .     S
V29     Er27    10.0   1_455     S
V29     V30    10.0   1_545     S
V30     V29    10.0   1_565     S
V30     Er25    10.0   1_455     S
Er31     Er32    10.0   .     S
Er31     V36    10.0   .     S
Er32     Ti85    10.0   .     S
Er32     V36    10.0   .     S
Er33     Er34    10.0   .     S
Er33     V35    10.0   .     S
Er34     Ti113    10.0   .     S
Er34     V35    10.0   .     S
V35     V36    10.0   .     S
Ti37     Ti38    9.999   .     S
Ti37     Ti41    9.999   .     S
Ti37     Ti40    10.0   .     S
Ti37     Ti42    10.0   .     S
Ti37     Er61    10.0   .     S
Ti38     Ti40    9.999   .     S
Ti38     Ti41    10.0   .     S
Ti38     Ti39    10.0   .     S
Ti39     Ti42    9.999   .     S
Ti39     Ti40    9.999   .     S
Ti39     Ti41    10.0   .     S
Ti39     Er103    10.0   .     S
Ti40     Ti42    10.0   .     S
Ti40     Er45    10.0   .     S
Ti41     Ti42    9.999   .     S
Ti41     Er57    10.0   .     S
Er43     Er44    10.0   .     S
Er43     V48    10.0   .     S
Er44     Ti72    10.0   .     S
Er44     V48    10.0   .     S
Er45     Er46    10.0   .     S
Er45     V47    10.0   .     S
Er46     Ti54    10.0   .     S
Er46     V47    10.0   .     S
V47     V48    10.0   .     S
Ti49     Ti50    9.999   .     S
Ti49     Ti53    9.999   .     S
Ti49     Ti52    10.0   .     S
Ti49     Ti54    10.0   .     S
Ti49     Er92    10.0   .     S
Ti50     Ti52    9.999   .     S
Ti50     Ti53    10.0   .     S
Ti50     Ti51    10.0   .     S
Ti50     Er58    10.0   .     S
Ti51     Ti54    9.999   .     S
Ti51     Ti52    9.999   .     S
Ti51     Ti53    10.0   .     S
Ti51     Er116    10.0   .     S
Ti52     Ti54    10.0   .     S
Ti52     Er63    10.0   .     S
Ti53     Ti54    9.999   .     S
Ti53     Er105    10.0   .     S
Er55     Er56    10.0   1_556     S
Er55     V60    10.0   1_556     S
Er56     Ti68    10.0   .     S
Er56     Er55    10.0   1_554     S
Er56     V60    10.0   .     S
Er57     Er58    10.0   1_556     S
Er57     V59    10.0   1_556     S
Er58     Er57    10.0   1_554     S
Er58     V59    10.0   .     S
V59     Er57    10.0   1_554     S
V59     V60    10.0   1_455     S
V60     V59    10.0   1_655     S
V60     Er55    10.0   1_554     S
Er61     Er62    10.0   .     S
Er61     V66    10.0   .     S
Er62     V66    10.0   .     S
Er63     Er64    10.0   .     S
Er63     V65    10.0   .     S
Er64     Ti112    10.0   .     S
Er64     V65    10.0   .     S
V65     V66    10.0   .     S
Ti67     Ti68    9.999   .     S
Ti67     Ti71    9.999   .     S
Ti67     Ti70    10.0   .     S
Ti67     Ti72    10.0   .     S
Ti67     Er91    10.0   .     S
Ti68     Ti70    9.999   .     S
Ti68     Ti71    10.0   .     S
Ti68     Ti69    10.0   .     S
Ti69     Ti72    9.999   .     S
Ti69     Ti70    9.999   .     S
Ti69     Ti71    10.0   .     S
Ti69     Er115    10.0   .     S
Ti70     Ti72    10.0   .     S
Ti70     Er75    10.0   .     S
Ti71     Ti72    9.999   .     S
Ti71     Er81    10.0   .     S
Er73     Er74    10.0   .     S
Er73     V78    10.0   .     S
Er74     V78    10.0   .     S
Er75     Er76    10.0   .     S
Er75     V77    10.0   .     S
Er76     Ti90    10.0   .     S
Er76     V77    10.0   .     S
V77     V78    10.0   .     S
Er79     Er80    10.0   1_565     S
Er79     V84    10.0   1_565     S
Er80     Er79    10.0   1_545     S
Er80     V84    10.0   .     S
Er81     Er82    10.0   1_565     S
Er81     V83    10.0   1_565     S
Er82     Ti86    10.0   .     S
Er82     Er81    10.0   1_545     S
Er82     V83    10.0   .     S
V83     Er81    10.0   1_545     S
V83     V84    10.0   1_554     S
V84     V83    10.0   1_556     S
V84     Er79    10.0   1_545     S
Ti85     Ti86    9.999   .     S
Ti85     Ti89    9.999   .     S
Ti85     Ti88    10.0   .     S
Ti85     Ti90    10.0   .     S
Ti86     Ti88    9.999   .     S
Ti86     Ti89    10.0   .     S
Ti86     Ti87    10.0   .     S
Ti87     Ti90    9.999   .     S
Ti87     Ti88    9.999   .     S
Ti87     Ti89    10.0   .     S
Ti87     Er98    10.0   .     S
Ti88     Ti90    10.0   .     S
Ti88     Er93    10.0   .     S
Ti89     Ti90    9.999   .     S
Ti89     Er117    10.0   .     S
Er91     Er92    10.0   .     S
Er91     V96    10.0   .     S
Er92     V96    10.0   .     S
Er93     Er94    10.0   .     S
Er93     V95    10.0   .     S
Er94     Ti109    10.0   .     S
Er94     V95    10.0   .     S
V95     V96    10.0   .     S
Er97     Er98    10.0   1_556     S
Er97     V102    10.0   1_556     S
Er98     Er97    10.0   1_554     S
Er98     V102    10.0   .     S
Er99     Er100    10.0   1_556     S
Er99     V101    10.0   1_556     S
Er100     Ti110    10.0   .     S
Er100     Er99    10.0   1_554     S
Er100     V101    10.0   .     S
V101     Er99    10.0   1_554     S
V101     V102    10.0   1_455     S
V102     V101    10.0   1_655     S
V102     Er97    10.0   1_554     S
Er103     Er104    10.0   1_565     S
Er103     V108    10.0   1_565     S
Er104     Er103    10.0   1_545     S
Er104     V108    10.0   .     S
Er105     Er106    10.0   1_565     S
Er105     V107    10.0   1_565     S
Er106     Ti114    10.0   .     S
Er106     Er105    10.0   1_545     S
Er106     V107    10.0   .     S
V107     Er105    10.0   1_545     S
V107     V108    10.0   1_554     S
V108     V107    10.0   1_556     S
V108     Er103    10.0   1_545     S
Ti109     Ti110    9.999   .     S
Ti109     Ti114    9.999   .     S
Ti109     Ti113    10.0   .     S
Ti109     Ti112    10.0   .     S
Ti110     Ti112    9.999   .     S
Ti110     Ti111    10.0   .     S
Ti110     Ti114    10.0   .     S
Ti111     Ti113    9.999   .     S
Ti111     Ti112    9.999   .     S
Ti111     Ti114    10.0   .     S
Ti111     Er118    10.0   .     S
Ti112     Ti113    10.0   .     S
Ti113     Ti114    9.999   .     S
Er115     Er116    10.0   1_655     S
Er115     V120    10.0   1_655     S
Er116     Er115    10.0   1_455     S
Er116     V120    10.0   .     S
Er117     Er118    10.0   1_655     S
Er117     V119    10.0   1_655     S
Er118     Er117    10.0   1_455     S
Er118     V119    10.0   .     S
V119     Er117    10.0   1_455     S
V119     V120    10.0   1_545     S
V120     V119    10.0   1_565     S
V120     Er115    10.0   1_455     S
