data_cdk
_audit_creation_date              2020-02-02
_audit_creation_method            'Pymatgen'
_symmetry_space_group_name_H-M    'P1'
_symmetry_Int_Tables_number       1
loop_
_symmetry_equiv_pos_as_xyz
  x,y,z
_cell_length_a                    72.9148
_cell_length_b                    72.9148
_cell_length_c                    72.9148
_cell_angle_alpha                 90.0
_cell_angle_beta                 90.0
_cell_angle_gamma                 90.0
loop_
_atom_site_label
_atom_site_type_symbol
_atom_site_fract_x
_atom_site_fract_y
_atom_site_fract_z
Ti1     Ti     0.4314   0.5   0.8744
Ti2     Ti     0.5686   0.5   0.8744
Ti3     Ti     0.4314   0.5   0.1256
Ti4     Ti     0.5686   0.5   0.1256
Ti5     Ti     0.5   0.1256   0.4314
Ti6     Ti     0.5   0.1256   0.5686
Ti7     Ti     0.5   0.8744   0.4314
Ti8     Ti     0.5   0.8744   0.5686
Ti9     Ti     0.6256   0.4314   0.0
Ti10     Ti     0.6256   0.5686   0.0
Ti11     Ti     0.3744   0.4314   0.0
Ti12     Ti     0.3744   0.5686   0.0
Ti13     Ti     0.4314   0.0   0.3744
Ti14     Ti     0.5686   0.0   0.3744
Ti15     Ti     0.4314   0.0   0.6256
Ti16     Ti     0.5686   0.0   0.6256
Ti17     Ti     0.0   0.6256   0.4314
Ti18     Ti     0.0   0.6256   0.5686
Ti19     Ti     0.0   0.3744   0.4314
Ti20     Ti     0.0   0.3744   0.5686
Ti21     Ti     0.1256   0.4314   0.5
Ti22     Ti     0.1256   0.5686   0.5
Ti23     Ti     0.8744   0.4314   0.5
Ti24     Ti     0.8744   0.5686   0.5
Ti25     Ti     0.5   0.6256   0.0686
Ti26     Ti     0.5   0.6256   0.9314
Ti27     Ti     0.5   0.3744   0.0686
Ti28     Ti     0.5   0.3744   0.9314
Ti29     Ti     0.6256   0.0686   0.5
Ti30     Ti     0.6256   0.9314   0.5
Ti31     Ti     0.3744   0.0686   0.5
Ti32     Ti     0.3744   0.9314   0.5
Ti33     Ti     0.0686   0.5   0.3744
Ti34     Ti     0.9314   0.5   0.3744
Ti35     Ti     0.0686   0.5   0.6256
Ti36     Ti     0.9314   0.5   0.6256
Ti37     Ti     0.0   0.1256   0.0686
Ti38     Ti     0.0   0.1256   0.9314
Ti39     Ti     0.0   0.8744   0.0686
Ti40     Ti     0.0   0.8744   0.9314
Ti41     Ti     0.1256   0.0686   0.0
Ti42     Ti     0.1256   0.9314   0.0
Ti43     Ti     0.8744   0.0686   0.0
Ti44     Ti     0.8744   0.9314   0.0
Ti45     Ti     0.0686   0.0   0.8744
Ti46     Ti     0.9314   0.0   0.8744
Ti47     Ti     0.0686   0.0   0.1256
Ti48     Ti     0.9314   0.0   0.1256
Ce49     Ce     0.125   0.125   0.125
Er50     Er     0.3186   0.25   0.1248
Er51     Er     0.1814   0.25   0.1248
Er52     Er     0.3752   0.1814   0.25
Er53     Er     0.3752   0.3186   0.25
Ce54     Ce     0.375   0.375   0.125
Er55     Er     0.25   0.3752   0.3186
Er56     Er     0.25   0.3752   0.1814
Er57     Er     0.1248   0.3186   0.25
Er58     Er     0.1248   0.1814   0.25
Ce59     Ce     0.125   0.375   0.375
Er60     Er     0.25   0.1248   0.3186
Er61     Er     0.25   0.1248   0.1814
Er62     Er     0.1814   0.25   0.3752
Er63     Er     0.3186   0.25   0.3752
Ce64     Ce     0.375   0.125   0.375
Er65     Er     0.1248   0.1814   0.75
Er66     Er     0.1248   0.3186   0.75
Ce67     Ce     0.125   0.375   0.625
Er68     Er     0.25   0.1248   0.6814
Er69     Er     0.25   0.1248   0.8186
Ce70     Ce     0.125   0.125   0.875
Er71     Er     0.3186   0.25   0.8752
Er72     Er     0.1814   0.25   0.8752
Er73     Er     0.25   0.3752   0.6814
Er74     Er     0.25   0.3752   0.8186
Ce75     Ce     0.375   0.375   0.875
Er76     Er     0.3186   0.25   0.6248
Er77     Er     0.1814   0.25   0.6248
Er78     Er     0.3752   0.3186   0.75
Er79     Er     0.3752   0.1814   0.75
Ce80     Ce     0.375   0.125   0.625
Er81     Er     0.1814   0.75   0.1248
Er82     Er     0.3186   0.75   0.1248
Ce83     Ce     0.375   0.625   0.125
Er84     Er     0.1248   0.6814   0.25
Er85     Er     0.1248   0.8186   0.25
Ce86     Ce     0.125   0.875   0.125
Er87     Er     0.25   0.8752   0.3186
Er88     Er     0.25   0.8752   0.1814
Er89     Er     0.3752   0.6814   0.25
Er90     Er     0.3752   0.8186   0.25
Ce91     Ce     0.375   0.875   0.375
Er92     Er     0.25   0.6248   0.3186
Er93     Er     0.25   0.6248   0.1814
Er94     Er     0.3186   0.75   0.3752
Er95     Er     0.1814   0.75   0.3752
Ce96     Ce     0.125   0.625   0.375
Er97     Er     0.75   0.1248   0.1814
Er98     Er     0.75   0.1248   0.3186
Ce99     Ce     0.625   0.125   0.375
Er100     Er     0.6814   0.25   0.1248
Er101     Er     0.8186   0.25   0.1248
Ce102     Ce     0.875   0.125   0.125
Er103     Er     0.8752   0.3186   0.25
Er104     Er     0.8752   0.1814   0.25
Er105     Er     0.6814   0.25   0.3752
Er106     Er     0.8186   0.25   0.3752
Ce107     Ce     0.875   0.375   0.375
Er108     Er     0.6248   0.3186   0.25
Er109     Er     0.6248   0.1814   0.25
Er110     Er     0.75   0.3752   0.3186
Er111     Er     0.75   0.3752   0.1814
Ce112     Ce     0.625   0.375   0.125
S113     S     0.625   0.625   0.625
S114     S     0.625   0.375   0.625
V115     V     0.5   0.4314   0.6248
V116     V     0.5   0.5686   0.6248
S117     S     0.375   0.375   0.625
S118     S     0.375   0.625   0.625
V119     V     0.4314   0.6248   0.5
V120     V     0.5686   0.6248   0.5
S121     S     0.375   0.625   0.375
V122     V     0.4314   0.3752   0.5
V123     V     0.5686   0.3752   0.5
V124     V     0.3752   0.5   0.4314
V125     V     0.3752   0.5   0.5686
S126     S     0.375   0.375   0.375
V127     V     0.5   0.4314   0.3752
V128     V     0.5   0.5686   0.3752
S129     S     0.625   0.375   0.375
V130     V     0.6248   0.5   0.4314
V131     V     0.6248   0.5   0.5686
S132     S     0.625   0.625   0.375
Er133     Er     0.6814   0.25   0.6248
Er134     Er     0.8186   0.25   0.6248
Er135     Er     0.8752   0.1814   0.75
Er136     Er     0.8752   0.3186   0.75
Ce137     Ce     0.875   0.375   0.625
Er138     Er     0.75   0.3752   0.6814
Er139     Er     0.75   0.3752   0.8186
Ce140     Ce     0.625   0.375   0.875
Er141     Er     0.6814   0.25   0.8752
Er142     Er     0.8186   0.25   0.8752
Ce143     Ce     0.875   0.125   0.875
Er144     Er     0.6248   0.1814   0.75
Er145     Er     0.6248   0.3186   0.75
Er146     Er     0.75   0.1248   0.6814
Er147     Er     0.75   0.1248   0.8186
Ce148     Ce     0.625   0.125   0.625
S149     S     0.625   0.125   0.125
S150     S     0.625   0.875   0.125
V151     V     0.5   0.0686   0.1248
V152     V     0.5   0.9314   0.1248
V153     V     0.4314   0.8752   0.0
V154     V     0.5686   0.8752   0.0
S155     S     0.375   0.875   0.125
V156     V     0.3752   0.0   0.0686
V157     V     0.3752   0.0   0.9314
S158     S     0.375   0.125   0.875
S159     S     0.375   0.875   0.875
V160     V     0.5   0.0686   0.8752
V161     V     0.5   0.9314   0.8752
S162     S     0.625   0.875   0.875
V163     V     0.6248   0.0   0.0686
V164     V     0.6248   0.0   0.9314
S165     S     0.625   0.125   0.875
V166     V     0.4314   0.1248   0.0
V167     V     0.5686   0.1248   0.0
S168     S     0.375   0.125   0.125
Er169     Er     0.25   0.6248   0.6814
Er170     Er     0.25   0.6248   0.8186
Er171     Er     0.1814   0.75   0.8752
Er172     Er     0.3186   0.75   0.8752
Ce173     Ce     0.375   0.625   0.875
Er174     Er     0.3752   0.6814   0.75
Er175     Er     0.3752   0.8186   0.75
Ce176     Ce     0.375   0.875   0.625
Er177     Er     0.25   0.8752   0.6814
Er178     Er     0.25   0.8752   0.8186
Ce179     Ce     0.125   0.875   0.875
Er180     Er     0.1814   0.75   0.6248
Er181     Er     0.3186   0.75   0.6248
Er182     Er     0.1248   0.6814   0.75
Er183     Er     0.1248   0.8186   0.75
Ce184     Ce     0.125   0.625   0.625
S185     S     0.125   0.125   0.625
V186     V     0.1248   0.0   0.4314
V187     V     0.1248   0.0   0.5686
S188     S     0.125   0.125   0.375
V189     V     0.0   0.0686   0.3752
V190     V     0.0   0.9314   0.3752
S191     S     0.125   0.875   0.375
S192     S     0.875   0.875   0.375
V193     V     0.0686   0.8752   0.5
V194     V     0.9314   0.8752   0.5
S195     S     0.875   0.875   0.625
V196     V     0.0   0.0686   0.6248
V197     V     0.0   0.9314   0.6248
S198     S     0.125   0.875   0.625
S199     S     0.875   0.125   0.625
V200     V     0.0686   0.1248   0.5
V201     V     0.9314   0.1248   0.5
V202     V     0.8752   0.0   0.4314
V203     V     0.8752   0.0   0.5686
S204     S     0.875   0.125   0.375
Er205     Er     0.75   0.8752   0.6814
Er206     Er     0.75   0.8752   0.8186
Er207     Er     0.6248   0.6814   0.75
Er208     Er     0.6248   0.8186   0.75
Ce209     Ce     0.625   0.875   0.625
Er210     Er     0.8752   0.6814   0.75
Er211     Er     0.8752   0.8186   0.75
Er212     Er     0.6814   0.75   0.6248
Er213     Er     0.8186   0.75   0.6248
Ce214     Ce     0.875   0.625   0.625
Ce215     Ce     0.875   0.875   0.875
Er216     Er     0.6814   0.75   0.8752
Er217     Er     0.8186   0.75   0.8752
Er218     Er     0.75   0.6248   0.6814
Er219     Er     0.75   0.6248   0.8186
Ce220     Ce     0.625   0.625   0.875
S221     S     0.125   0.625   0.125
V222     V     0.0   0.4314   0.1248
V223     V     0.0   0.5686   0.1248
S224     S     0.125   0.375   0.125
V225     V     0.0686   0.6248   0.0
V226     V     0.9314   0.6248   0.0
S227     S     0.875   0.625   0.125
S228     S     0.875   0.625   0.875
V229     V     0.8752   0.5   0.0686
V230     V     0.8752   0.5   0.9314
S231     S     0.875   0.375   0.875
V232     V     0.0686   0.3752   0.0
V233     V     0.9314   0.3752   0.0
S234     S     0.875   0.375   0.125
S235     S     0.125   0.625   0.875
V236     V     0.1248   0.5   0.0686
V237     V     0.1248   0.5   0.9314
V238     V     0.0   0.4314   0.8752
V239     V     0.0   0.5686   0.8752
S240     S     0.125   0.375   0.875
Er241     Er     0.6248   0.6814   0.25
Er242     Er     0.6248   0.8186   0.25
Er243     Er     0.75   0.8752   0.1814
Er244     Er     0.75   0.8752   0.3186
Ce245     Ce     0.625   0.875   0.375
Er246     Er     0.6814   0.75   0.3752
Er247     Er     0.8186   0.75   0.3752
Ce248     Ce     0.875   0.625   0.375
Er249     Er     0.8752   0.6814   0.25
Er250     Er     0.8752   0.8186   0.25
Ce251     Ce     0.875   0.875   0.125
Er252     Er     0.75   0.6248   0.1814
Er253     Er     0.75   0.6248   0.3186
Er254     Er     0.6814   0.75   0.1248
Er255     Er     0.8186   0.75   0.1248
Ce256     Ce     0.625   0.625   0.125
loop_
_geom_bond_atom_site_label_1
_geom_bond_atom_site_label_2
_geom_bond_distance
_geom_bond_site_symmetry_2
_ccdc_geom_bond_type
Ti1     Ti2    10.0   .     S
Ti1     Ce75    10.0   .     S
Ti1     Ce173    10.0   .     S
Ti2     Ce140    10.0   .     S
Ti2     Ce220    10.0   .     S
Ti3     Ti4    10.0   .     S
Ti3     Ce54    10.0   .     S
Ti3     Ce83    10.0   .     S
Ti4     Ce112    10.0   .     S
Ti4     Ce256    10.0   .     S
Ti5     Ti6    10.0   .     S
Ti5     Ce64    10.0   .     S
Ti5     Ce99    10.0   .     S
Ti6     Ce80    10.0   .     S
Ti6     Ce148    10.0   .     S
Ti7     Ti8    10.0   .     S
Ti7     Ce91    10.0   .     S
Ti7     Ce245    10.0   .     S
Ti8     Ce176    10.0   .     S
Ti8     Ce209    10.0   .     S
Ti9     Ti10    10.0   .     S
Ti9     Ce112    10.0   .     S
Ti9     Ce140    10.0   1_554     S
Ti10     Ce220    10.0   1_554     S
Ti10     Ce256    10.0   .     S
Ti11     Ti12    10.0   .     S
Ti11     Ce54    10.0   .     S
Ti11     Ce75    10.0   1_554     S
Ti12     Ce83    10.0   .     S
Ti12     Ce173    10.0   1_554     S
Ti13     Ti14    10.0   .     S
Ti13     Ce64    10.0   .     S
Ti13     Ce91    10.0   1_545     S
Ti14     Ce99    10.0   .     S
Ti14     Ce245    10.0   1_545     S
Ti15     Ti16    10.0   .     S
Ti15     Ce80    10.0   .     S
Ti15     Ce176    10.0   1_545     S
Ti16     Ce148    10.0   .     S
Ti16     Ce209    10.0   1_545     S
Ti17     Ti18    10.0   .     S
Ti17     Ce96    10.0   .     S
Ti17     Ce248    10.0   1_455     S
Ti18     Ce184    10.0   .     S
Ti18     Ce214    10.0   1_455     S
Ti19     Ti20    10.0   .     S
Ti19     Ce59    10.0   .     S
Ti19     Ce107    10.0   1_455     S
Ti20     Ce67    10.0   .     S
Ti20     Ce137    10.0   1_455     S
Ti21     Ti22    10.0   .     S
Ti21     Ce59    10.0   .     S
Ti21     Ce67    10.0   .     S
Ti22     Ce96    10.0   .     S
Ti22     Ce184    10.0   .     S
Ti23     Ti24    10.0   .     S
Ti23     Ce107    10.0   .     S
Ti23     Ce137    10.0   .     S
Ti24     Ce214    10.0   .     S
Ti24     Ce248    10.0   .     S
Ti25     Ti26    10.0   1_554     S
Ti25     Ce83    10.0   .     S
Ti25     Ce256    10.0   .     S
Ti26     Ti25    10.0   1_556     S
Ti26     Ce173    10.0   .     S
Ti26     Ce220    10.0   .     S
Ti27     Ti28    10.0   1_554     S
Ti27     Ce54    10.0   .     S
Ti27     Ce112    10.0   .     S
Ti28     Ti27    10.0   1_556     S
Ti28     Ce75    10.0   .     S
Ti28     Ce140    10.0   .     S
Ti29     Ti30    10.0   1_545     S
Ti29     Ce99    10.0   .     S
Ti29     Ce148    10.0   .     S
Ti30     Ti29    10.0   1_565     S
Ti30     Ce209    10.0   .     S
Ti30     Ce245    10.0   .     S
Ti31     Ti32    10.0   1_545     S
Ti31     Ce64    10.0   .     S
Ti31     Ce80    10.0   .     S
Ti32     Ti31    10.0   1_565     S
Ti32     Ce91    10.0   .     S
Ti32     Ce176    10.0   .     S
Ti33     Ti34    10.0   1_455     S
Ti33     Ce59    10.0   .     S
Ti33     Ce96    10.0   .     S
Ti34     Ti33    10.0   1_655     S
Ti34     Ce107    10.0   .     S
Ti34     Ce248    10.0   .     S
Ti35     Ti36    10.0   1_455     S
Ti35     Ce67    10.0   .     S
Ti35     Ce184    10.0   .     S
Ti36     Ti35    10.0   1_655     S
Ti36     Ce137    10.0   .     S
Ti36     Ce214    10.0   .     S
Ti37     Ti38    10.0   1_554     S
Ti37     Ce49    10.0   .     S
Ti37     Ce102    10.0   1_455     S
Ti38     Ti37    10.0   1_556     S
Ti38     Ce70    10.0   .     S
Ti38     Ce143    10.0   1_455     S
Ti39     Ti40    10.0   1_554     S
Ti39     Ce86    10.0   .     S
Ti39     Ce251    10.0   1_455     S
Ti40     Ti39    10.0   1_556     S
Ti40     Ce179    10.0   .     S
Ti40     Ce215    10.0   1_455     S
Ti41     Ti42    10.0   1_545     S
Ti41     Ce49    10.0   .     S
Ti41     Ce70    10.0   1_554     S
Ti42     Ti41    10.0   1_565     S
Ti42     Ce86    10.0   .     S
Ti42     Ce179    10.0   1_554     S
Ti43     Ti44    10.0   1_545     S
Ti43     Ce102    10.0   .     S
Ti43     Ce143    10.0   1_554     S
Ti44     Ti43    10.0   1_565     S
Ti44     Ce215    10.0   1_554     S
Ti44     Ce251    10.0   .     S
Ti45     Ti46    10.0   1_455     S
Ti45     Ce70    10.0   .     S
Ti45     Ce179    10.0   1_545     S
Ti46     Ti45    10.0   1_655     S
Ti46     Ce143    10.0   .     S
Ti46     Ce215    10.0   1_545     S
Ti47     Ti48    10.0   1_455     S
Ti47     Ce49    10.0   .     S
Ti47     Ce86    10.0   1_545     S
Ti48     Ti47    10.0   1_655     S
Ti48     Ce102    10.0   .     S
Ti48     Ce251    10.0   1_545     S
Ce49     Er58    10.0   .     S
Ce49     Er61    10.0   .     S
Ce49     Er51    10.0   .     S
Er50     Er51    10.0   .     S
Er50     Ce54    10.0   .     S
Er50     S168    10.0   .     S
Er51     S224    10.0   .     S
Er52     Er53    10.0   .     S
Er52     Ce64    10.0   .     S
Er52     S168    10.0   .     S
Er53     Ce54    10.0   .     S
Er53     S126    10.0   .     S
Ce54     Er56    10.0   .     S
Er55     Er56    10.0   .     S
Er55     Ce59    10.0   .     S
Er55     S126    10.0   .     S
Er56     S224    10.0   .     S
Er57     Er58    10.0   .     S
Er57     Ce59    10.0   .     S
Er57     S224    10.0   .     S
Er58     S188    10.0   .     S
Ce59     Er62    10.0   .     S
Er60     Er61    10.0   .     S
Er60     Ce64    10.0   .     S
Er60     S188    10.0   .     S
Er61     S168    10.0   .     S
Er62     Er63    10.0   .     S
Er62     S188    10.0   .     S
Er63     Ce64    10.0   .     S
Er63     S126    10.0   .     S
Er65     Er66    10.0   .     S
Er65     Ce70    10.0   .     S
Er65     S185    10.0   .     S
Er66     Ce67    10.0   .     S
Er66     S240    10.0   .     S
Ce67     Er73    10.0   .     S
Ce67     Er77    10.0   .     S
Er68     Er69    10.0   .     S
Er68     Ce80    10.0   .     S
Er68     S185    10.0   .     S
Er69     Ce70    10.0   .     S
Er69     S158    10.0   .     S
Ce70     Er72    10.0   .     S
Ce70     Ti41    10.0   1_556     S
Er71     Er72    10.0   .     S
Er71     Ce75    10.0   .     S
Er71     S158    10.0   .     S
Er72     S240    10.0   .     S
Er73     Er74    10.0   .     S
Er73     S117    10.0   .     S
Er74     Ce75    10.0   .     S
Er74     S240    10.0   .     S
Ce75     Er78    10.0   .     S
Ce75     Ti11    10.0   1_556     S
Er76     Er77    10.0   .     S
Er76     Ce80    10.0   .     S
Er76     S117    10.0   .     S
Er77     S185    10.0   .     S
Er78     Er79    10.0   .     S
Er78     S117    10.0   .     S
Er79     Ce80    10.0   .     S
Er79     S158    10.0   .     S
Er81     Er82    10.0   .     S
Er81     Ce86    10.0   .     S
Er81     S221    10.0   .     S
Er82     Ce83    10.0   .     S
Er82     S155    10.0   .     S
Ce83     Er93    10.0   .     S
Ce83     Er89    10.0   .     S
Er84     Er85    10.0   .     S
Er84     Ce96    10.0   .     S
Er84     S221    10.0   .     S
Er85     Ce86    10.0   .     S
Er85     S191    10.0   .     S
Ce86     Er88    10.0   .     S
Ce86     Ti47    10.0   1_565     S
Er87     Er88    10.0   .     S
Er87     Ce91    10.0   .     S
Er87     S191    10.0   .     S
Er88     S155    10.0   .     S
Er89     Er90    10.0   .     S
Er89     S121    10.0   .     S
Er90     Ce91    10.0   .     S
Er90     S155    10.0   .     S
Ce91     Er94    10.0   .     S
Ce91     Ti13    10.0   1_565     S
Er92     Er93    10.0   .     S
Er92     Ce96    10.0   .     S
Er92     S121    10.0   .     S
Er93     S221    10.0   .     S
Er94     Er95    10.0   .     S
Er94     S121    10.0   .     S
Er95     Ce96    10.0   .     S
Er95     S191    10.0   .     S
Er97     Er98    10.0   .     S
Er97     Ce102    10.0   .     S
Er97     S149    10.0   .     S
Er98     Ce99    10.0   .     S
Er98     S204    10.0   .     S
Ce99     Er109    10.0   .     S
Ce99     Er105    10.0   .     S
Er100     Er101    10.0   .     S
Er100     Ce112    10.0   .     S
Er100     S149    10.0   .     S
Er101     Ce102    10.0   .     S
Er101     S234    10.0   .     S
Ce102     Er104    10.0   .     S
Ce102     Ti37    10.0   1_655     S
Er103     Er104    10.0   .     S
Er103     Ce107    10.0   .     S
Er103     S234    10.0   .     S
Er104     S204    10.0   .     S
Er105     Er106    10.0   .     S
Er105     S129    10.0   .     S
Er106     Ce107    10.0   .     S
Er106     S204    10.0   .     S
Ce107     Er110    10.0   .     S
Ce107     Ti19    10.0   1_655     S
Er108     Er109    10.0   .     S
Er108     Ce112    10.0   .     S
Er108     S129    10.0   .     S
Er109     S149    10.0   .     S
Er110     Er111    10.0   .     S
Er110     S129    10.0   .     S
Er111     Ce112    10.0   .     S
Er111     S234    10.0   .     S
S113     V131    10.0   .     S
S113     V120    10.0   .     S
S113     V116    10.0   .     S
S113     Er218    10.0   .     S
S113     Er212    10.0   .     S
S113     Er207    10.0   .     S
S114     V131    10.0   .     S
S114     V123    10.0   .     S
S114     V115    10.0   .     S
S114     Er133    10.0   .     S
S114     Er138    10.0   .     S
S114     Er145    10.0   .     S
V115     V116    10.0   .     S
V115     S117    10.0   .     S
V116     S118    10.0   .     S
S117     V125    10.0   .     S
S117     V122    10.0   .     S
S118     V125    10.0   .     S
S118     V119    10.0   .     S
S118     Er169    10.0   .     S
S118     Er174    10.0   .     S
S118     Er181    10.0   .     S
V119     V120    10.0   .     S
V119     S121    10.0   .     S
V120     S132    10.0   .     S
S121     V128    10.0   .     S
S121     V124    10.0   .     S
V122     V123    10.0   .     S
V122     S126    10.0   .     S
V123     S129    10.0   .     S
V124     V125    10.0   .     S
V124     S126    10.0   .     S
S126     V127    10.0   .     S
V127     V128    10.0   .     S
V127     S129    10.0   .     S
V128     S132    10.0   .     S
S129     V130    10.0   .     S
V130     V131    10.0   .     S
V130     S132    10.0   .     S
S132     Er241    10.0   .     S
S132     Er246    10.0   .     S
S132     Er253    10.0   .     S
Er133     Er134    10.0   .     S
Er133     Ce148    10.0   .     S
Er134     Ce137    10.0   .     S
Er134     S199    10.0   .     S
Er135     Er136    10.0   .     S
Er135     Ce143    10.0   .     S
Er135     S199    10.0   .     S
Er136     Ce137    10.0   .     S
Er136     S231    10.0   .     S
Ce137     Er138    10.0   .     S
Ce137     Ti20    10.0   1_655     S
Er138     Er139    10.0   .     S
Er139     Ce140    10.0   .     S
Er139     S231    10.0   .     S
Ce140     Er141    10.0   .     S
Ce140     Er145    10.0   .     S
Ce140     Ti9    10.0   1_556     S
Er141     Er142    10.0   .     S
Er141     S165    10.0   .     S
Er142     Ce143    10.0   .     S
Er142     S231    10.0   .     S
Ce143     Er147    10.0   .     S
Ce143     Ti43    10.0   1_556     S
Ce143     Ti38    10.0   1_655     S
Er144     Er145    10.0   .     S
Er144     Ce148    10.0   .     S
Er144     S165    10.0   .     S
Er146     Er147    10.0   .     S
Er146     Ce148    10.0   .     S
Er146     S199    10.0   .     S
Er147     S165    10.0   .     S
S149     V167    10.0   .     S
S149     V163    10.0   .     S
S149     V151    10.0   .     S
S150     V154    10.0   .     S
S150     V163    10.0   1_565     S
S150     V152    10.0   .     S
S150     Er254    10.0   .     S
S150     Er243    10.0   .     S
S150     Er242    10.0   .     S
V151     V152    10.0   1_545     S
V151     S168    10.0   .     S
V152     V151    10.0   1_565     S
V152     S155    10.0   .     S
V153     V154    10.0   .     S
V153     S155    10.0   .     S
V153     S159    10.0   1_554     S
V154     S162    10.0   1_554     S
S155     V156    10.0   1_565     S
V156     S155    10.0   1_545     S
V156     V157    10.0   1_554     S
V156     S168    10.0   .     S
V157     V156    10.0   1_556     S
V157     S158    10.0   .     S
V157     S159    10.0   1_545     S
S158     V160    10.0   .     S
S158     V166    10.0   1_556     S
S159     V161    10.0   .     S
S159     V157    10.0   1_565     S
S159     V153    10.0   1_556     S
S159     Er178    10.0   .     S
S159     Er172    10.0   .     S
S159     Er175    10.0   .     S
V160     V161    10.0   1_545     S
V160     S165    10.0   .     S
V161     V160    10.0   1_565     S
V161     S162    10.0   .     S
S162     V154    10.0   1_556     S
S162     V164    10.0   1_565     S
S162     Er216    10.0   .     S
S162     Er208    10.0   .     S
S162     Er206    10.0   .     S
V163     S150    10.0   1_545     S
V163     V164    10.0   1_554     S
V164     S162    10.0   1_545     S
V164     V163    10.0   1_556     S
V164     S165    10.0   .     S
S165     V167    10.0   1_556     S
V166     S158    10.0   1_554     S
V166     V167    10.0   .     S
V166     S168    10.0   .     S
V167     S165    10.0   1_554     S
Er169     Er170    10.0   .     S
Er169     Ce184    10.0   .     S
Er170     Ce173    10.0   .     S
Er170     S235    10.0   .     S
Er171     Er172    10.0   .     S
Er171     Ce179    10.0   .     S
Er171     S235    10.0   .     S
Er172     Ce173    10.0   .     S
Ce173     Er174    10.0   .     S
Ce173     Ti12    10.0   1_556     S
Er174     Er175    10.0   .     S
Er175     Ce176    10.0   .     S
Ce176     Er177    10.0   .     S
Ce176     Er181    10.0   .     S
Ce176     Ti15    10.0   1_565     S
Er177     Er178    10.0   .     S
Er177     S198    10.0   .     S
Er178     Ce179    10.0   .     S
Ce179     Er183    10.0   .     S
Ce179     Ti45    10.0   1_565     S
Ce179     Ti42    10.0   1_556     S
Er180     Er181    10.0   .     S
Er180     Ce184    10.0   .     S
Er180     S198    10.0   .     S
Er182     Er183    10.0   .     S
Er182     Ce184    10.0   .     S
Er182     S235    10.0   .     S
Er183     S198    10.0   .     S
S185     V187    10.0   .     S
S185     V196    10.0   .     S
S185     V200    10.0   .     S
V186     V187    10.0   .     S
V186     S188    10.0   .     S
V186     S191    10.0   1_545     S
V187     S198    10.0   1_545     S
S188     V189    10.0   .     S
S188     V200    10.0   .     S
V189     V190    10.0   1_545     S
V189     S204    10.0   1_455     S
V190     V189    10.0   1_565     S
V190     S191    10.0   .     S
V190     S192    10.0   1_455     S
S191     V193    10.0   .     S
S191     V186    10.0   1_565     S
S192     V194    10.0   .     S
S192     V190    10.0   1_655     S
S192     V202    10.0   1_565     S
S192     Er250    10.0   .     S
S192     Er244    10.0   .     S
S192     Er247    10.0   .     S
V193     V194    10.0   1_455     S
V193     S198    10.0   .     S
V194     V193    10.0   1_655     S
V194     S195    10.0   .     S
S195     V203    10.0   1_565     S
S195     V197    10.0   1_655     S
S195     Er205    10.0   .     S
S195     Er211    10.0   .     S
S195     Er213    10.0   .     S
V196     V197    10.0   1_545     S
V196     S199    10.0   1_455     S
V197     S195    10.0   1_455     S
V197     V196    10.0   1_565     S
V197     S198    10.0   .     S
S198     V187    10.0   1_565     S
S199     V203    10.0   .     S
S199     V196    10.0   1_655     S
S199     V201    10.0   .     S
V200     V201    10.0   1_455     S
V201     V200    10.0   1_655     S
V201     S204    10.0   .     S
V202     S192    10.0   1_545     S
V202     V203    10.0   .     S
V202     S204    10.0   .     S
V203     S195    10.0   1_545     S
S204     V189    10.0   1_655     S
Er205     Er206    10.0   .     S
Er205     Ce209    10.0   .     S
Er206     Ce215    10.0   .     S
Er207     Er208    10.0   .     S
Er207     Ce220    10.0   .     S
Er208     Ce209    10.0   .     S
Ce209     Er212    10.0   .     S
Ce209     Ti16    10.0   1_565     S
Er210     Er211    10.0   .     S
Er210     Ce214    10.0   .     S
Er210     S228    10.0   .     S
Er211     Ce215    10.0   .     S
Er212     Er213    10.0   .     S
Er213     Ce214    10.0   .     S
Ce214     Er218    10.0   .     S
Ce214     Ti18    10.0   1_655     S
Ce215     Er217    10.0   .     S
Ce215     Ti46    10.0   1_565     S
Ce215     Ti44    10.0   1_556     S
Ce215     Ti40    10.0   1_655     S
Er216     Er217    10.0   .     S
Er216     Ce220    10.0   .     S
Er217     S228    10.0   .     S
Er218     Er219    10.0   .     S
Er219     Ce220    10.0   .     S
Er219     S228    10.0   .     S
Ce220     Ti10    10.0   1_556     S
S221     V223    10.0   .     S
S221     V225    10.0   .     S
S221     V236    10.0   .     S
V222     V223    10.0   .     S
V222     S224    10.0   .     S
V222     S234    10.0   1_455     S
V223     S227    10.0   1_455     S
S224     V232    10.0   .     S
S224     V236    10.0   .     S
V225     V226    10.0   1_455     S
V225     S235    10.0   1_554     S
V226     V225    10.0   1_655     S
V226     S227    10.0   .     S
V226     S228    10.0   1_554     S
S227     V223    10.0   1_655     S
S227     V229    10.0   .     S
S227     Er249    10.0   .     S
S227     Er252    10.0   .     S
S227     Er255    10.0   .     S
S228     V239    10.0   1_655     S
S228     V230    10.0   .     S
S228     V226    10.0   1_556     S
V229     V230    10.0   1_554     S
V229     S234    10.0   .     S
V230     V229    10.0   1_556     S
V230     S231    10.0   .     S
S231     V233    10.0   1_556     S
S231     V238    10.0   1_655     S
V232     V233    10.0   1_455     S
V232     S240    10.0   1_554     S
V233     S231    10.0   1_554     S
V233     V232    10.0   1_655     S
V233     S234    10.0   .     S
S234     V222    10.0   1_655     S
S235     V239    10.0   .     S
S235     V225    10.0   1_556     S
S235     V237    10.0   .     S
V236     V237    10.0   1_554     S
V237     V236    10.0   1_556     S
V237     S240    10.0   .     S
V238     S231    10.0   1_455     S
V238     V239    10.0   .     S
V238     S240    10.0   .     S
V239     S228    10.0   1_455     S
S240     V232    10.0   1_556     S
Er241     Er242    10.0   .     S
Er241     Ce256    10.0   .     S
Er242     Ce245    10.0   .     S
Er243     Er244    10.0   .     S
Er243     Ce251    10.0   .     S
Er244     Ce245    10.0   .     S
Ce245     Er246    10.0   .     S
Ce245     Ti14    10.0   1_565     S
Er246     Er247    10.0   .     S
Er247     Ce248    10.0   .     S
Ce248     Er249    10.0   .     S
Ce248     Er253    10.0   .     S
Ce248     Ti17    10.0   1_655     S
Er249     Er250    10.0   .     S
Er250     Ce251    10.0   .     S
Ce251     Er255    10.0   .     S
Ce251     Ti39    10.0   1_655     S
Ce251     Ti48    10.0   1_565     S
Er252     Er253    10.0   .     S
Er252     Ce256    10.0   .     S
Er254     Er255    10.0   .     S
Er254     Ce256    10.0   .     S
