data_cdst
_audit_creation_date              2020-02-02
_audit_creation_method            'Pymatgen'
_symmetry_space_group_name_H-M    'P1'
_symmetry_Int_Tables_number       1
loop_
_symmetry_equiv_pos_as_xyz
  x,y,z
_cell_length_a                    25.1701
_cell_length_b                    25.1701
_cell_length_c                    34.5147
_cell_angle_alpha                 90.0
_cell_angle_beta                 90.0
_cell_angle_gamma                 90.0
loop_
_atom_site_label
_atom_site_type_symbol
_atom_site_fract_x
_atom_site_fract_y
_atom_site_fract_z
Ti1     Ti     0.5   0.0   0.9777
Ti2     Ti     0.5   0.0   0.0223
Ti3     Ti     0.0   0.5   0.4777
Ti4     Ti     0.0   0.5   0.5223
Ti5     Ti     0.5   0.0   0.5223
Ti6     Ti     0.5   0.0   0.4777
Ti7     Ti     0.0   0.5   0.0223
Ti8     Ti     0.0   0.5   0.9777
S9     S     0.2324   0.4867   0.9128
S10     S     0.4867   0.2324   0.9128
S11     S     0.7676   0.4867   0.5872
S12     S     0.7676   0.5133   0.9128
S13     S     0.5133   0.7676   0.9128
S14     S     0.4867   0.7676   0.5872
S15     S     0.2324   0.5133   0.5872
S16     S     0.5133   0.2324   0.5872
V17     V     0.0   0.7457   0.75
Ce18     Ce     0.0   0.7191   0.75
V19     V     0.7457   0.0   0.75
Ce20     Ce     0.7191   0.0   0.75
V21     V     0.2543   0.0   0.75
Ce22     Ce     0.2809   0.0   0.75
V23     V     0.0   0.2543   0.75
Ce24     Ce     0.0   0.2809   0.75
Er25     Er     0.6607   0.3797   0.1449
Er26     Er     0.6203   0.3393   0.1449
Er27     Er     0.6203   0.3393   0.8551
Er28     Er     0.6607   0.3797   0.8551
Er29     Er     0.6203   0.6607   0.6449
Er30     Er     0.6607   0.6203   0.6449
Er31     Er     0.6607   0.6203   0.3551
Er32     Er     0.6203   0.6607   0.3551
Er33     Er     0.3797   0.3393   0.6449
Er34     Er     0.3393   0.3797   0.6449
Er35     Er     0.3393   0.3797   0.3551
Er36     Er     0.3797   0.3393   0.3551
Er37     Er     0.3797   0.6607   0.8551
Er38     Er     0.3393   0.6203   0.8551
Er39     Er     0.3393   0.6203   0.1449
Er40     Er     0.3797   0.6607   0.1449
S41     S     0.4867   0.7676   0.4128
S42     S     0.7676   0.4867   0.4128
S43     S     0.4867   0.2324   0.0872
S44     S     0.2324   0.4867   0.0872
S45     S     0.5133   0.7676   0.0872
S46     S     0.5133   0.2324   0.4128
S47     S     0.2324   0.5133   0.4128
S48     S     0.7676   0.5133   0.0872
V49     V     0.7457   0.0   0.25
Ce50     Ce     0.7191   0.0   0.25
V51     V     0.0   0.7457   0.25
Ce52     Ce     0.0   0.7191   0.25
V53     V     0.2543   0.0   0.25
Ce54     Ce     0.2809   0.0   0.25
V55     V     0.0   0.2543   0.25
Ce56     Ce     0.0   0.2809   0.25
loop_
_geom_bond_atom_site_label_1
_geom_bond_atom_site_label_2
_geom_bond_distance
_geom_bond_site_symmetry_2
_ccdc_geom_bond_type
Ti1     Er27    10.0   .     S
Ti1     V19    10.0   .     S
Ti1     Er37    10.0   1_545     S
Ti1     V21    10.0   .     S
Ti2     Er26    10.0   .     S
Ti2     V49    10.0   .     S
Ti2     Er40    10.0   1_545     S
Ti2     V53    10.0   .     S
Ti3     Er31    10.0   1_455     S
Ti3     V51    10.0   .     S
Ti3     Er35    10.0   .     S
Ti3     V55    10.0   .     S
Ti4     Er30    10.0   1_455     S
Ti4     V17    10.0   .     S
Ti4     Er34    10.0   .     S
Ti4     V23    10.0   .     S
Ti5     Er29    10.0   1_545     S
Ti5     V19    10.0   .     S
Ti5     Er33    10.0   .     S
Ti5     V21    10.0   .     S
Ti6     Er32    10.0   1_545     S
Ti6     V49    10.0   .     S
Ti6     Er36    10.0   .     S
Ti6     V53    10.0   .     S
Ti7     Er39    10.0   .     S
Ti7     V51    10.0   .     S
Ti7     Er25    10.0   1_455     S
Ti7     V55    10.0   .     S
Ti8     Er38    10.0   .     S
Ti8     V17    10.0   .     S
Ti8     Er28    10.0   1_455     S
Ti8     V23    10.0   .     S
S9     Er34    10.0   .     S
S9     Ce18    10.0   .     S
S9     V23    10.0   .     S
S9     S13    10.0   .     S
S10     Er33    10.0   .     S
S10     Ce20    10.0   .     S
S10     V21    10.0   .     S
S10     S12    10.0   .     S
S11     Er28    10.0   .     S
S11     Ce18    10.0   1_655     S
S11     V23    10.0   1_655     S
S11     S14    10.0   .     S
S12     Er30    10.0   .     S
S12     V17    10.0   1_655     S
S12     Ce24    10.0   1_655     S
S13     Er29    10.0   .     S
S13     V19    10.0   1_565     S
S13     Ce22    10.0   1_565     S
S14     Er37    10.0   .     S
S14     Ce20    10.0   1_565     S
S14     V21    10.0   1_565     S
S15     Er38    10.0   .     S
S15     V17    10.0   .     S
S15     Ce24    10.0   .     S
S15     S16    10.0   .     S
S16     Er27    10.0   .     S
S16     V19    10.0   .     S
S16     Ce22    10.0   .     S
V17     S12    10.0   1_455     S
Ce18     S11    10.0   1_455     S
Ce18     Ce22    10.0   1_565     S
Ce18     Ce20    10.0   1_465     S
V19     S13    10.0   1_545     S
Ce20     S14    10.0   1_545     S
Ce20     Ce24    10.0   1_655     S
Ce20     Ce18    10.0   1_645     S
V21     S14    10.0   1_545     S
Ce22     S13    10.0   1_545     S
Ce22     Ce24    10.0   .     S
Ce22     Ce18    10.0   1_545     S
V23     S11    10.0   1_455     S
Ce24     S12    10.0   1_455     S
Ce24     Ce20    10.0   1_455     S
Er25     Er40    10.0   .     S
Er25     S42    10.0   .     S
Er25     Er28    10.0   1_554     S
Er25     Ti7    10.0   1_655     S
Er26     Er39    10.0   .     S
Er26     S46    10.0   .     S
Er26     Er27    10.0   1_554     S
Er27     Er38    10.0   .     S
Er27     Er26    10.0   1_556     S
Er28     Er37    10.0   .     S
Er28     Ti8    10.0   1_655     S
Er28     Er25    10.0   1_556     S
Er29     Er34    10.0   .     S
Er29     Ti5    10.0   1_565     S
Er29     Er32    10.0   .     S
Er30     Er33    10.0   .     S
Er30     Ti4    10.0   1_655     S
Er30     Er31    10.0   .     S
Er31     Er36    10.0   .     S
Er31     S48    10.0   .     S
Er31     Ti3    10.0   1_655     S
Er32     Er35    10.0   .     S
Er32     S45    10.0   .     S
Er32     Ti6    10.0   1_565     S
Er33     Er36    10.0   .     S
Er34     Er35    10.0   .     S
Er35     S44    10.0   .     S
Er36     S43    10.0   .     S
Er37     Ti1    10.0   1_565     S
Er37     Er40    10.0   1_556     S
Er38     Er39    10.0   1_556     S
Er39     S47    10.0   .     S
Er39     Er38    10.0   1_554     S
Er40     S41    10.0   .     S
Er40     Er37    10.0   1_554     S
Er40     Ti2    10.0   1_565     S
S41     S42    10.0   .     S
S41     Ce50    10.0   1_565     S
S41     V53    10.0   1_565     S
S42     Ce52    10.0   1_655     S
S42     V55    10.0   1_655     S
S43     S48    10.0   .     S
S43     Ce50    10.0   .     S
S43     V53    10.0   .     S
S44     S45    10.0   .     S
S44     Ce52    10.0   .     S
S44     V55    10.0   .     S
S45     V49    10.0   1_565     S
S45     Ce54    10.0   1_565     S
S46     S47    10.0   .     S
S46     V49    10.0   .     S
S46     Ce54    10.0   .     S
S47     V51    10.0   .     S
S47     Ce56    10.0   .     S
S48     V51    10.0   1_655     S
S48     Ce56    10.0   1_655     S
V49     S45    10.0   1_545     S
Ce50     S41    10.0   1_545     S
Ce50     Ce56    10.0   1_655     S
Ce50     Ce52    10.0   1_645     S
V51     S48    10.0   1_455     S
Ce52     S42    10.0   1_455     S
Ce52     Ce54    10.0   1_565     S
Ce52     Ce50    10.0   1_465     S
V53     S41    10.0   1_545     S
Ce54     S45    10.0   1_545     S
Ce54     Ce56    10.0   .     S
Ce54     Ce52    10.0   1_545     S
V55     S42    10.0   1_455     S
Ce56     S48    10.0   1_455     S
Ce56     Ce50    10.0   1_455     S
