data_cea
_audit_creation_date              2020-02-02
_audit_creation_method            'Pymatgen'
_symmetry_space_group_name_H-M    'P1'
_symmetry_Int_Tables_number       1
loop_
_symmetry_equiv_pos_as_xyz
  x,y,z
_cell_length_a                    56.2734
_cell_length_b                    32.3126
_cell_length_c                    35.8618
_cell_angle_alpha                 90.0
_cell_angle_beta                 90.0
_cell_angle_gamma                 90.0
loop_
_atom_site_label
_atom_site_type_symbol
_atom_site_fract_x
_atom_site_fract_y
_atom_site_fract_z
Ce1     Ce     0.5337   0.1547   0.871
Ce2     Ce     0.5337   0.8453   0.871
Ce3     Ce     0.9663   0.8453   0.871
Ce4     Ce     0.9663   0.1547   0.871
Er5     Er     0.8388   0.3453   0.5011
V6     V     0.8388   0.3453   0.7799
Er7     Er     0.6612   0.3453   0.5011
V8     V     0.6612   0.3453   0.7799
Er9     Er     0.8388   0.6547   0.5011
V10     V     0.8388   0.6547   0.7799
Er11     Er     0.6612   0.6547   0.5011
V12     V     0.6612   0.6547   0.7799
Ti13     Ti     0.9554   0.8453   0.3794
Ti14     Ti     0.0446   0.8453   0.6206
Ti15     Ti     0.9554   0.1547   0.3794
Ti16     Ti     0.0446   0.1547   0.6206
Ti17     Ti     0.5446   0.8453   0.3794
Ti18     Ti     0.4554   0.8453   0.6206
Ti19     Ti     0.4554   0.1547   0.6206
Ti20     Ti     0.5446   0.1547   0.3794
Ce21     Ce     0.4663   0.1547   0.129
Ce22     Ce     0.4663   0.8453   0.129
Ce23     Ce     0.0337   0.8453   0.129
Ce24     Ce     0.0337   0.1547   0.129
Er25     Er     0.1611   0.6547   0.4989
V26     V     0.1611   0.6547   0.2201
V27     V     0.3388   0.6547   0.2201
Er28     Er     0.3388   0.6547   0.4989
V29     V     0.1611   0.3453   0.2201
Er30     Er     0.1611   0.3453   0.4989
V31     V     0.3388   0.3453   0.2201
Er32     Er     0.3388   0.3453   0.4989
loop_
_geom_bond_atom_site_label_1
_geom_bond_atom_site_label_2
_geom_bond_distance
_geom_bond_site_symmetry_2
_ccdc_geom_bond_type
Ce1     Ti19    10.0   .     S
Ce1     Ce2    10.0   1_545     S
Ce1     V8    10.0   .     S
Ce1     Ce21    10.0   1_556     S
Ce2     Ti18    10.0   .     S
Ce2     Ce1    10.0   1_565     S
Ce2     V12    10.0   .     S
Ce2     Ce22    10.0   1_556     S
Ce3     Ti14    10.0   1_655     S
Ce3     Ce4    10.0   1_565     S
Ce3     V10    10.0   .     S
Ce3     Ce23    10.0   1_656     S
Ce4     Ti16    10.0   1_655     S
Ce4     Ce3    10.0   1_545     S
Ce4     V6    10.0   .     S
Ce4     Ce24    10.0   1_656     S
Er5     V6    10.0   .     S
Er5     Er7    10.0   .     S
Er5     Er9    10.0   .     S
Er5     Ti15    10.0   .     S
V6     V8    10.0   .     S
V6     V10    10.0   .     S
Er7     V8    10.0   .     S
Er7     Er11    10.0   .     S
Er7     Ti20    10.0   .     S
V8     V12    10.0   .     S
Er9     V10    10.0   .     S
Er9     Er11    10.0   .     S
Er9     Ti13    10.0   .     S
V10     V12    10.0   .     S
Er11     V12    10.0   .     S
Er11     Ti17    10.0   .     S
Ti13     Ti14    10.0   1_655     S
Ti13     Ti15    10.0   1_565     S
Ti13     Ce23    10.0   1_655     S
Ti14     Ce3    10.0   1_455     S
Ti14     Er25    10.0   .     S
Ti14     Ti13    10.0   1_455     S
Ti14     Ti16    10.0   1_565     S
Ti15     Ti16    10.0   1_655     S
Ti15     Ti13    10.0   1_545     S
Ti15     Ce24    10.0   1_655     S
Ti16     Ce4    10.0   1_455     S
Ti16     Er30    10.0   .     S
Ti16     Ti15    10.0   1_455     S
Ti16     Ti14    10.0   1_545     S
Ti17     Ti18    10.0   .     S
Ti17     Ti20    10.0   1_565     S
Ti17     Ce22    10.0   .     S
Ti18     Er28    10.0   .     S
Ti18     Ti19    10.0   1_565     S
Ti19     Er32    10.0   .     S
Ti19     Ti20    10.0   .     S
Ti19     Ti18    10.0   1_545     S
Ti20     Ti17    10.0   1_545     S
Ti20     Ce21    10.0   .     S
Ce21     Ce22    10.0   1_545     S
Ce21     V31    10.0   .     S
Ce21     Ce1    10.0   1_554     S
Ce22     Ce21    10.0   1_565     S
Ce22     V27    10.0   .     S
Ce22     Ce2    10.0   1_554     S
Ce23     Ti13    10.0   1_455     S
Ce23     Ce24    10.0   1_565     S
Ce23     V26    10.0   .     S
Ce23     Ce3    10.0   1_454     S
Ce24     Ti15    10.0   1_455     S
Ce24     Ce23    10.0   1_545     S
Ce24     V29    10.0   .     S
Ce24     Ce4    10.0   1_454     S
Er25     V26    10.0   .     S
Er25     Er28    10.0   .     S
Er25     Er30    10.0   .     S
V26     V27    10.0   .     S
V26     V29    10.0   .     S
V27     Er28    10.0   .     S
V27     V31    10.0   .     S
Er28     Er32    10.0   .     S
V29     Er30    10.0   .     S
V29     V31    10.0   .     S
Er30     Er32    10.0   .     S
V31     Er32    10.0   .     S
