data_ceb
_audit_creation_date              2020-02-02
_audit_creation_method            'Pymatgen'
_symmetry_space_group_name_H-M    'P1'
_symmetry_Int_Tables_number       1
loop_
_symmetry_equiv_pos_as_xyz
  x,y,z
_cell_length_a                    117.5545
_cell_length_b                    36.8889
_cell_length_c                    39.3916
_cell_angle_alpha                 90.0
_cell_angle_beta                 90.0
_cell_angle_gamma                 90.0
loop_
_atom_site_label
_atom_site_type_symbol
_atom_site_fract_x
_atom_site_fract_y
_atom_site_fract_z
Ce1     Ce     0.7075   0.0   0.7501
Ce2     Ce     0.7925   0.0   0.7501
Ti3     Ti     0.7925   0.0   0.4963
Ti4     Ti     0.7075   0.0   0.4963
H5     H     0.624   0.0   0.7989
Li6     Li     0.5519   0.1355   0.8437
Li7     Li     0.5519   0.8645   0.8437
Li8     Li     0.4481   0.8645   0.1563
Li9     Li     0.4481   0.1355   0.1563
H10     H     0.376   0.0   0.2012
S11     S     0.624   0.0   0.4478
He12     He     0.5518   0.1355   0.4042
He13     He     0.5518   0.8645   0.4042
S14     S     0.376   0.0   0.5522
He15     He     0.4482   0.1355   0.5958
He16     He     0.4482   0.8645   0.5958
Er17     Er     0.4927   0.6355   0.6251
Er18     Er     0.4927   0.3645   0.6251
Er19     Er     0.5073   0.6355   0.3749
Er20     Er     0.5073   0.3645   0.3749
V21     V     0.4925   0.3645   0.1249
V22     V     0.4925   0.6355   0.1249
V23     V     0.5075   0.3645   0.8751
V24     V     0.5075   0.6355   0.8751
Ce25     Ce     0.2075   0.0   0.2499
Ce26     Ce     0.2925   0.0   0.2499
Ti27     Ti     0.2925   0.0   0.5037
Ti28     Ti     0.2075   0.0   0.5037
H29     H     0.124   0.0   0.2012
Li30     Li     0.0519   0.1355   0.1563
Li31     Li     0.0519   0.8645   0.1563
S32     S     0.876   0.0   0.4478
He33     He     0.9482   0.1355   0.4042
He34     He     0.9482   0.8645   0.4042
S35     S     0.124   0.0   0.5522
He36     He     0.0518   0.1355   0.5958
He37     He     0.0518   0.8645   0.5958
Er38     Er     0.0073   0.3645   0.6251
Er39     Er     0.0073   0.6355   0.6251
V40     V     0.0075   0.3645   0.1249
V41     V     0.0075   0.6355   0.1249
V42     V     0.9925   0.3645   0.8751
V43     V     0.9925   0.6355   0.8751
Er44     Er     0.9927   0.3645   0.3749
Er45     Er     0.9927   0.6355   0.3749
H46     H     0.876   0.0   0.7989
Li47     Li     0.9481   0.8645   0.8437
Li48     Li     0.9481   0.1355   0.8437
loop_
_geom_bond_atom_site_label_1
_geom_bond_atom_site_label_2
_geom_bond_distance
_geom_bond_site_symmetry_2
_ccdc_geom_bond_type
Ce1     Ti4    10.0   .     S
Ce1     Ce2    9.999   .     S
Ce1     H5    10.001   .     S
Ce2     Ti3    10.0   .     S
Ce2     H46    10.001   .     S
Ti3     Ti4    9.999   .     S
Ti3     S32    10.001   .     S
Ti4     S11    10.001   .     S
H5     Li7    10.0   1_545     S
H5     Li6    10.0   .     S
Li6     Li7    10.0   1_545     S
Li6     V23    10.0   .     S
Li7     H5    10.0   1_565     S
Li7     Li6    10.0   1_565     S
Li7     V24    10.0   .     S
Li8     Li9    10.0   1_565     S
Li8     H10    10.0   1_565     S
Li8     V22    10.0   .     S
Li9     Li8    10.0   1_545     S
Li9     H10    10.0   .     S
Li9     V21    10.0   .     S
H10     Ce26    10.001   .     S
H10     Li8    10.0   1_545     S
S11     He13    10.0   1_545     S
S11     He12    10.0   .     S
He12     He13    10.0   1_545     S
He12     Er20    10.0   .     S
He13     S11    10.0   1_565     S
He13     He12    10.0   1_565     S
He13     Er19    10.0   .     S
S14     Ti27    10.001   .     S
S14     He15    10.0   .     S
S14     He16    10.0   1_545     S
He15     He16    10.0   1_545     S
He15     Er18    10.0   .     S
He16     S14    10.0   1_565     S
He16     He15    10.0   1_565     S
He16     Er17    10.0   .     S
Er17     Er18    10.0   .     S
Er17     V24    10.0   .     S
Er17     Er19    10.0   .     S
Er18     V23    10.0   .     S
Er18     Er20    10.0   .     S
Er19     Er20    10.0   .     S
Er19     V22    10.0   .     S
Er20     V21    10.0   .     S
V21     V22    10.0   .     S
V21     V23    10.0   1_554     S
V22     V24    10.0   1_554     S
V23     V24    10.0   .     S
V23     V21    10.0   1_556     S
V24     V22    10.0   1_556     S
Ce25     Ti28    10.0   .     S
Ce25     Ce26    9.999   .     S
Ce25     H29    10.001   .     S
Ce26     Ti27    10.0   .     S
Ti27     Ti28    9.999   .     S
Ti28     S35    10.001   .     S
H29     Li30    10.0   .     S
H29     Li31    10.0   1_545     S
Li30     Li31    10.0   1_545     S
Li30     V40    10.0   .     S
Li31     H29    10.0   1_565     S
Li31     Li30    10.0   1_565     S
Li31     V41    10.0   .     S
S32     He34    10.0   1_545     S
S32     He33    10.0   .     S
He33     He34    10.0   1_545     S
He33     Er44    10.0   .     S
He34     S32    10.0   1_565     S
He34     He33    10.0   1_565     S
He34     Er45    10.0   .     S
S35     He37    10.0   1_545     S
S35     He36    10.0   .     S
He36     He37    10.0   1_545     S
He36     Er38    10.0   .     S
He37     S35    10.0   1_565     S
He37     He36    10.0   1_565     S
He37     Er39    10.0   .     S
Er38     Er39    10.0   .     S
Er38     V42    10.0   1_455     S
Er38     Er44    10.0   1_455     S
Er39     V43    10.0   1_455     S
Er39     Er45    10.0   1_455     S
V40     V41    10.0   .     S
V40     V42    10.0   1_454     S
V40     Er44    10.0   1_455     S
V41     V43    10.0   1_454     S
V41     Er45    10.0   1_455     S
V42     Er38    10.0   1_655     S
V42     V43    10.0   .     S
V42     V40    10.0   1_656     S
V42     Li48    10.0   .     S
V43     Er39    10.0   1_655     S
V43     V41    10.0   1_656     S
V43     Li47    10.0   .     S
Er44     Er45    10.0   .     S
Er44     V40    10.0   1_655     S
Er44     Er38    10.0   1_655     S
Er45     V41    10.0   1_655     S
Er45     Er39    10.0   1_655     S
H46     Li48    10.0   .     S
H46     Li47    10.0   1_545     S
Li47     H46    10.0   1_565     S
Li47     Li48    10.0   1_565     S
Li48     Li47    10.0   1_545     S
