data_ceca
_audit_creation_date              2020-02-02
_audit_creation_method            'Pymatgen'
_symmetry_space_group_name_H-M    'P1'
_symmetry_Int_Tables_number       1
loop_
_symmetry_equiv_pos_as_xyz
  x,y,z
_cell_length_a                    62.0662
_cell_length_b                    62.0662
_cell_length_c                    33.5257
_cell_angle_alpha                 90.0
_cell_angle_beta                 90.0
_cell_angle_gamma                 120.0
loop_
_atom_site_label
_atom_site_type_symbol
_atom_site_fract_x
_atom_site_fract_y
_atom_site_fract_z
Er1     Er     0.0   0.7202   0.149
Er2     Er     0.0   0.7202   0.851
V3     V     0.0   0.5806   0.0
Er4     Er     0.7202   0.7202   0.149
Er5     Er     0.7202   0.7202   0.851
V6     V     0.5806   0.5806   0.0
Er7     Er     0.2798   0.2798   0.149
Er8     Er     0.2798   0.2798   0.851
V9     V     0.4194   0.4194   0.0
Er10     Er     0.2798   0.0   0.149
Er11     Er     0.2798   0.0   0.851
V12     V     0.4194   0.0   0.0
Er13     Er     0.7202   0.0   0.149
Er14     Er     0.7202   0.0   0.851
V15     V     0.5806   0.0   0.0
Er16     Er     0.0   0.2798   0.149
Er17     Er     0.0   0.2798   0.851
V18     V     0.0   0.4194   0.0
Ti19     Ti     0.0   0.8389   0.3509
Ti20     Ti     0.0   0.8389   0.6491
Ti21     Ti     0.8389   0.8389   0.3509
Ti22     Ti     0.8389   0.8389   0.6491
Ti23     Ti     0.8389   0.0   0.3509
Ti24     Ti     0.8389   0.0   0.6491
Ti25     Ti     0.1611   0.0   0.3509
Ti26     Ti     0.1611   0.0   0.6491
Ti27     Ti     0.1611   0.1611   0.3509
Ti28     Ti     0.1611   0.1611   0.6491
Ti29     Ti     0.0   0.1611   0.3509
Ti30     Ti     0.0   0.1611   0.6491
loop_
_geom_bond_atom_site_label_1
_geom_bond_atom_site_label_2
_geom_bond_distance
_geom_bond_site_symmetry_2
_ccdc_geom_bond_type
Er1     Er2    9.992   1_554     S
Er1     V3    10.001   .     S
Er1     Ti19    10.003   .     S
Er2     Er1    9.992   1_556     S
Er2     V3    10.001   1_556     S
Er2     Ti20    10.003   .     S
V3     Er2    10.001   1_554     S
V3     V18    10.01   .     S
Er4     Er5    9.992   1_554     S
Er4     V6    10.001   .     S
Er4     Ti21    10.003   .     S
Er5     Er4    9.992   1_556     S
Er5     V6    10.001   1_556     S
Er5     Ti22    10.003   .     S
V6     Er5    10.001   1_554     S
V6     V9    10.01   .     S
Er7     Er8    9.992   1_554     S
Er7     V9    10.001   .     S
Er7     Ti27    10.003   .     S
Er8     Er7    9.992   1_556     S
Er8     V9    10.001   1_556     S
Er8     Ti28    10.003   .     S
V9     Er8    10.001   1_554     S
Er10     Er11    9.992   1_554     S
Er10     V12    10.001   .     S
Er10     Ti25    10.003   .     S
Er11     Er10    9.992   1_556     S
Er11     V12    10.001   1_556     S
Er11     Ti26    10.003   .     S
V12     Er11    10.001   1_554     S
V12     V15    10.01   .     S
Er13     Er14    9.992   1_554     S
Er13     V15    10.001   .     S
Er13     Ti23    10.003   .     S
Er14     Er13    9.992   1_556     S
Er14     V15    10.001   1_556     S
Er14     Ti24    10.003   .     S
V15     Er14    10.001   1_554     S
Er16     V18    10.001   .     S
Er16     Er17    9.992   1_554     S
Er16     Ti29    10.003   .     S
Er17     V18    10.001   1_556     S
Er17     Er16    9.992   1_556     S
Er17     Ti30    10.003   .     S
V18     Er17    10.001   1_554     S
Ti19     Ti20    9.998   .     S
Ti19     Ti21    9.999   1_455     S
Ti19     Ti25    9.999   1_565     S
Ti20     Ti22    9.999   1_455     S
Ti20     Ti26    9.999   1_565     S
Ti21     Ti22    9.998   .     S
Ti21     Ti19    9.999   1_655     S
Ti21     Ti23    9.999   1_565     S
Ti22     Ti20    9.999   1_655     S
Ti22     Ti24    9.999   1_565     S
Ti23     Ti24    9.998   .     S
Ti23     Ti21    9.999   1_545     S
Ti23     Ti29    9.999   1_655     S
Ti24     Ti22    9.999   1_545     S
Ti24     Ti30    9.999   1_655     S
Ti25     Ti26    9.998   .     S
Ti25     Ti27    9.999   .     S
Ti25     Ti19    9.999   1_545     S
Ti26     Ti20    9.999   1_545     S
Ti26     Ti28    9.999   .     S
Ti27     Ti28    9.998   .     S
Ti27     Ti29    9.999   .     S
Ti28     Ti30    9.999   .     S
Ti29     Ti23    9.999   1_455     S
Ti29     Ti30    9.998   .     S
Ti30     Ti24    9.999   1_455     S
