data_ced
_audit_creation_date              2020-02-02
_audit_creation_method            'Pymatgen'
_symmetry_space_group_name_H-M    'P1'
_symmetry_Int_Tables_number       1
loop_
_symmetry_equiv_pos_as_xyz
  x,y,z
_cell_length_a                    18.024
_cell_length_b                    18.024
_cell_length_c                    18.6707
_cell_angle_alpha                 90.0
_cell_angle_beta                 90.0
_cell_angle_gamma                 120.0
loop_
_atom_site_label
_atom_site_type_symbol
_atom_site_fract_x
_atom_site_fract_y
_atom_site_fract_z
V1     V     0.5   0.5   0.2673
V2     V     0.5   0.5   0.7327
V3     V     0.5   0.0   0.2673
V4     V     0.5   0.0   0.7327
V5     V     0.0   0.5   0.2673
V6     V     0.0   0.5   0.7327
Er7     Er     0.0   0.0   0.5
loop_
_geom_bond_atom_site_label_1
_geom_bond_atom_site_label_2
_geom_bond_distance
_geom_bond_site_symmetry_2
_ccdc_geom_bond_type
V1     V2    9.982   1_554     S
V1     Er7    10.004   .     S
V1     Er7    10.004   1_665     S
V2     V1    9.982   1_556     S
V2     Er7    10.004   .     S
V2     Er7    10.004   1_665     S
V3     V4    9.982   1_554     S
V3     Er7    10.004   .     S
V3     Er7    10.004   1_655     S
V4     V3    9.982   1_556     S
V4     Er7    10.004   .     S
V4     Er7    10.004   1_655     S
V5     V6    9.982   1_554     S
V5     Er7    10.004   1_565     S
V5     Er7    10.004   .     S
V6     V5    9.982   1_556     S
V6     Er7    10.004   1_565     S
V6     Er7    10.004   .     S
Er7     V5    10.004   1_545     S
Er7     V6    10.004   1_545     S
Er7     V1    10.004   1_445     S
Er7     V2    10.004   1_445     S
Er7     V3    10.004   1_455     S
Er7     V4    10.004   1_455     S
