data_cefa
_audit_creation_date              2020-02-02
_audit_creation_method            'Pymatgen'
_symmetry_space_group_name_H-M    'P1'
_symmetry_Int_Tables_number       1
loop_
_symmetry_equiv_pos_as_xyz
  x,y,z
_cell_length_a                    67.8379
_cell_length_b                    67.8379
_cell_length_c                    52.9891
_cell_angle_alpha                 90.0
_cell_angle_beta                 90.0
_cell_angle_gamma                 120.0
loop_
_atom_site_label
_atom_site_type_symbol
_atom_site_fract_x
_atom_site_fract_y
_atom_site_fract_z
Ce1     Ce     0.2842   0.5684   0.4056
Ce2     Ce     0.4316   0.7158   0.4056
Ce3     Ce     0.2842   0.7158   0.4056
Ce4     Ce     0.2842   0.5684   0.5944
Ce5     Ce     0.4316   0.7158   0.5944
Ce6     Ce     0.2842   0.7158   0.5944
V7     V     0.5679   0.784   0.2924
V8     V     0.5679   0.784   0.7076
V9     V     0.216   0.4321   0.2924
V10     V     0.216   0.784   0.2924
V11     V     0.216   0.4321   0.7076
V12     V     0.216   0.784   0.7076
Er13     Er     0.0826   0.3125   0.8033
Er14     Er     0.2299   0.3125   0.8033
Ti15     Ti     0.2283   0.0404   0.9057
Ti16     Ti     0.2283   0.0404   0.0943
Ti17     Ti     0.2283   0.1878   0.9057
Ti18     Ti     0.2283   0.1878   0.0943
Er19     Er     0.0826   0.3125   0.1967
Er20     Er     0.2299   0.3125   0.1967
Ti21     Ti     0.9596   0.1878   0.9057
Ti22     Ti     0.9596   0.1878   0.0943
Ti23     Ti     0.8122   0.0404   0.9057
Ti24     Ti     0.8122   0.0404   0.0943
Er25     Er     0.6875   0.9174   0.8033
Er26     Er     0.6875   0.7701   0.8033
Er27     Er     0.6875   0.9174   0.1967
Er28     Er     0.6875   0.7701   0.1967
Er29     Er     0.0826   0.7701   0.8033
Er30     Er     0.2299   0.9174   0.8033
Er31     Er     0.0826   0.7701   0.1967
Er32     Er     0.2299   0.9174   0.1967
Ti33     Ti     0.9596   0.7717   0.9057
Ti34     Ti     0.9596   0.7717   0.0943
Ti35     Ti     0.8122   0.7717   0.9057
Ti36     Ti     0.8122   0.7717   0.0943
loop_
_geom_bond_atom_site_label_1
_geom_bond_atom_site_label_2
_geom_bond_distance
_geom_bond_site_symmetry_2
_ccdc_geom_bond_type
Ce1     Ce2    10.0   .     S
Ce1     Ce3    10.0   .     S
Ce1     Ce4    10.0   .     S
Ce1     V9    10.008   .     S
Ce2     Ce5    10.0   .     S
Ce2     Ce3    10.0   .     S
Ce2     V7    10.008   .     S
Ce3     Ce6    10.0   .     S
Ce3     V10    10.008   .     S
Ce4     Ce5    10.0   .     S
Ce4     Ce6    10.0   .     S
Ce4     V11    10.008   .     S
Ce5     Ce6    10.0   .     S
Ce5     V8    10.008   .     S
Ce6     V12    10.008   .     S
V7     Er28    10.002   .     S
V7     Er27    10.001   .     S
V8     Er26    10.002   .     S
V8     Er25    10.001   .     S
V9     Er19    10.002   .     S
V9     Er20    10.001   .     S
V10     Er32    10.001   .     S
V10     Er31    10.001   .     S
V11     Er13    10.002   .     S
V11     Er14    10.001   .     S
V12     Er30    10.001   .     S
V12     Er29    10.001   .     S
Er13     Er14    9.992   .     S
Er13     Ti21    10.0   1_455     S
Er14     Ti17    10.0   .     S
Ti15     Ti16    9.997   1_556     S
Ti15     Ti17    10.0   .     S
Ti15     Er30    10.0   1_545     S
Ti16     Ti18    10.0   .     S
Ti16     Ti15    9.997   1_554     S
Ti16     Er32    10.0   1_545     S
Ti17     Ti18    9.997   1_556     S
Ti18     Ti17    9.997   1_554     S
Ti18     Er20    10.0   .     S
Er19     Er20    9.992   .     S
Er19     Ti22    10.0   1_455     S
Ti21     Er13    10.0   1_655     S
Ti21     Ti22    9.997   1_556     S
Ti21     Ti23    10.0   .     S
Ti22     Er19    10.0   1_655     S
Ti22     Ti21    9.997   1_554     S
Ti22     Ti24    10.0   .     S
Ti23     Ti24    9.997   1_556     S
Ti23     Er25    10.0   1_545     S
Ti24     Ti23    9.997   1_554     S
Ti24     Er27    10.0   1_545     S
Er25     Er26    9.992   .     S
Er25     Ti23    10.0   1_565     S
Er26     Ti35    10.0   .     S
Er27     Er28    9.992   .     S
Er27     Ti24    10.0   1_565     S
Er28     Ti36    10.0   .     S
Er29     Er30    9.992   .     S
Er29     Ti33    10.0   1_455     S
Er30     Ti15    10.0   1_565     S
Er31     Er32    9.992   .     S
Er31     Ti34    10.0   1_455     S
Er32     Ti16    10.0   1_565     S
Ti33     Er29    10.0   1_655     S
Ti33     Ti34    9.997   1_556     S
Ti33     Ti35    10.0   .     S
Ti34     Er31    10.0   1_655     S
Ti34     Ti33    9.997   1_554     S
Ti34     Ti36    10.0   .     S
Ti35     Ti36    9.997   1_556     S
Ti36     Ti35    9.997   1_554     S
