data_cega
_audit_creation_date              2020-02-02
_audit_creation_method            'Pymatgen'
_symmetry_space_group_name_H-M    'P1'
_symmetry_Int_Tables_number       1
loop_
_symmetry_equiv_pos_as_xyz
  x,y,z
_cell_length_a                    65.0708
_cell_length_b                    65.0708
_cell_length_c                    52.1447
_cell_angle_alpha                 90.0
_cell_angle_beta                 90.0
_cell_angle_gamma                 120.0
loop_
_atom_site_label
_atom_site_type_symbol
_atom_site_fract_x
_atom_site_fract_y
_atom_site_fract_z
Er1     Er     0.0964   0.75   0.8205
Er2     Er     0.25   0.9036   0.8205
V3     V     0.1165   0.8835   0.7083
Er4     Er     0.0964   0.3464   0.8205
Er5     Er     0.25   0.3464   0.8205
V6     V     0.1165   0.233   0.7083
Er7     Er     0.6536   0.9036   0.8205
Er8     Er     0.6536   0.75   0.8205
V9     V     0.767   0.8835   0.7083
Er10     Er     0.9036   0.6536   0.1795
Er11     Er     0.75   0.6536   0.1795
V12     V     0.8835   0.767   0.2917
Ti13     Ti     0.5542   0.5995   0.9176
Ti14     Ti     0.5995   0.5542   0.0824
Ti15     Ti     0.4005   0.4458   0.9176
Ti16     Ti     0.4458   0.4005   0.0824
Er17     Er     0.75   0.0964   0.1795
Er18     Er     0.9036   0.25   0.1795
V19     V     0.8835   0.1165   0.2917
Ti20     Ti     0.4005   0.9546   0.9176
Ti21     Ti     0.4458   0.0454   0.0824
Ti22     Ti     0.5542   0.9546   0.9176
Ti23     Ti     0.5995   0.0454   0.0824
Er24     Er     0.3464   0.0964   0.1795
Er25     Er     0.3464   0.25   0.1795
V26     V     0.233   0.1165   0.2917
Ti27     Ti     0.0454   0.5995   0.9176
Ti28     Ti     0.9546   0.5542   0.0824
Ti29     Ti     0.0454   0.4458   0.9176
Ti30     Ti     0.9546   0.4005   0.0824
Ce31     Ce     0.1024   0.0512   0.4217
Ce32     Ce     0.9488   0.8976   0.4217
Ce33     Ce     0.9488   0.0512   0.4217
Ce34     Ce     0.8976   0.9488   0.5783
Ce35     Ce     0.0512   0.9488   0.5783
Ce36     Ce     0.0512   0.1024   0.5783
loop_
_geom_bond_atom_site_label_1
_geom_bond_atom_site_label_2
_geom_bond_distance
_geom_bond_site_symmetry_2
_ccdc_geom_bond_type
Er1     Er2    9.995   .     S
Er1     V3    10.001   .     S
Er1     Ti27    10.002   .     S
Er2     V3    10.001   .     S
Er2     Ti20    10.002   .     S
V3     Ce35    10.006   .     S
Er4     Er5    9.995   .     S
Er4     V6    10.001   .     S
Er4     Ti29    10.002   .     S
Er5     V6    10.001   .     S
Er5     Ti15    10.002   .     S
V6     Ce36    10.006   .     S
Er7     Er8    9.995   .     S
Er7     V9    10.001   .     S
Er7     Ti22    10.002   .     S
Er8     V9    10.001   .     S
Er8     Ti13    10.002   .     S
V9     Ce34    10.006   .     S
Er10     Er11    9.995   .     S
Er10     V12    10.001   .     S
Er10     Ti28    10.002   .     S
Er11     V12    10.001   .     S
Er11     Ti14    10.002   .     S
V12     Ce32    10.006   .     S
Ti13     Ti14    9.998   1_556     S
Ti13     Ti15    10.0   .     S
Ti14     Ti13    9.998   1_554     S
Ti14     Ti16    10.0   .     S
Ti15     Ti16    9.998   1_556     S
Ti16     Ti15    9.998   1_554     S
Ti16     Er25    10.002   .     S
Er17     Er18    9.995   .     S
Er17     V19    10.001   .     S
Er17     Ti23    10.002   .     S
Er18     V19    10.001   .     S
Er18     Ti30    10.002   .     S
V19     Ce33    10.006   .     S
Ti20     Ti21    9.998   1_566     S
Ti20     Ti22    10.0   .     S
Ti21     Ti20    9.998   1_544     S
Ti21     Ti23    10.0   .     S
Ti21     Er24    10.002   .     S
Ti22     Ti23    9.998   1_566     S
Ti23     Ti22    9.998   1_544     S
Er24     Er25    9.995   .     S
Er24     V26    10.001   .     S
Er25     V26    10.001   .     S
V26     Ce31    10.006   .     S
Ti27     Ti28    9.998   1_456     S
Ti27     Ti29    10.0   .     S
Ti28     Ti27    9.998   1_654     S
Ti28     Ti30    10.0   .     S
Ti29     Ti30    9.998   1_456     S
Ti30     Ti29    9.998   1_654     S
Ce31     Ce32    9.997   1_445     S
Ce31     Ce33    9.997   1_455     S
Ce31     Ce36    9.999   .     S
Ce31     Ce35    9.999   1_545     S
Ce32     Ce31    9.997   1_665     S
Ce32     Ce33    9.997   1_565     S
Ce32     Ce34    9.999   .     S
Ce32     Ce35    9.999   1_655     S
Ce33     Ce32    9.997   1_545     S
Ce33     Ce31    9.997   1_655     S
Ce33     Ce36    9.999   1_655     S
Ce33     Ce34    9.999   1_545     S
Ce34     Ce36    9.997   1_665     S
Ce34     Ce35    9.997   1_655     S
Ce34     Ce33    9.999   1_565     S
Ce35     Ce34    9.997   1_455     S
Ce35     Ce36    9.997   1_565     S
Ce35     Ce31    9.999   1_565     S
Ce35     Ce32    9.999   1_455     S
Ce36     Ce34    9.997   1_445     S
Ce36     Ce35    9.997   1_545     S
Ce36     Ce33    9.999   1_455     S
