data_ceh
_audit_creation_date              2020-02-02
_audit_creation_method            'Pymatgen'
_symmetry_space_group_name_H-M    'P1'
_symmetry_Int_Tables_number       1
loop_
_symmetry_equiv_pos_as_xyz
  x,y,z
_cell_length_a                    28.8732
_cell_length_b                    28.8732
_cell_length_c                    12.9374
_cell_angle_alpha                 90.0
_cell_angle_beta                 90.0
_cell_angle_gamma                 120.0
loop_
_atom_site_label
_atom_site_type_symbol
_atom_site_fract_x
_atom_site_fract_y
_atom_site_fract_z
V1     V     0.8009   0.1991   0.0
V2     V     0.1991   0.3982   0.0
V3     V     0.3982   0.1991   0.0
V4     V     0.1991   0.8009   0.0
V5     V     0.8009   0.6018   0.0
V6     V     0.6018   0.8009   0.0
Er7     Er     0.0   0.0   0.0
Ti8     Ti     0.0   0.5   0.5
Ti9     Ti     0.5   0.0   0.5
Ti10     Ti     0.5   0.5   0.5
loop_
_geom_bond_atom_site_label_1
_geom_bond_atom_site_label_2
_geom_bond_distance
_geom_bond_site_symmetry_2
_ccdc_geom_bond_type
V1     Ti9    10.021   1_554     S
V1     Ti8    10.021   1_655     S
V1     Er7    9.958   1_655     S
V2     Ti8    10.021   1_554     S
V2     Ti10    10.021   .     S
V2     Er7    9.958   .     S
V3     Ti10    10.021   1_554     S
V3     Ti9    10.021   .     S
V3     Er7    9.958   .     S
V4     Ti9    10.021   1_564     S
V4     Ti8    10.021   .     S
V4     Er7    9.958   1_565     S
V5     Ti8    10.021   1_654     S
V5     Ti10    10.021   .     S
V5     Er7    9.958   1_665     S
V6     Ti10    10.021   1_554     S
V6     Ti9    10.021   1_565     S
V6     Er7    9.958   1_665     S
Er7     V1    9.958   1_455     S
Er7     V4    9.958   1_545     S
Er7     V5    9.958   1_445     S
Er7     V6    9.958   1_445     S
Ti8     V5    10.021   1_456     S
Ti8     V2    10.021   1_556     S
Ti8     V1    10.021   1_455     S
Ti9     V4    10.021   1_546     S
Ti9     V1    10.021   1_556     S
Ti9     V6    10.021   1_545     S
Ti10     V3    10.021   1_556     S
Ti10     V6    10.021   1_556     S
