data_cei
_audit_creation_date              2020-02-02
_audit_creation_method            'Pymatgen'
_symmetry_space_group_name_H-M    'P1'
_symmetry_Int_Tables_number       1
loop_
_symmetry_equiv_pos_as_xyz
  x,y,z
_cell_length_a                    31.0467
_cell_length_b                    31.0467
_cell_length_c                    14.574
_cell_angle_alpha                 90.0
_cell_angle_beta                 90.0
_cell_angle_gamma                 120.0
loop_
_atom_site_label
_atom_site_type_symbol
_atom_site_fract_x
_atom_site_fract_y
_atom_site_fract_z
Ti1     Ti     0.5932   0.4068   0.5
Ti2     Ti     0.5932   0.1864   0.5
Ti3     Ti     0.8136   0.4068   0.5
V4     V     0.8135   0.627   0.0
V5     V     0.8135   0.1865   0.0
V6     V     0.373   0.1865   0.0
Er7     Er     0.0   0.0   0.0
loop_
_geom_bond_atom_site_label_1
_geom_bond_atom_site_label_2
_geom_bond_distance
_geom_bond_site_symmetry_2
_ccdc_geom_bond_type
Ti1     V6    9.993   1_556     S
Ti1     V6    9.993   .     S
Ti1     V4    9.993   .     S
Ti1     V4    9.993   1_556     S
Ti2     V6    9.993   1_556     S
Ti2     V6    9.993   .     S
Ti2     V5    9.993   1_556     S
Ti2     V5    9.993   .     S
Ti3     V5    9.993   1_556     S
Ti3     V5    9.993   .     S
Ti3     V4    9.993   .     S
Ti3     V4    9.993   1_556     S
V4     Er7    10.029   1_665     S
V4     Ti1    9.993   1_554     S
V4     Ti3    9.993   1_554     S
V5     Er7    10.029   1_655     S
V5     Ti3    9.993   1_554     S
V5     Ti2    9.993   1_554     S
V6     Er7    10.029   .     S
V6     Ti2    9.993   1_554     S
V6     Ti1    9.993   1_554     S
Er7     V5    10.029   1_455     S
Er7     V4    10.029   1_445     S
