data_cej
_audit_creation_date              2020-02-02
_audit_creation_method            'Pymatgen'
_symmetry_space_group_name_H-M    'P1'
_symmetry_Int_Tables_number       1
loop_
_symmetry_equiv_pos_as_xyz
  x,y,z
_cell_length_a                    30.4858
_cell_length_b                    30.4858
_cell_length_c                    46.2644
_cell_angle_alpha                 90.0
_cell_angle_beta                 90.0
_cell_angle_gamma                 120.0
loop_
_atom_site_label
_atom_site_type_symbol
_atom_site_fract_x
_atom_site_fract_y
_atom_site_fract_z
V1     V     0.8491   0.6981   0.369
Er2     Er     0.849   0.4245   0.25
V3     V     0.8491   0.1509   0.131
V4     V     0.8491   0.1509   0.369
V5     V     0.8491   0.6981   0.131
Er6     Er     0.5755   0.4245   0.25
V7     V     0.3019   0.1509   0.369
Er8     Er     0.5755   0.151   0.25
V9     V     0.3019   0.1509   0.131
Ti10     Ti     0.0   0.0   0.0
V11     V     0.1509   0.3019   0.869
V12     V     0.1509   0.3019   0.631
V13     V     0.1509   0.8491   0.869
Er14     Er     0.151   0.5755   0.75
V15     V     0.1509   0.8491   0.631
V16     V     0.6981   0.8491   0.869
Er17     Er     0.4245   0.5755   0.75
Er18     Er     0.4245   0.849   0.75
V19     V     0.6981   0.8491   0.631
Ti20     Ti     0.0   0.0   0.5
loop_
_geom_bond_atom_site_label_1
_geom_bond_atom_site_label_2
_geom_bond_distance
_geom_bond_site_symmetry_2
_ccdc_geom_bond_type
V1     Er2    9.993   .     S
V1     Er6    9.993   .     S
V1     Ti20    10.013   1_665     S
Er2     V3    9.993   .     S
Er2     V4    9.993   .     S
Er2     V5    9.993   .     S
V3     Er8    9.993   .     S
V3     Ti10    10.013   1_655     S
V4     Er8    9.993   .     S
V4     Ti20    10.013   1_655     S
V5     Er6    9.993   .     S
V5     Ti10    10.013   1_665     S
Er6     V7    9.993   .     S
Er6     V9    9.993   .     S
V7     Er8    9.993   .     S
V7     Ti20    10.013   .     S
Er8     V9    9.993   .     S
V9     Ti10    10.013   .     S
Ti10     V3    10.013   1_455     S
Ti10     V16    10.013   1_444     S
Ti10     V5    10.013   1_445     S
Ti10     V13    10.013   1_544     S
Ti10     V11    10.013   1_554     S
V11     Ti10    10.013   1_556     S
V11     Er14    9.993   .     S
V11     Er17    9.993   .     S
V12     Er17    9.993   .     S
V12     Er14    9.993   .     S
V12     Ti20    10.013   .     S
V13     Ti10    10.013   1_566     S
V13     Er18    9.993   .     S
V13     Er14    9.993   .     S
Er14     V15    9.993   .     S
V15     Er18    9.993   .     S
V15     Ti20    10.013   1_565     S
V16     Ti10    10.013   1_666     S
V16     Er17    9.993   .     S
V16     Er18    9.993   .     S
Er17     V19    9.993   .     S
Er18     V19    9.993   .     S
V19     Ti20    10.013   1_665     S
Ti20     V4    10.013   1_455     S
Ti20     V19    10.013   1_445     S
Ti20     V1    10.013   1_445     S
Ti20     V15    10.013   1_545     S
