data_ceja
_audit_creation_date              2020-02-02
_audit_creation_method            'Pymatgen'
_symmetry_space_group_name_H-M    'P1'
_symmetry_Int_Tables_number       1
loop_
_symmetry_equiv_pos_as_xyz
  x,y,z
_cell_length_a                    67.656
_cell_length_b                    67.656
_cell_length_c                    102.8803
_cell_angle_alpha                 90.0
_cell_angle_beta                 90.0
_cell_angle_gamma                 120.0
loop_
_atom_site_label
_atom_site_type_symbol
_atom_site_fract_x
_atom_site_fract_y
_atom_site_fract_z
Ti1     Ti     0.5214   0.6265   0.7986
Ti2     Ti     0.5214   0.6265   0.7014
Ti3     Ti     0.3735   0.4786   0.7986
Ti4     Ti     0.3735   0.4786   0.7014
V5     V     0.1034   0.3545   0.6478
V6     V     0.2511   0.3545   0.6478
V7     V     0.1034   0.3545   0.8522
V8     V     0.2511   0.3545   0.8522
Ti9     Ti     0.1051   0.6265   0.7986
Ti10     Ti     0.1051   0.6265   0.7014
Ti11     Ti     0.1051   0.4786   0.7986
Ti12     Ti     0.1051   0.4786   0.7014
V13     V     0.1034   0.7489   0.6478
V14     V     0.2511   0.8966   0.6478
V15     V     0.6455   0.8966   0.8522
V16     V     0.6455   0.7489   0.8522
V17     V     0.1034   0.7489   0.8522
V18     V     0.2511   0.8966   0.8522
V19     V     0.6455   0.8966   0.6478
V20     V     0.6455   0.7489   0.6478
Ti21     Ti     0.3735   0.8949   0.7986
Ti22     Ti     0.3735   0.8949   0.7014
Ti23     Ti     0.5214   0.8949   0.7986
Ti24     Ti     0.5214   0.8949   0.7014
Er25     Er     0.1182   0.8818   0.9028
Er26     Er     0.1182   0.2363   0.9028
Er27     Er     0.7637   0.8818   0.9028
Er28     Er     0.1182   0.8818   0.5972
Er29     Er     0.1182   0.2363   0.5972
Er30     Er     0.7637   0.8818   0.5972
Ce31     Ce     0.0493   0.9507   0.5397
Ce32     Ce     0.0493   0.0985   0.5397
Ce33     Ce     0.9015   0.9507   0.5397
Ce34     Ce     0.9507   0.9015   0.4603
Ce35     Ce     0.9507   0.0493   0.4603
Ce36     Ce     0.0985   0.0493   0.4603
V37     V     0.3545   0.2511   0.1478
V38     V     0.3545   0.1034   0.1478
V39     V     0.8966   0.6455   0.1478
V40     V     0.7489   0.6455   0.1478
V41     V     0.3545   0.2511   0.3522
V42     V     0.3545   0.1034   0.3522
Ti43     Ti     0.8949   0.3735   0.2986
Ti44     Ti     0.8949   0.3735   0.2014
Ti45     Ti     0.8949   0.5214   0.2014
Ti46     Ti     0.8949   0.5214   0.2986
V47     V     0.8966   0.2511   0.1478
V48     V     0.7489   0.1034   0.1478
V49     V     0.8966   0.2511   0.3522
V50     V     0.7489   0.1034   0.3522
Ti51     Ti     0.4786   0.1051   0.2014
Ti52     Ti     0.4786   0.1051   0.2986
Ti53     Ti     0.6265   0.1051   0.2986
Ti54     Ti     0.6265   0.1051   0.2014
V55     V     0.8966   0.6455   0.3522
V56     V     0.7489   0.6455   0.3522
Ti57     Ti     0.6265   0.5214   0.2986
Ti58     Ti     0.6265   0.5214   0.2014
Ti59     Ti     0.4786   0.3735   0.2014
Ti60     Ti     0.4786   0.3735   0.2986
Er61     Er     0.2363   0.1182   0.0972
Er62     Er     0.2363   0.1182   0.4028
Er63     Er     0.8818   0.7637   0.0972
Er64     Er     0.8818   0.7637   0.4028
Er65     Er     0.8818   0.1182   0.0972
Er66     Er     0.8818   0.1182   0.4028
Ce67     Ce     0.0493   0.9507   0.9603
Ce68     Ce     0.0493   0.0985   0.9603
Ce69     Ce     0.9015   0.9507   0.9603
Ce70     Ce     0.9507   0.9015   0.0397
Ce71     Ce     0.9507   0.0493   0.0397
Ce72     Ce     0.0985   0.0493   0.0397
loop_
_geom_bond_atom_site_label_1
_geom_bond_atom_site_label_2
_geom_bond_distance
_geom_bond_site_symmetry_2
_ccdc_geom_bond_type
Ti1     Ti3    10.0   .     S
Ti1     Ti2    9.998   .     S
Ti1     V16    10.001   .     S
Ti2     Ti4    10.0   .     S
Ti2     V20    10.001   .     S
Ti3     Ti4    9.998   .     S
Ti3     V8    10.001   .     S
Ti4     V6    10.001   .     S
V5     Er29    10.002   .     S
V5     V6    9.991   .     S
V5     Ti12    10.001   .     S
V6     Er29    10.002   .     S
V7     Er26    10.002   .     S
V7     V8    9.991   .     S
V7     Ti11    10.001   .     S
V8     Er26    10.002   .     S
Ti9     Ti10    9.998   .     S
Ti9     V17    10.001   .     S
Ti9     Ti11    10.0   .     S
Ti10     Ti12    10.0   .     S
Ti10     V13    10.001   .     S
Ti11     Ti12    9.998   .     S
V13     Er28    10.002   .     S
V13     V14    9.991   .     S
V14     Er28    10.002   .     S
V14     Ti22    10.001   .     S
V15     Er27    10.002   .     S
V15     V16    9.991   .     S
V15     Ti23    10.001   .     S
V16     Er27    10.002   .     S
V17     Er25    10.002   .     S
V17     V18    9.991   .     S
V18     Er25    10.002   .     S
V18     Ti21    10.001   .     S
V19     Er30    10.002   .     S
V19     V20    9.991   .     S
V19     Ti24    10.001   .     S
V20     Er30    10.002   .     S
Ti21     Ti22    9.998   .     S
Ti21     Ti23    10.0   .     S
Ti22     Ti24    10.0   .     S
Ti23     Ti24    9.998   .     S
Er25     Ce67    10.009   .     S
Er26     Ce68    10.009   .     S
Er27     Ce69    10.009   .     S
Er28     Ce31    10.009   .     S
Er29     Ce32    10.009   .     S
Er30     Ce33    10.009   .     S
Ce31     Ce32    9.998   1_565     S
Ce31     Ce33    9.998   1_455     S
Ce31     Ce36    9.999   1_565     S
Ce31     Ce34    9.999   1_455     S
Ce32     Ce31    9.998   1_545     S
Ce32     Ce33    9.998   1_445     S
Ce32     Ce36    9.999   .     S
Ce32     Ce35    9.999   1_455     S
Ce33     Ce31    9.998   1_655     S
Ce33     Ce32    9.998   1_665     S
Ce33     Ce34    9.999   .     S
Ce33     Ce35    9.999   1_565     S
Ce34     Ce35    9.998   1_565     S
Ce34     Ce36    9.998   1_665     S
Ce34     Ce31    9.999   1_655     S
Ce34     Er64    10.009   .     S
Ce35     Er66    10.009   .     S
Ce35     Ce34    9.998   1_545     S
Ce35     Ce36    9.998   1_655     S
Ce35     Ce32    9.999   1_655     S
Ce35     Ce33    9.999   1_545     S
Ce36     Er62    10.009   .     S
Ce36     Ce34    9.998   1_445     S
Ce36     Ce35    9.998   1_455     S
Ce36     Ce31    9.999   1_545     S
V37     Er61    10.002   .     S
V37     V38    9.991   .     S
V37     Ti59    10.001   .     S
V38     Er61    10.002   .     S
V38     Ti51    10.001   .     S
V39     Er63    10.002   .     S
V39     V40    9.991   .     S
V39     Ti45    10.001   .     S
V40     Er63    10.002   .     S
V40     Ti58    10.001   .     S
V41     Er62    10.002   .     S
V41     V42    9.991   .     S
V41     Ti60    10.001   .     S
V42     Er62    10.002   .     S
V42     Ti52    10.001   .     S
Ti43     Ti44    9.998   .     S
Ti43     Ti46    10.0   .     S
Ti43     V49    10.001   .     S
Ti44     Ti45    10.0   .     S
Ti44     V47    10.001   .     S
Ti45     Ti46    9.998   .     S
Ti46     V55    10.001   .     S
V47     Er65    10.002   .     S
V47     V48    9.991   .     S
V48     Er65    10.002   .     S
V48     Ti54    10.001   .     S
V49     Er66    10.002   .     S
V49     V50    9.991   .     S
V50     Er66    10.002   .     S
V50     Ti53    10.001   .     S
Ti51     Ti52    9.998   .     S
Ti51     Ti54    10.0   .     S
Ti52     Ti53    10.0   .     S
Ti53     Ti54    9.998   .     S
V55     Er64    10.002   .     S
V55     V56    9.991   .     S
V56     Er64    10.002   .     S
V56     Ti57    10.001   .     S
Ti57     Ti58    9.998   .     S
Ti57     Ti60    10.0   .     S
Ti58     Ti59    10.0   .     S
Ti59     Ti60    9.998   .     S
Er61     Ce72    10.009   .     S
Er63     Ce70    10.009   .     S
Er65     Ce71    10.009   .     S
Ce67     Ce68    9.998   1_565     S
Ce67     Ce69    9.998   1_455     S
Ce67     Ce72    9.999   1_566     S
Ce67     Ce70    9.999   1_456     S
Ce68     Ce67    9.998   1_545     S
Ce68     Ce69    9.998   1_445     S
Ce68     Ce72    9.999   1_556     S
Ce68     Ce71    9.999   1_456     S
Ce69     Ce67    9.998   1_655     S
Ce69     Ce68    9.998   1_665     S
Ce69     Ce70    9.999   1_556     S
Ce69     Ce71    9.999   1_566     S
Ce70     Ce71    9.998   1_565     S
Ce70     Ce72    9.998   1_665     S
Ce70     Ce67    9.999   1_654     S
Ce70     Ce69    9.999   1_554     S
Ce71     Ce70    9.998   1_545     S
Ce71     Ce72    9.998   1_655     S
Ce71     Ce68    9.999   1_654     S
Ce71     Ce69    9.999   1_544     S
Ce72     Ce70    9.998   1_445     S
Ce72     Ce71    9.998   1_455     S
Ce72     Ce67    9.999   1_544     S
Ce72     Ce68    9.999   1_554     S
