data_cek
_audit_creation_date              2020-02-02
_audit_creation_method            'Pymatgen'
_symmetry_space_group_name_H-M    'P1'
_symmetry_Int_Tables_number       1
loop_
_symmetry_equiv_pos_as_xyz
  x,y,z
_cell_length_a                    28.8667
_cell_length_b                    28.8667
_cell_length_c                    25.8214
_cell_angle_alpha                 90.0
_cell_angle_beta                 90.0
_cell_angle_gamma                 120.0
loop_
_atom_site_label
_atom_site_type_symbol
_atom_site_fract_x
_atom_site_fract_y
_atom_site_fract_z
Er1     Er     0.5   0.5   0.0
Er2     Er     0.5   0.5   0.5
Er3     Er     0.5   0.0   0.5
Er4     Er     0.0   0.5   0.0
V5     V     0.8   0.2   0.75
Ti6     Ti     0.0   0.0   0.75
V7     V     0.8   0.6   0.75
V8     V     0.4   0.2   0.75
Er9     Er     0.0   0.5   0.5
Er10     Er     0.5   0.0   0.0
Ti11     Ti     0.0   0.0   0.25
V12     V     0.2   0.8   0.25
V13     V     0.2   0.4   0.25
V14     V     0.6   0.8   0.25
loop_
_geom_bond_atom_site_label_1
_geom_bond_atom_site_label_2
_geom_bond_distance
_geom_bond_site_symmetry_2
_ccdc_geom_bond_type
Er1     V7    10.0   1_554     S
Er1     V8    10.0   1_554     S
Er1     V14    10.0   .     S
Er1     V13    10.0   .     S
Er2     V7    10.0   .     S
Er2     V8    10.0   .     S
Er2     V13    10.0   .     S
Er2     V14    10.0   .     S
Er3     V5    10.0   .     S
Er3     V8    10.0   .     S
Er3     V14    10.0   1_545     S
Er3     V12    10.0   1_545     S
Er4     V7    10.0   1_454     S
Er4     V5    10.0   1_454     S
Er4     V12    10.0   .     S
Er4     V13    10.0   .     S
V5     Ti6    10.0   1_655     S
V5     Er4    10.0   1_656     S
V5     Er9    10.0   1_655     S
V5     Er10    10.0   1_556     S
Ti6     V5    10.0   1_455     S
Ti6     V7    10.0   1_445     S
Ti6     V8    10.0   .     S
V7     Er1    10.0   1_556     S
V7     Er4    10.0   1_656     S
V7     Ti6    10.0   1_665     S
V7     Er9    10.0   1_655     S
V8     Er1    10.0   1_556     S
V8     Er10    10.0   1_556     S
Er9     V7    10.0   1_455     S
Er9     V5    10.0   1_455     S
Er9     V12    10.0   .     S
Er9     V13    10.0   .     S
Er10     V8    10.0   1_554     S
Er10     V5    10.0   1_554     S
Er10     V14    10.0   1_545     S
Er10     V12    10.0   1_545     S
Ti11     V14    10.0   1_445     S
Ti11     V12    10.0   1_545     S
Ti11     V13    10.0   .     S
V12     Ti11    10.0   1_565     S
V12     Er10    10.0   1_565     S
V12     Er3    10.0   1_565     S
V14     Ti11    10.0   1_665     S
V14     Er3    10.0   1_565     S
V14     Er10    10.0   1_565     S
