data_cel
_audit_creation_date              2020-02-02
_audit_creation_method            'Pymatgen'
_symmetry_space_group_name_H-M    'P1'
_symmetry_Int_Tables_number       1
loop_
_symmetry_equiv_pos_as_xyz
  x,y,z
_cell_length_a                    28.8714
_cell_length_b                    28.8714
_cell_length_c                    12.9065
_cell_angle_alpha                 90.0
_cell_angle_beta                 90.0
_cell_angle_gamma                 120.0
loop_
_atom_site_label
_atom_site_type_symbol
_atom_site_fract_x
_atom_site_fract_y
_atom_site_fract_z
V1     V     0.8   0.2   0.0
V2     V     0.4   0.2   0.0
Er3     Er     0.5   0.5   0.5
Er4     Er     0.0   0.5   0.5
V5     V     0.2   0.4   0.0
V6     V     0.8   0.6   0.0
V7     V     0.2   0.8   0.0
V8     V     0.6   0.8   0.0
Er9     Er     0.5   0.0   0.5
Ti10     Ti     0.0   0.0   0.0
loop_
_geom_bond_atom_site_label_1
_geom_bond_atom_site_label_2
_geom_bond_distance
_geom_bond_site_symmetry_2
_ccdc_geom_bond_type
V1     Er9    10.0   .     S
V1     Er9    10.0   1_554     S
V1     Er4    10.0   1_654     S
V1     Er4    10.0   1_655     S
V1     Ti10    10.0   1_655     S
V2     Ti10    10.0   .     S
V2     Er9    10.0   1_554     S
V2     Er9    10.0   .     S
V2     Er3    10.0   .     S
V2     Er3    10.0   1_554     S
Er3     V8    10.0   .     S
Er3     V8    10.0   1_556     S
Er3     V6    10.0   1_556     S
Er3     V5    10.0   1_556     S
Er3     V2    10.0   1_556     S
Er3     V5    10.0   .     S
Er3     V6    10.0   .     S
Er4     V6    10.0   1_455     S
Er4     V6    10.0   1_456     S
Er4     V5    10.0   .     S
Er4     V7    10.0   1_556     S
Er4     V1    10.0   1_456     S
Er4     V5    10.0   1_556     S
Er4     V1    10.0   1_455     S
Er4     V7    10.0   .     S
V5     Ti10    10.0   .     S
V5     Er3    10.0   1_554     S
V5     Er4    10.0   1_554     S
V6     Er4    10.0   1_655     S
V6     Er4    10.0   1_654     S
V6     Er3    10.0   1_554     S
V6     Ti10    10.0   1_665     S
V7     Er4    10.0   1_554     S
V7     Er9    10.0   1_565     S
V7     Er9    10.0   1_564     S
V7     Ti10    10.0   1_565     S
V8     Er3    10.0   1_554     S
V8     Er9    10.0   1_564     S
V8     Er9    10.0   1_565     S
V8     Ti10    10.0   1_665     S
Er9     V1    10.0   1_556     S
Er9     V2    10.0   1_556     S
Er9     V8    10.0   1_546     S
Er9     V8    10.0   1_545     S
Er9     V7    10.0   1_545     S
Er9     V7    10.0   1_546     S
Ti10     V8    10.0   1_445     S
Ti10     V6    10.0   1_445     S
Ti10     V7    10.0   1_545     S
Ti10     V1    10.0   1_455     S
