data_cen
_audit_creation_date              2020-02-02
_audit_creation_method            'Pymatgen'
_symmetry_space_group_name_H-M    'P1'
_symmetry_Int_Tables_number       1
loop_
_symmetry_equiv_pos_as_xyz
  x,y,z
_cell_length_a                    15.5969
_cell_length_b                    15.5969
_cell_length_c                    18.7063
_cell_angle_alpha                 90.0
_cell_angle_beta                 90.0
_cell_angle_gamma                 120.0
loop_
_atom_site_label
_atom_site_type_symbol
_atom_site_fract_x
_atom_site_fract_y
_atom_site_fract_z
Er1     Er     0.3333   0.6667   0.7683
Er2     Er     0.6667   0.3333   0.2317
Er3     Er     0.3333   0.6667   0.2317
Er4     Er     0.6667   0.3333   0.7683
V5     V     0.0   0.0   0.0
loop_
_geom_bond_atom_site_label_1
_geom_bond_atom_site_label_2
_geom_bond_distance
_geom_bond_site_symmetry_2
_ccdc_geom_bond_type
Er1     Er3    10.037   .     S
Er1     V5    9.994   1_666     S
Er1     V5    9.994   1_566     S
Er1     V5    9.994   1_556     S
Er2     Er4    10.037   .     S
Er2     V5    9.994   1_665     S
Er2     V5    9.994   .     S
Er2     V5    9.994   1_655     S
Er3     V5    9.994   1_665     S
Er3     V5    9.994   1_565     S
Er3     V5    9.994   .     S
Er4     V5    9.994   1_666     S
Er4     V5    9.994   1_556     S
Er4     V5    9.994   1_656     S
V5     Er2    9.994   1_445     S
V5     Er4    9.994   1_444     S
V5     Er3    9.994   1_445     S
V5     Er1    9.994   1_444     S
V5     Er3    9.994   1_545     S
V5     Er1    9.994   1_544     S
V5     Er4    9.994   1_554     S
V5     Er1    9.994   1_554     S
V5     Er2    9.994   1_455     S
V5     Er4    9.994   1_454     S
