data_ceo
_audit_creation_date              2020-02-02
_audit_creation_method            'Pymatgen'
_symmetry_space_group_name_H-M    'P1'
_symmetry_Int_Tables_number       1
loop_
_symmetry_equiv_pos_as_xyz
  x,y,z
_cell_length_a                    25.0001
_cell_length_b                    25.0001
_cell_length_c                    25.8197
_cell_angle_alpha                 90.0
_cell_angle_beta                 90.0
_cell_angle_gamma                 120.0
loop_
_atom_site_label
_atom_site_type_symbol
_atom_site_fract_x
_atom_site_fract_y
_atom_site_fract_z
V1     V     0.0   0.0   0.75
Ti2     Ti     0.6667   0.3333   0.5
Ti3     Ti     0.3333   0.6667   0.5
Ti4     Ti     0.6667   0.3333   0.0
Ti5     Ti     0.3333   0.6667   0.0
Er6     Er     0.6   0.0   0.75
Er7     Er     0.0   0.6   0.75
Er8     Er     0.4   0.0   0.25
Er9     Er     0.4   0.4   0.75
Er10     Er     0.6   0.6   0.25
Er11     Er     0.0   0.4   0.25
V12     V     0.0   0.0   0.25
loop_
_geom_bond_atom_site_label_1
_geom_bond_atom_site_label_2
_geom_bond_distance
_geom_bond_site_symmetry_2
_ccdc_geom_bond_type
V1     Er6    10.0   1_455     S
V1     Er7    10.0   1_545     S
V1     Er9    10.0   .     S
Ti2     Er10    10.0   .     S
Ti2     Er7    10.0   1_655     S
Ti2     Er9    10.0   .     S
Ti2     Er8    10.0   .     S
Ti2     Er11    10.0   1_655     S
Ti2     Er6    10.0   .     S
Ti3     Er10    10.0   .     S
Ti3     Er7    10.0   .     S
Ti3     Er8    10.0   1_565     S
Ti3     Er6    10.0   1_565     S
Ti3     Er9    10.0   .     S
Ti3     Er11    10.0   .     S
Ti4     Er11    10.0   1_655     S
Ti4     Er10    10.0   .     S
Ti4     Er7    10.0   1_654     S
Ti4     Er6    10.0   1_554     S
Ti4     Er9    10.0   1_554     S
Ti4     Er8    10.0   .     S
Ti5     Er10    10.0   .     S
Ti5     Er8    10.0   1_565     S
Ti5     Er7    10.0   1_554     S
Ti5     Er6    10.0   1_564     S
Ti5     Er11    10.0   .     S
Ti5     Er9    10.0   1_554     S
Er6     V1    10.0   1_655     S
Er6     Ti3    10.0   1_545     S
Er6     Ti4    10.0   1_556     S
Er6     Ti5    10.0   1_546     S
Er7     V1    10.0   1_565     S
Er7     Ti2    10.0   1_455     S
Er7     Ti4    10.0   1_456     S
Er7     Ti5    10.0   1_556     S
Er8     Ti3    10.0   1_545     S
Er8     Ti5    10.0   1_545     S
Er8     V12    10.0   .     S
Er9     Ti4    10.0   1_556     S
Er9     Ti5    10.0   1_556     S
Er10     V12    10.0   1_665     S
Er11     Ti2    10.0   1_455     S
Er11     Ti4    10.0   1_455     S
Er11     V12    10.0   .     S
V12     Er10    10.0   1_445     S
