data_ceoa
_audit_creation_date              2020-02-02
_audit_creation_method            'Pymatgen'
_symmetry_space_group_name_H-M    'P1'
_symmetry_Int_Tables_number       1
loop_
_symmetry_equiv_pos_as_xyz
  x,y,z
_cell_length_a                    57.9928
_cell_length_b                    57.9928
_cell_length_c                    62.9074
_cell_angle_alpha                 90.0
_cell_angle_beta                 90.0
_cell_angle_gamma                 120.0
loop_
_atom_site_label
_atom_site_type_symbol
_atom_site_fract_x
_atom_site_fract_y
_atom_site_fract_z
V1     V     0.0   0.9004   0.75
V2     V     0.0996   0.0996   0.75
V3     V     0.9004   0.0   0.75
Ce4     Ce     0.6554   0.5559   0.3294
Ce5     Ce     0.6554   0.5559   0.1706
Ce6     Ce     0.5559   0.6554   0.3294
Ce7     Ce     0.5559   0.6554   0.1706
Ti8     Ti     0.7276   0.7276   0.25
Ce9     Ce     0.4441   0.0995   0.1706
Ce10     Ce     0.4441   0.0995   0.3294
Ce11     Ce     0.3446   0.9005   0.1706
Ce12     Ce     0.3446   0.9005   0.3294
Ti13     Ti     0.2724   0.0   0.25
Er14     Er     0.4328   0.7662   0.5649
Er15     Er     0.2338   0.6666   0.5649
Er16     Er     0.3334   0.5672   0.5649
Er17     Er     0.3334   0.7662   0.4351
Er18     Er     0.4328   0.6666   0.4351
Er19     Er     0.2338   0.5672   0.4351
Ce20     Ce     0.3446   0.4441   0.8294
Ce21     Ce     0.3446   0.4441   0.6706
Ce22     Ce     0.4441   0.3446   0.8294
Ce23     Ce     0.4441   0.3446   0.6706
Ti24     Ti     0.2724   0.2724   0.75
Ce25     Ce     0.9005   0.5559   0.6706
Ce26     Ce     0.9005   0.5559   0.8294
Ce27     Ce     0.0995   0.6554   0.8294
Ce28     Ce     0.0995   0.6554   0.6706
Ti29     Ti     0.0   0.7276   0.75
Er30     Er     0.3334   0.7662   0.0649
Er31     Er     0.4328   0.6666   0.0649
Er32     Er     0.2338   0.5672   0.0649
Er33     Er     0.4328   0.7662   0.9351
Er34     Er     0.2338   0.6666   0.9351
Er35     Er     0.3334   0.5672   0.9351
Ce36     Ce     0.5559   0.9005   0.6706
Ce37     Ce     0.5559   0.9005   0.8294
Ce38     Ce     0.6554   0.0995   0.8294
Ce39     Ce     0.6554   0.0995   0.6706
Ti40     Ti     0.7276   0.0   0.75
Er41     Er     0.6666   0.2338   0.9351
Er42     Er     0.5672   0.3334   0.9351
Er43     Er     0.7662   0.4328   0.9351
Er44     Er     0.7662   0.3334   0.0649
Er45     Er     0.6666   0.4328   0.0649
Er46     Er     0.5672   0.2338   0.0649
Ce47     Ce     0.0995   0.4441   0.1706
Ce48     Ce     0.0995   0.4441   0.3294
Ce49     Ce     0.9005   0.3446   0.1706
Ce50     Ce     0.9005   0.3446   0.3294
Ti51     Ti     0.0   0.2724   0.25
Er52     Er     0.6666   0.2338   0.5649
Er53     Er     0.5672   0.3334   0.5649
Er54     Er     0.7662   0.4328   0.5649
Er55     Er     0.7662   0.3334   0.4351
Er56     Er     0.6666   0.4328   0.4351
Er57     Er     0.5672   0.2338   0.4351
V58     V     0.0996   0.0   0.25
V59     V     0.0   0.0996   0.25
V60     V     0.9004   0.9004   0.25
loop_
_geom_bond_atom_site_label_1
_geom_bond_atom_site_label_2
_geom_bond_distance
_geom_bond_site_symmetry_2
_ccdc_geom_bond_type
V1     V2    10.006   1_565     S
V1     V3    10.006   1_465     S
V1     Ti29    10.021   .     S
V2     V1    10.006   1_545     S
V2     V3    10.006   1_455     S
V2     Ti24    10.021   .     S
V3     V2    10.006   1_655     S
V3     V1    10.006   1_645     S
V3     Ti40    10.021   .     S
Ce4     Ti8    9.997   .     S
Ce4     Ce5    9.996   .     S
Ce4     Ce6    9.996   .     S
Ce4     Er56    10.011   .     S
Ce5     Ti8    9.997   .     S
Ce5     Ce7    9.996   .     S
Ce5     Er45    10.011   .     S
Ce6     Ti8    9.997   .     S
Ce6     Ce7    9.996   .     S
Ce6     Er18    10.011   .     S
Ce7     Ti8    9.997   .     S
Ce7     Er31    10.011   .     S
Ti8     V60    10.021   .     S
Ce9     Ti13    9.997   .     S
Ce9     Ce10    9.996   .     S
Ce9     Ce11    9.996   1_545     S
Ce9     Er46    10.011   .     S
Ce10     Ti13    9.997   .     S
Ce10     Ce12    9.996   1_545     S
Ce10     Er57    10.011   .     S
Ce11     Ti13    9.997   1_565     S
Ce11     Ce12    9.996   .     S
Ce11     Ce9    9.996   1_565     S
Ce11     Er30    10.011   .     S
Ce12     Ti13    9.997   1_565     S
Ce12     Ce10    9.996   1_565     S
Ce12     Er17    10.011   .     S
Ti13     Ce11    9.997   1_545     S
Ti13     Ce12    9.997   1_545     S
Ti13     V58    10.021   .     S
Er14     Er16    9.993   .     S
Er14     Er15    9.993   .     S
Er14     Er18    9.998   .     S
Er14     Er17    9.994   .     S
Er14     Ce36    10.011   .     S
Er15     Er16    9.993   .     S
Er15     Er19    9.994   .     S
Er15     Er17    9.998   .     S
Er15     Ce28    10.011   .     S
Er16     Er18    9.994   .     S
Er16     Er19    9.998   .     S
Er16     Ce21    10.011   .     S
Er17     Er19    9.993   .     S
Er17     Er18    9.993   .     S
Er18     Er19    9.993   .     S
Er19     Ce48    10.011   .     S
Ce20     Ti24    9.997   .     S
Ce20     Ce21    9.996   .     S
Ce20     Ce22    9.996   .     S
Ce20     Er35    10.011   .     S
Ce21     Ti24    9.997   .     S
Ce21     Ce23    9.996   .     S
Ce22     Ti24    9.997   .     S
Ce22     Ce23    9.996   .     S
Ce22     Er42    10.011   .     S
Ce23     Ti24    9.997   .     S
Ce23     Er53    10.011   .     S
Ce25     Ti29    9.997   1_655     S
Ce25     Ce26    9.996   .     S
Ce25     Ce28    9.996   1_655     S
Ce25     Er54    10.011   .     S
Ce26     Ti29    9.997   1_655     S
Ce26     Ce27    9.996   1_655     S
Ce26     Er43    10.011   .     S
Ce27     Ti29    9.997   .     S
Ce27     Ce28    9.996   .     S
Ce27     Ce26    9.996   1_455     S
Ce27     Er34    10.011   .     S
Ce28     Ti29    9.997   .     S
Ce28     Ce25    9.996   1_455     S
Ti29     Ce26    9.997   1_455     S
Ti29     Ce25    9.997   1_455     S
Er30     Er32    9.993   .     S
Er30     Er31    9.993   .     S
Er30     Er34    9.998   1_554     S
Er30     Er33    9.994   1_554     S
Er31     Er32    9.993   .     S
Er31     Er35    9.994   1_554     S
Er31     Er33    9.998   1_554     S
Er32     Er34    9.994   1_554     S
Er32     Er35    9.998   1_554     S
Er32     Ce47    10.011   .     S
Er33     Er35    9.993   .     S
Er33     Er34    9.993   .     S
Er33     Er30    9.994   1_556     S
Er33     Er31    9.998   1_556     S
Er33     Ce37    10.011   .     S
Er34     Er35    9.993   .     S
Er34     Er32    9.994   1_556     S
Er34     Er30    9.998   1_556     S
Er35     Er31    9.994   1_556     S
Er35     Er32    9.998   1_556     S
Ce36     Ti40    9.997   1_565     S
Ce36     Ce37    9.996   .     S
Ce36     Ce39    9.996   1_565     S
Ce37     Ti40    9.997   1_565     S
Ce37     Ce38    9.996   1_565     S
Ce38     Ti40    9.997   .     S
Ce38     Ce39    9.996   .     S
Ce38     Ce37    9.996   1_545     S
Ce38     Er41    10.011   .     S
Ce39     Ti40    9.997   .     S
Ce39     Ce36    9.996   1_545     S
Ce39     Er52    10.011   .     S
Ti40     Ce37    9.997   1_545     S
Ti40     Ce36    9.997   1_545     S
Er41     Er42    9.993   .     S
Er41     Er43    9.993   .     S
Er41     Er44    9.998   1_556     S
Er41     Er46    9.994   1_556     S
Er42     Er43    9.993   .     S
Er42     Er45    9.994   1_556     S
Er42     Er46    9.998   1_556     S
Er43     Er44    9.994   1_556     S
Er43     Er45    9.998   1_556     S
Er44     Er46    9.993   .     S
Er44     Er45    9.993   .     S
Er44     Er43    9.994   1_554     S
Er44     Er41    9.998   1_554     S
Er44     Ce49    10.011   .     S
Er45     Er46    9.993   .     S
Er45     Er42    9.994   1_554     S
Er45     Er43    9.998   1_554     S
Er46     Er42    9.998   1_554     S
Er46     Er41    9.994   1_554     S
Ce47     Ti51    9.997   .     S
Ce47     Ce48    9.996   .     S
Ce47     Ce49    9.996   1_455     S
Ce48     Ti51    9.997   .     S
Ce48     Ce50    9.996   1_455     S
Ce49     Ti51    9.997   1_655     S
Ce49     Ce50    9.996   .     S
Ce49     Ce47    9.996   1_655     S
Ce50     Ti51    9.997   1_655     S
Ce50     Ce48    9.996   1_655     S
Ce50     Er55    10.011   .     S
Ti51     Ce49    9.997   1_455     S
Ti51     Ce50    9.997   1_455     S
Ti51     V59    10.021   .     S
Er52     Er53    9.993   .     S
Er52     Er54    9.993   .     S
Er52     Er55    9.998   .     S
Er52     Er57    9.994   .     S
Er53     Er54    9.993   .     S
Er53     Er56    9.994   .     S
Er53     Er57    9.998   .     S
Er54     Er55    9.994   .     S
Er54     Er56    9.998   .     S
Er55     Er56    9.993   .     S
Er55     Er57    9.993   .     S
Er56     Er57    9.993   .     S
V58     V60    10.006   1_445     S
V58     V59    10.006   .     S
V59     V60    10.006   1_445     S
V60     V59    10.006   1_665     S
V60     V58    10.006   1_665     S
