data_cera
_audit_creation_date              2020-02-02
_audit_creation_method            'Pymatgen'
_symmetry_space_group_name_H-M    'P1'
_symmetry_Int_Tables_number       1
loop_
_symmetry_equiv_pos_as_xyz
  x,y,z
_cell_length_a                    56.8301
_cell_length_b                    56.8301
_cell_length_c                    106.1141
_cell_angle_alpha                 90.0
_cell_angle_beta                 90.0
_cell_angle_gamma                 120.0
loop_
_atom_site_label
_atom_site_type_symbol
_atom_site_fract_x
_atom_site_fract_y
_atom_site_fract_z
V1     V     0.2978   0.3993   0.4133
V2     V     0.3993   0.2978   0.4133
Er3     Er     0.2328   0.2328   0.3601
V4     V     0.1015   0.7022   0.4133
V5     V     0.8985   0.6007   0.4133
Er6     Er     0.0   0.7672   0.3601
V7     V     0.7022   0.1015   0.4133
V8     V     0.6007   0.8985   0.4133
Er9     Er     0.7672   0.0   0.3601
Ti10     Ti     0.4349   0.6667   0.5384
Ti11     Ti     0.4349   0.7682   0.4616
Ti12     Ti     0.2318   0.6667   0.4616
Ti13     Ti     0.3333   0.7682   0.5384
Ti14     Ti     0.3333   0.5651   0.4616
Ti15     Ti     0.2318   0.5651   0.5384
V16     V     0.3993   0.1015   0.5867
V17     V     0.2978   0.8985   0.5867
Er18     Er     0.2328   0.0   0.6399
V19     V     0.8985   0.2978   0.5867
V20     V     0.1015   0.3993   0.5867
Er21     Er     0.0   0.2328   0.6399
V22     V     0.6007   0.7022   0.5867
V23     V     0.7022   0.6007   0.5867
Er24     Er     0.7672   0.7672   0.6399
Ti25     Ti     0.6667   0.2318   0.4616
Ti26     Ti     0.7682   0.3333   0.5384
Ti27     Ti     0.6667   0.4349   0.5384
Ti28     Ti     0.7682   0.4349   0.4616
Ti29     Ti     0.5651   0.3333   0.4616
Ti30     Ti     0.5651   0.2318   0.5384
Ce31     Ce     0.8984   0.8984   0.7028
Ce32     Ce     0.0   0.1016   0.7028
Ce33     Ce     0.1016   0.0   0.7028
Ce34     Ce     0.8984   0.8984   0.7972
Ce35     Ce     0.0   0.1016   0.7972
Ce36     Ce     0.1016   0.0   0.7972
Ce37     Ce     0.0   0.8984   0.2972
Ce38     Ce     0.8984   0.0   0.2972
Ce39     Ce     0.1016   0.1016   0.2972
Ce40     Ce     0.0   0.8984   0.2028
Ce41     Ce     0.8984   0.0   0.2028
Ce42     Ce     0.1016   0.1016   0.2028
V43     V     0.2978   0.3993   0.0867
V44     V     0.3993   0.2978   0.0867
Er45     Er     0.2328   0.2328   0.1399
V46     V     0.1015   0.7022   0.0867
V47     V     0.8985   0.6007   0.0867
Er48     Er     0.0   0.7672   0.1399
V49     V     0.8985   0.2978   0.9133
V50     V     0.1015   0.3993   0.9133
Er51     Er     0.0   0.2328   0.8601
V52     V     0.6007   0.7022   0.9133
V53     V     0.7022   0.6007   0.9133
Er54     Er     0.7672   0.7672   0.8601
Ti55     Ti     0.7682   0.3333   0.9616
Ti56     Ti     0.6667   0.2318   0.0384
Ti57     Ti     0.6667   0.4349   0.9616
Ti58     Ti     0.7682   0.4349   0.0384
Ti59     Ti     0.5651   0.2318   0.9616
Ti60     Ti     0.5651   0.3333   0.0384
V61     V     0.7022   0.1015   0.0867
V62     V     0.6007   0.8985   0.0867
Er63     Er     0.7672   0.0   0.1399
V64     V     0.3993   0.1015   0.9133
V65     V     0.2978   0.8985   0.9133
Er66     Er     0.2328   0.0   0.8601
Ti67     Ti     0.3333   0.7682   0.9616
Ti68     Ti     0.2318   0.6667   0.0384
Ti69     Ti     0.4349   0.6667   0.9616
Ti70     Ti     0.4349   0.7682   0.0384
Ti71     Ti     0.2318   0.5651   0.9616
Ti72     Ti     0.3333   0.5651   0.0384
loop_
_geom_bond_atom_site_label_1
_geom_bond_atom_site_label_2
_geom_bond_distance
_geom_bond_site_symmetry_2
_ccdc_geom_bond_type
V1     V2    9.992   .     S
V1     Er3    10.003   .     S
V1     Ti14    10.004   .     S
V2     Er3    10.003   .     S
V2     Ti29    10.004   .     S
Er3     Ce39    10.012   .     S
V4     V5    9.992   1_455     S
V4     Er6    10.003   .     S
V4     Ti12    10.004   .     S
V5     V4    9.992   1_655     S
V5     Er6    10.003   1_655     S
V5     Ti28    10.004   .     S
Er6     V5    10.003   1_455     S
Er6     Ce37    10.012   .     S
V7     V8    9.992   1_545     S
V7     Er9    10.003   .     S
V7     Ti25    10.004   .     S
V8     V7    9.992   1_565     S
V8     Er9    10.003   1_565     S
V8     Ti11    10.004   .     S
Er9     V8    10.003   1_545     S
Er9     Ce38    10.012   .     S
Ti10     Ti13    9.995   .     S
Ti10     Ti11    9.991   .     S
Ti10     Ti14    9.998   .     S
Ti10     Ti15    9.995   .     S
Ti10     V22    10.004   .     S
Ti11     Ti13    9.998   .     S
Ti11     Ti12    9.995   .     S
Ti11     Ti14    9.995   .     S
Ti12     Ti13    9.991   .     S
Ti12     Ti15    9.998   .     S
Ti12     Ti14    9.995   .     S
Ti13     Ti15    9.995   .     S
Ti13     V17    10.004   .     S
Ti14     Ti15    9.991   .     S
Ti15     V20    10.004   .     S
V16     V17    9.992   1_545     S
V16     Er18    10.003   .     S
V16     Ti30    10.004   .     S
V17     V16    9.992   1_565     S
V17     Er18    10.003   1_565     S
Er18     V17    10.003   1_545     S
Er18     Ce33    10.012   .     S
V19     V20    9.992   1_655     S
V19     Er21    10.003   1_655     S
V19     Ti26    10.004   .     S
V20     V19    9.992   1_455     S
V20     Er21    10.003   .     S
Er21     V19    10.003   1_455     S
Er21     Ce32    10.012   .     S
V22     V23    9.992   .     S
V22     Er24    10.003   .     S
V23     Er24    10.003   .     S
V23     Ti27    10.004   .     S
Er24     Ce31    10.012   .     S
Ti25     Ti30    9.998   .     S
Ti25     Ti29    9.995   .     S
Ti25     Ti26    9.991   .     S
Ti25     Ti28    9.995   .     S
Ti26     Ti30    9.995   .     S
Ti26     Ti28    9.998   .     S
Ti26     Ti27    9.995   .     S
Ti27     Ti28    9.991   .     S
Ti27     Ti29    9.998   .     S
Ti27     Ti30    9.995   .     S
Ti28     Ti29    9.995   .     S
Ti29     Ti30    9.991   .     S
Ce31     Ce32    10.0   1_665     S
Ce31     Ce33    10.0   1_665     S
Ce31     Ce34    10.007   .     S
Ce32     Ce33    10.0   .     S
Ce32     Ce31    10.0   1_445     S
Ce32     Ce35    10.007   .     S
Ce33     Ce31    10.0   1_445     S
Ce33     Ce36    10.007   .     S
Ce34     Ce35    10.0   1_665     S
Ce34     Ce36    10.0   1_665     S
Ce34     Er54    10.012   .     S
Ce35     Ce36    10.0   .     S
Ce35     Ce34    10.0   1_445     S
Ce35     Er51    10.012   .     S
Ce36     Ce34    10.0   1_445     S
Ce36     Er66    10.012   .     S
Ce37     Ce38    10.0   1_465     S
Ce37     Ce39    10.0   1_565     S
Ce37     Ce40    10.007   .     S
Ce38     Ce37    10.0   1_645     S
Ce38     Ce39    10.0   1_655     S
Ce38     Ce41    10.007   .     S
Ce39     Ce37    10.0   1_545     S
Ce39     Ce38    10.0   1_455     S
Ce39     Ce42    10.007   .     S
Ce40     Ce41    10.0   1_465     S
Ce40     Ce42    10.0   1_565     S
Ce40     Er48    10.012   .     S
Ce41     Ce40    10.0   1_645     S
Ce41     Ce42    10.0   1_655     S
Ce41     Er63    10.012   .     S
Ce42     Ce40    10.0   1_545     S
Ce42     Ce41    10.0   1_455     S
Ce42     Er45    10.012   .     S
V43     V44    9.992   .     S
V43     Er45    10.003   .     S
V43     Ti72    10.004   .     S
V44     Er45    10.003   .     S
V44     Ti60    10.004   .     S
V46     V47    9.992   1_455     S
V46     Er48    10.003   .     S
V46     Ti68    10.004   .     S
V47     V46    9.992   1_655     S
V47     Er48    10.003   1_655     S
V47     Ti58    10.004   .     S
Er48     V47    10.003   1_455     S
V49     V50    9.992   1_655     S
V49     Er51    10.003   1_655     S
V49     Ti55    10.004   .     S
V50     V49    9.992   1_455     S
V50     Er51    10.003   .     S
V50     Ti71    10.004   .     S
Er51     V49    10.003   1_455     S
V52     V53    9.992   .     S
V52     Er54    10.003   .     S
V52     Ti69    10.004   .     S
V53     Er54    10.003   .     S
V53     Ti57    10.004   .     S
Ti55     Ti59    9.995   .     S
Ti55     Ti56    9.991   1_556     S
Ti55     Ti58    9.998   1_556     S
Ti55     Ti57    9.995   .     S
Ti56     Ti59    9.998   1_554     S
Ti56     Ti60    9.995   .     S
Ti56     Ti55    9.991   1_554     S
Ti56     Ti58    9.995   .     S
Ti56     V61    10.004   .     S
Ti57     Ti58    9.991   1_556     S
Ti57     Ti60    9.998   1_556     S
Ti57     Ti59    9.995   .     S
Ti58     Ti57    9.991   1_554     S
Ti58     Ti55    9.998   1_554     S
Ti58     Ti60    9.995   .     S
Ti59     Ti56    9.998   1_556     S
Ti59     Ti60    9.991   1_556     S
Ti59     V64    10.004   .     S
Ti60     Ti59    9.991   1_554     S
Ti60     Ti57    9.998   1_554     S
V61     V62    9.992   1_545     S
V61     Er63    10.003   .     S
V62     V61    9.992   1_565     S
V62     Er63    10.003   1_565     S
V62     Ti70    10.004   .     S
Er63     V62    10.003   1_545     S
V64     V65    9.992   1_545     S
V64     Er66    10.003   .     S
V65     V64    9.992   1_565     S
V65     Er66    10.003   1_565     S
V65     Ti67    10.004   .     S
Er66     V65    10.003   1_545     S
Ti67     Ti70    9.998   1_556     S
Ti67     Ti69    9.995   .     S
Ti67     Ti68    9.991   1_556     S
Ti67     Ti71    9.995   .     S
Ti68     Ti70    9.995   .     S
Ti68     Ti67    9.991   1_554     S
Ti68     Ti71    9.998   1_554     S
Ti68     Ti72    9.995   .     S
Ti69     Ti70    9.991   1_556     S
Ti69     Ti72    9.998   1_556     S
Ti69     Ti71    9.995   .     S
Ti70     Ti67    9.998   1_554     S
Ti70     Ti69    9.991   1_554     S
Ti70     Ti72    9.995   .     S
Ti71     Ti68    9.998   1_556     S
Ti71     Ti72    9.991   1_556     S
Ti72     Ti71    9.991   1_554     S
Ti72     Ti69    9.998   1_554     S
