data_ces
_audit_creation_date              2020-02-02
_audit_creation_method            'Pymatgen'
_symmetry_space_group_name_H-M    'P1'
_symmetry_Int_Tables_number       1
loop_
_symmetry_equiv_pos_as_xyz
  x,y,z
_cell_length_a                    25.8886
_cell_length_b                    25.8886
_cell_length_c                    23.4185
_cell_angle_alpha                 90.0
_cell_angle_beta                 90.0
_cell_angle_gamma                 120.0
loop_
_atom_site_label
_atom_site_type_symbol
_atom_site_fract_x
_atom_site_fract_y
_atom_site_fract_z
Er1     Er     0.6667   0.3333   0.5
Ti2     Ti     0.1616   0.1616   0.0
Ti3     Ti     0.8384   0.0   0.0
Ti4     Ti     0.0   0.8384   0.0
V5     V     0.0   0.325   0.2924
V6     V     0.675   0.675   0.2924
V7     V     0.0   0.325   0.7076
V8     V     0.675   0.675   0.7076
V9     V     0.325   0.0   0.7076
V10     V     0.325   0.0   0.2924
Er11     Er     0.3333   0.6667   0.5
loop_
_geom_bond_atom_site_label_1
_geom_bond_atom_site_label_2
_geom_bond_distance
_geom_bond_site_symmetry_2
_ccdc_geom_bond_type
Er1     V10    10.0   .     S
Er1     V9    10.0   .     S
Er1     V5    10.0   1_655     S
Er1     V7    10.0   1_655     S
Er1     V8    10.0   .     S
Er1     V6    10.0   .     S
Ti2     V10    10.0   .     S
Ti2     V9    10.0   1_554     S
Ti2     V7    10.0   1_554     S
Ti2     V5    10.0   .     S
Ti3     V6    10.0   1_545     S
Ti3     V8    10.0   1_544     S
Ti3     V7    10.0   1_654     S
Ti3     V5    10.0   1_655     S
Ti4     V6    10.0   1_455     S
Ti4     V10    10.0   1_565     S
Ti4     V9    10.0   1_564     S
Ti4     V8    10.0   1_454     S
V5     Er1    10.0   1_455     S
V5     Ti3    10.0   1_455     S
V5     Er11    10.0   .     S
V6     Ti3    10.0   1_565     S
V6     Ti4    10.0   1_655     S
V6     Er11    10.0   .     S
V7     Er1    10.0   1_455     S
V7     Ti2    10.0   1_556     S
V7     Ti3    10.0   1_456     S
V7     Er11    10.0   .     S
V8     Ti3    10.0   1_566     S
V8     Ti4    10.0   1_656     S
V8     Er11    10.0   .     S
V9     Ti4    10.0   1_546     S
V9     Ti2    10.0   1_556     S
V9     Er11    10.0   1_545     S
V10     Ti4    10.0   1_545     S
V10     Er11    10.0   1_545     S
Er11     V9    10.0   1_565     S
Er11     V10    10.0   1_565     S
