data_cet
_audit_creation_date              2020-02-02
_audit_creation_method            'Pymatgen'
_symmetry_space_group_name_H-M    'P1'
_symmetry_Int_Tables_number       1
loop_
_symmetry_equiv_pos_as_xyz
  x,y,z
_cell_length_a                    24.6699
_cell_length_b                    24.6699
_cell_length_c                    46.9307
_cell_angle_alpha                 90.0
_cell_angle_beta                 90.0
_cell_angle_gamma                 120.0
loop_
_atom_site_label
_atom_site_type_symbol
_atom_site_fract_x
_atom_site_fract_y
_atom_site_fract_z
V1     V     0.2942   0.2942   0.147
Ti2     Ti     0.6667   0.3333   0.25
Ti3     Ti     0.3333   0.6667   0.25
V4     V     0.0   0.7058   0.147
V5     V     0.7058   0.0   0.147
V6     V     0.0   0.7058   0.353
V7     V     0.7058   0.0   0.353
V8     V     0.2942   0.2942   0.353
Er9     Er     0.0   0.0   0.5
Er10     Er     0.0   0.0   0.0
V11     V     0.0   0.2942   0.647
V12     V     0.0   0.2942   0.853
Ti13     Ti     0.6667   0.3333   0.75
Ti14     Ti     0.3333   0.6667   0.75
V15     V     0.2942   0.0   0.647
V16     V     0.7058   0.7058   0.647
V17     V     0.7058   0.7058   0.853
V18     V     0.2942   0.0   0.853
loop_
_geom_bond_atom_site_label_1
_geom_bond_atom_site_label_2
_geom_bond_distance
_geom_bond_site_symmetry_2
_ccdc_geom_bond_type
V1     Ti3    9.994   .     S
V1     Ti2    9.994   .     S
V1     Er10    10.012   .     S
Ti2     V5    9.994   .     S
Ti2     V7    9.994   .     S
Ti2     V8    9.994   .     S
Ti2     V4    9.994   1_655     S
Ti2     V6    9.994   1_655     S
Ti3     V8    9.994   .     S
Ti3     V7    9.994   1_565     S
Ti3     V5    9.994   1_565     S
Ti3     V6    9.994   .     S
Ti3     V4    9.994   .     S
V4     Ti2    9.994   1_455     S
V4     Er10    10.012   1_565     S
V5     Ti3    9.994   1_545     S
V5     Er10    10.012   1_655     S
V6     Ti2    9.994   1_455     S
V6     Er9    10.012   1_565     S
V7     Ti3    9.994   1_545     S
V7     Er9    10.012   1_655     S
V8     Er9    10.012   .     S
Er9     V7    10.012   1_455     S
Er9     V6    10.012   1_545     S
Er9     V15    10.012   .     S
Er9     V11    10.012   .     S
Er9     V16    10.012   1_445     S
Er10     V5    10.012   1_455     S
Er10     V12    10.012   1_554     S
Er10     V18    10.012   1_554     S
Er10     V17    10.012   1_444     S
Er10     V4    10.012   1_545     S
V11     Ti14    9.994   .     S
V11     Ti13    9.994   1_455     S
V12     Ti14    9.994   .     S
V12     Ti13    9.994   1_455     S
V12     Er10    10.012   1_556     S
Ti13     V12    9.994   1_655     S
Ti13     V11    9.994   1_655     S
Ti13     V18    9.994   .     S
Ti13     V15    9.994   .     S
Ti13     V17    9.994   .     S
Ti13     V16    9.994   .     S
Ti14     V15    9.994   1_565     S
Ti14     V18    9.994   1_565     S
Ti14     V16    9.994   .     S
Ti14     V17    9.994   .     S
V15     Ti14    9.994   1_545     S
V16     Er9    10.012   1_665     S
V17     Er10    10.012   1_666     S
V18     Ti14    9.994   1_545     S
V18     Er10    10.012   1_556     S
