data_cev
_audit_creation_date              2020-02-02
_audit_creation_method            'Pymatgen'
_symmetry_space_group_name_H-M    'P1'
_symmetry_Int_Tables_number       1
loop_
_symmetry_equiv_pos_as_xyz
  x,y,z
_cell_length_a                    29.8967
_cell_length_b                    29.8967
_cell_length_c                    46.8274
_cell_angle_alpha                 90.0
_cell_angle_beta                 90.0
_cell_angle_gamma                 120.0
loop_
_atom_site_label
_atom_site_type_symbol
_atom_site_fract_x
_atom_site_fract_y
_atom_site_fract_z
V1     V     0.3256   0.1628   0.3959
V2     V     0.3256   0.1628   0.1041
Ti3     Ti     0.0815   0.9185   0.25
V4     V     0.8372   0.6744   0.1041
V5     V     0.8372   0.6744   0.3959
V6     V     0.8372   0.1628   0.1041
V7     V     0.8372   0.1628   0.3959
Ti8     Ti     0.0815   0.163   0.25
Ti9     Ti     0.837   0.9185   0.25
V10     V     0.1628   0.3256   0.8959
V11     V     0.1628   0.8372   0.8959
V12     V     0.6744   0.8372   0.8959
V13     V     0.1628   0.8372   0.6041
Ti14     Ti     0.163   0.0815   0.75
V15     V     0.1628   0.3256   0.6041
V16     V     0.6744   0.8372   0.6041
Ti17     Ti     0.9185   0.0815   0.75
Ti18     Ti     0.9185   0.837   0.75
Er19     Er     0.5   0.5   0.0
Er20     Er     0.0   0.5   0.0
Er21     Er     0.5   0.0   0.0
Er22     Er     0.5   0.0   0.5
Er23     Er     0.0   0.5   0.5
Er24     Er     0.5   0.5   0.5
loop_
_geom_bond_atom_site_label_1
_geom_bond_atom_site_label_2
_geom_bond_distance
_geom_bond_site_symmetry_2
_ccdc_geom_bond_type
V1     Ti3    10.0   1_545     S
V1     Ti8    10.0   .     S
V1     Er22    10.0   .     S
V1     Er24    10.0   .     S
V2     Ti8    10.0   .     S
V2     Ti3    10.0   1_545     S
V2     Er21    10.0   .     S
V2     Er19    10.0   .     S
Ti3     V1    10.0   1_565     S
Ti3     V2    10.0   1_565     S
Ti3     V4    10.0   1_455     S
Ti3     V5    10.0   1_455     S
V4     Ti3    10.0   1_655     S
V4     Ti9    10.0   .     S
V4     Er20    10.0   1_655     S
V4     Er19    10.0   .     S
V5     Ti9    10.0   .     S
V5     Ti3    10.0   1_655     S
V5     Er23    10.0   1_655     S
V5     Er24    10.0   .     S
V6     Ti9    10.0   1_545     S
V6     Ti8    10.0   1_655     S
V6     Er20    10.0   1_655     S
V6     Er21    10.0   .     S
V7     Ti8    10.0   1_655     S
V7     Ti9    10.0   1_545     S
V7     Er22    10.0   .     S
V7     Er23    10.0   1_655     S
Ti8     V6    10.0   1_455     S
Ti8     V7    10.0   1_455     S
Ti9     V6    10.0   1_565     S
Ti9     V7    10.0   1_565     S
V10     Ti14    10.0   .     S
V10     Ti17    10.0   1_455     S
V10     Er20    10.0   1_556     S
V10     Er19    10.0   1_556     S
V11     Ti18    10.0   1_455     S
V11     Ti14    10.0   1_565     S
V11     Er21    10.0   1_566     S
V11     Er20    10.0   1_556     S
V12     Ti17    10.0   1_565     S
V12     Ti18    10.0   .     S
V12     Er21    10.0   1_566     S
V12     Er19    10.0   1_556     S
V13     Ti14    10.0   1_565     S
V13     Ti18    10.0   1_455     S
V13     Er23    10.0   .     S
V13     Er22    10.0   1_565     S
Ti14     V11    10.0   1_545     S
Ti14     V13    10.0   1_545     S
Ti14     V15    10.0   .     S
V15     Ti17    10.0   1_455     S
V15     Er23    10.0   .     S
V15     Er24    10.0   .     S
V16     Ti18    10.0   .     S
V16     Ti17    10.0   1_565     S
V16     Er22    10.0   1_565     S
V16     Er24    10.0   .     S
Ti17     V10    10.0   1_655     S
Ti17     V12    10.0   1_545     S
Ti17     V15    10.0   1_655     S
Ti17     V16    10.0   1_545     S
Ti18     V11    10.0   1_655     S
Ti18     V13    10.0   1_655     S
Er19     V10    10.0   1_554     S
Er19     V12    10.0   1_554     S
Er20     V4    10.0   1_455     S
Er20     V6    10.0   1_455     S
Er20     V10    10.0   1_554     S
Er20     V11    10.0   1_554     S
Er21     V11    10.0   1_544     S
Er21     V12    10.0   1_544     S
Er22     V13    10.0   1_545     S
Er22     V16    10.0   1_545     S
Er23     V5    10.0   1_455     S
Er23     V7    10.0   1_455     S
