data_ceva
_audit_creation_date              2020-02-02
_audit_creation_method            'Pymatgen'
_symmetry_space_group_name_H-M    'P1'
_symmetry_Int_Tables_number       1
loop_
_symmetry_equiv_pos_as_xyz
  x,y,z
_cell_length_a                    71.4671
_cell_length_b                    71.4671
_cell_length_c                    111.4662
_cell_angle_alpha                 90.0
_cell_angle_beta                 90.0
_cell_angle_gamma                 120.0
loop_
_atom_site_label
_atom_site_type_symbol
_atom_site_fract_x
_atom_site_fract_y
_atom_site_fract_z
Er1     Er     0.7234   0.7917   0.6441
Ti2     Ti     0.2116   0.0358   0.7051
Er3     Er     0.2083   0.9317   0.6441
Er4     Er     0.0683   0.7917   0.6441
Ti5     Ti     0.9642   0.7884   0.7051
Ti6     Ti     0.8242   0.7884   0.7051
Ti7     Ti     0.2116   0.1758   0.7051
Er8     Er     0.2083   0.2766   0.6441
Er9     Er     0.0683   0.2766   0.6441
Ti10     Ti     0.9642   0.1758   0.7051
Ti11     Ti     0.8242   0.0358   0.7051
Er12     Er     0.7234   0.9317   0.6441
V13     V     0.1224   0.3848   0.5775
V14     V     0.2624   0.3848   0.5775
V15     V     0.2624   0.8776   0.5775
V16     V     0.1224   0.7376   0.5775
Ce17     Ce     0.9466   0.5432   0.4664
Ce18     Ce     0.9466   0.4033   0.4664
Ce19     Ce     0.0534   0.5967   0.5336
Ce20     Ce     0.0534   0.4568   0.5336
V21     V     0.7376   0.6152   0.4225
V22     V     0.8776   0.6152   0.4225
V23     V     0.8776   0.2624   0.4225
V24     V     0.7376   0.1224   0.4225
Ce25     Ce     0.5432   0.9466   0.5336
Ce26     Ce     0.4033   0.9466   0.5336
Ce27     Ce     0.5967   0.0534   0.4664
Ce28     Ce     0.4568   0.0534   0.4664
V29     V     0.6152   0.8776   0.5775
V30     V     0.6152   0.7376   0.5775
Ce31     Ce     0.4568   0.4033   0.4664
Ce32     Ce     0.5967   0.5432   0.4664
Ce33     Ce     0.5432   0.5967   0.5336
Ce34     Ce     0.4033   0.4568   0.5336
V35     V     0.3848   0.1224   0.4225
V36     V     0.3848   0.2624   0.4225
Ti37     Ti     0.7884   0.9642   0.2949
Ti38     Ti     0.7884   0.8242   0.2949
Ti39     Ti     0.0358   0.2116   0.2949
Er40     Er     0.9317   0.2083   0.3559
Er41     Er     0.7917   0.0683   0.3559
Ti42     Ti     0.1758   0.9642   0.2949
Ti43     Ti     0.0358   0.8242   0.2949
Er44     Er     0.9317   0.7234   0.3559
Er45     Er     0.7917   0.7234   0.3559
Ti46     Ti     0.1758   0.2116   0.2949
Er47     Er     0.2766   0.0683   0.3559
Er48     Er     0.2766   0.2083   0.3559
Ti49     Ti     0.2116   0.0358   0.7949
Er50     Er     0.2083   0.9317   0.8559
Er51     Er     0.0683   0.7917   0.8559
Ti52     Ti     0.9642   0.7884   0.7949
Ti53     Ti     0.8242   0.7884   0.7949
Er54     Er     0.7234   0.7917   0.8559
Ti55     Ti     0.2116   0.1758   0.7949
Er56     Er     0.2083   0.2766   0.8559
Er57     Er     0.7234   0.9317   0.8559
Ti58     Ti     0.9642   0.1758   0.7949
Ti59     Ti     0.8242   0.0358   0.7949
Er60     Er     0.0683   0.2766   0.8559
Ti61     Ti     0.1758   0.2116   0.2051
Er62     Er     0.2766   0.2083   0.1441
Er63     Er     0.9317   0.7234   0.1441
Ti64     Ti     0.1758   0.9642   0.2051
Ti65     Ti     0.0358   0.8242   0.2051
Er66     Er     0.2766   0.0683   0.1441
V67     V     0.1224   0.3848   0.9225
V68     V     0.2624   0.3848   0.9225
V69     V     0.6152   0.8776   0.9225
V70     V     0.6152   0.7376   0.9225
V71     V     0.7376   0.6152   0.0775
V72     V     0.8776   0.6152   0.0775
Ce73     Ce     0.5432   0.5967   0.9664
Ce74     Ce     0.4033   0.4568   0.9664
Ce75     Ce     0.5967   0.5432   0.0336
Ce76     Ce     0.4568   0.4033   0.0336
Ce77     Ce     0.5432   0.9466   0.9664
Ce78     Ce     0.4033   0.9466   0.9664
Ce79     Ce     0.4568   0.0534   0.0336
Ce80     Ce     0.5967   0.0534   0.0336
V81     V     0.3848   0.1224   0.0775
V82     V     0.3848   0.2624   0.0775
V83     V     0.2624   0.8776   0.9225
V84     V     0.1224   0.7376   0.9225
Ce85     Ce     0.9466   0.5432   0.0336
Ce86     Ce     0.9466   0.4033   0.0336
Ce87     Ce     0.0534   0.4568   0.9664
Ce88     Ce     0.0534   0.5967   0.9664
V89     V     0.7376   0.1224   0.0775
V90     V     0.8776   0.2624   0.0775
Ti91     Ti     0.7884   0.9642   0.2051
Ti92     Ti     0.7884   0.8242   0.2051
Ti93     Ti     0.0358   0.2116   0.2051
Er94     Er     0.9317   0.2083   0.1441
Er95     Er     0.7917   0.0683   0.1441
Er96     Er     0.7917   0.7234   0.1441
loop_
_geom_bond_atom_site_label_1
_geom_bond_atom_site_label_2
_geom_bond_distance
_geom_bond_site_symmetry_2
_ccdc_geom_bond_type
Er1     Er12    10.0   .     S
Er1     Ti6    10.0   .     S
Er1     V30    10.0   .     S
Ti2     Er3    10.0   1_545     S
Ti2     Ti7    10.0   .     S
Ti2     Ti49    10.001   .     S
Er3     Ti2    10.0   1_565     S
Er3     Er4    10.0   .     S
Er3     V15    10.0   .     S
Er4     Ti5    10.0   1_455     S
Er4     V16    10.0   .     S
Ti5     Er4    10.0   1_655     S
Ti5     Ti6    10.0   .     S
Ti5     Ti52    10.001   .     S
Ti6     Ti53    10.001   .     S
Ti7     Er8    10.0   .     S
Ti7     Ti55    10.001   .     S
Er8     Er9    10.0   .     S
Er8     V14    10.0   .     S
Er9     Ti10    10.0   1_455     S
Er9     V13    10.0   .     S
Ti10     Er9    10.0   1_655     S
Ti10     Ti11    10.0   .     S
Ti10     Ti58    10.001   .     S
Ti11     Er12    10.0   1_545     S
Ti11     Ti59    10.001   .     S
Er12     Ti11    10.0   1_565     S
Er12     V29    10.0   .     S
V13     V14    10.0   .     S
V13     Ce20    10.0   .     S
V14     Ce34    10.0   .     S
V15     V16    10.0   .     S
V15     Ce26    10.0   .     S
V16     Ce19    10.0   .     S
Ce17     Ce18    10.0   .     S
Ce17     Ce19    10.0   1_655     S
Ce17     V22    10.0   .     S
Ce18     Ce20    10.0   1_655     S
Ce18     V23    10.0   .     S
Ce19     Ce20    10.0   .     S
Ce19     Ce17    10.0   1_455     S
Ce20     Ce18    10.0   1_455     S
V21     Er45    10.0   .     S
V21     V22    10.0   .     S
V21     Ce32    10.0   .     S
V22     Er44    10.0   .     S
V23     Er40    10.0   .     S
V23     V24    10.0   .     S
V24     Er41    10.0   .     S
V24     Ce27    10.0   .     S
Ce25     Ce26    10.0   .     S
Ce25     Ce27    10.0   1_565     S
Ce25     V29    10.0   .     S
Ce26     Ce28    10.0   1_565     S
Ce27     Ce28    10.0   .     S
Ce27     Ce25    10.0   1_545     S
Ce28     Ce26    10.0   1_545     S
Ce28     V35    10.0   .     S
V29     V30    10.0   .     S
V30     Ce33    10.0   .     S
Ce31     Ce32    10.0   .     S
Ce31     Ce34    10.0   .     S
Ce31     V36    10.0   .     S
Ce32     Ce33    10.0   .     S
Ce33     Ce34    10.0   .     S
V35     Er47    10.0   .     S
V35     V36    10.0   .     S
V36     Er48    10.0   .     S
Ti37     Er41    10.0   1_565     S
Ti37     Ti38    10.0   .     S
Ti37     Ti91    10.001   .     S
Ti38     Er45    10.0   .     S
Ti38     Ti92    10.001   .     S
Ti39     Er40    10.0   1_455     S
Ti39     Ti46    10.0   .     S
Ti39     Ti93    10.001   .     S
Er40     Ti39    10.0   1_655     S
Er40     Er41    10.0   .     S
Er41     Ti37    10.0   1_545     S
Ti42     Er47    10.0   1_565     S
Ti42     Ti43    10.0   .     S
Ti42     Ti64    10.001   .     S
Ti43     Er44    10.0   1_455     S
Ti43     Ti65    10.001   .     S
Er44     Ti43    10.0   1_655     S
Er44     Er45    10.0   .     S
Ti46     Er48    10.0   .     S
Ti46     Ti61    10.001   .     S
Er47     Ti42    10.0   1_545     S
Er47     Er48    10.0   .     S
Ti49     Er50    10.0   1_545     S
Ti49     Ti55    10.0   .     S
Er50     Ti49    10.0   1_565     S
Er50     Er51    10.0   .     S
Er50     V83    10.0   .     S
Er51     Ti52    10.0   1_455     S
Er51     V84    10.0   .     S
Ti52     Er51    10.0   1_655     S
Ti52     Ti53    10.0   .     S
Ti53     Er54    10.0   .     S
Er54     Er57    10.0   .     S
Er54     V70    10.0   .     S
Ti55     Er56    10.0   .     S
Er56     Er60    10.0   .     S
Er56     V68    10.0   .     S
Er57     Ti59    10.0   1_565     S
Er57     V69    10.0   .     S
Ti58     Er60    10.0   1_655     S
Ti58     Ti59    10.0   .     S
Ti59     Er57    10.0   1_545     S
Er60     Ti58    10.0   1_455     S
Er60     V67    10.0   .     S
Ti61     Er62    10.0   .     S
Ti61     Ti93    10.0   .     S
Er62     Er66    10.0   .     S
Er62     V82    10.0   .     S
Er63     Er96    10.0   .     S
Er63     Ti65    10.0   1_655     S
Er63     V72    10.0   .     S
Ti64     Er66    10.0   1_565     S
Ti64     Ti65    10.0   .     S
Ti65     Er63    10.0   1_455     S
Er66     Ti64    10.0   1_545     S
Er66     V81    10.0   .     S
V67     V68    10.0   .     S
V67     Ce87    10.0   .     S
V68     Ce74    10.0   .     S
V69     V70    10.0   .     S
V69     Ce77    10.0   .     S
V70     Ce73    10.0   .     S
V71     Er96    10.0   .     S
V71     V72    10.0   .     S
V71     Ce75    10.0   .     S
V72     Ce85    10.0   .     S
Ce73     Ce74    10.0   .     S
Ce73     Ce75    10.0   1_556     S
Ce74     Ce76    10.0   1_556     S
Ce75     Ce76    10.0   .     S
Ce75     Ce73    10.0   1_554     S
Ce76     Ce74    10.0   1_554     S
Ce76     V82    10.0   .     S
Ce77     Ce78    10.0   .     S
Ce77     Ce80    10.0   1_566     S
Ce78     Ce79    10.0   1_566     S
Ce78     V83    10.0   .     S
Ce79     Ce80    10.0   .     S
Ce79     Ce78    10.0   1_544     S
Ce79     V81    10.0   .     S
Ce80     Ce77    10.0   1_544     S
Ce80     V89    10.0   .     S
V81     V82    10.0   .     S
V83     V84    10.0   .     S
V84     Ce88    10.0   .     S
Ce85     Ce86    10.0   .     S
Ce85     Ce88    10.0   1_654     S
Ce86     Ce87    10.0   1_654     S
Ce86     V90    10.0   .     S
Ce87     Ce88    10.0   .     S
Ce87     Ce86    10.0   1_456     S
Ce88     Ce85    10.0   1_456     S
V89     Er95    10.0   .     S
V89     V90    10.0   .     S
V90     Er94    10.0   .     S
Ti91     Er95    10.0   1_565     S
Ti91     Ti92    10.0   .     S
Ti92     Er96    10.0   .     S
Ti93     Er94    10.0   1_455     S
Er94     Ti93    10.0   1_655     S
Er94     Er95    10.0   .     S
Er95     Ti91    10.0   1_545     S
