data_cew
_audit_creation_date              2020-02-02
_audit_creation_method            'Pymatgen'
_symmetry_space_group_name_H-M    'P1'
_symmetry_Int_Tables_number       1
loop_
_symmetry_equiv_pos_as_xyz
  x,y,z
_cell_length_a                    34.9771
_cell_length_b                    34.9771
_cell_length_c                    23.914
_cell_angle_alpha                 90.0
_cell_angle_beta                 90.0
_cell_angle_gamma                 120.0
loop_
_atom_site_label
_atom_site_type_symbol
_atom_site_fract_x
_atom_site_fract_y
_atom_site_fract_z
V1     V     0.5643   0.7822   0.3142
V2     V     0.5643   0.7822   0.6858
V3     V     0.7822   0.2178   0.6858
V4     V     0.7822   0.2178   0.3142
Ti5     Ti     0.672   0.0   0.0
V6     V     0.7822   0.5643   0.6858
V7     V     0.7822   0.5643   0.3142
V8     V     0.2178   0.7822   0.3142
V9     V     0.2178   0.7822   0.6858
V10     V     0.4357   0.2178   0.3142
V11     V     0.4357   0.2178   0.6858
Ti12     Ti     0.328   0.328   0.0
V13     V     0.2178   0.4357   0.6858
V14     V     0.2178   0.4357   0.3142
Ti15     Ti     0.0   0.328   0.0
Ti16     Ti     0.328   0.0   0.0
Ti17     Ti     0.0   0.672   0.0
Ti18     Ti     0.672   0.672   0.0
Er19     Er     0.5   0.5   0.5
Er20     Er     0.5   0.0   0.5
Er21     Er     0.0   0.5   0.5
loop_
_geom_bond_atom_site_label_1
_geom_bond_atom_site_label_2
_geom_bond_distance
_geom_bond_site_symmetry_2
_ccdc_geom_bond_type
V1     Er19    10.0   .     S
V1     Ti18    10.0   .     S
V1     Ti5    10.0   1_565     S
V1     Er20    10.0   1_565     S
V2     Er19    10.0   .     S
V2     Er20    10.0   1_565     S
V2     Ti18    10.0   1_556     S
V2     Ti5    10.0   1_566     S
V3     Er21    10.0   1_655     S
V3     Ti15    10.0   1_656     S
V3     Ti5    10.0   1_556     S
V3     Er20    10.0   .     S
V4     Er21    10.0   1_655     S
V4     Er20    10.0   .     S
V4     Ti15    10.0   1_655     S
V4     Ti5    10.0   .     S
Ti5     V1    10.0   1_545     S
Ti5     V2    10.0   1_544     S
Ti5     V3    10.0   1_554     S
V6     Er21    10.0   1_655     S
V6     Ti18    10.0   1_556     S
V6     Ti17    10.0   1_656     S
V6     Er19    10.0   .     S
V7     Er21    10.0   1_655     S
V7     Er19    10.0   .     S
V7     Ti18    10.0   .     S
V7     Ti17    10.0   1_655     S
V8     Er21    10.0   .     S
V8     Ti16    10.0   1_565     S
V8     Ti17    10.0   .     S
V8     Er20    10.0   1_565     S
V9     Er21    10.0   .     S
V9     Er20    10.0   1_565     S
V9     Ti16    10.0   1_566     S
V9     Ti17    10.0   1_556     S
V10     Er19    10.0   .     S
V10     Ti12    10.0   .     S
V10     Ti16    10.0   .     S
V10     Er20    10.0   .     S
V11     Er19    10.0   .     S
V11     Er20    10.0   .     S
V11     Ti12    10.0   1_556     S
V11     Ti16    10.0   1_556     S
Ti12     V11    10.0   1_554     S
Ti12     V13    10.0   1_554     S
Ti12     V14    10.0   .     S
V13     Er19    10.0   .     S
V13     Ti12    10.0   1_556     S
V13     Ti15    10.0   1_556     S
V13     Er21    10.0   .     S
V14     Er19    10.0   .     S
V14     Er21    10.0   .     S
V14     Ti15    10.0   .     S
Ti15     V3    10.0   1_454     S
Ti15     V4    10.0   1_455     S
Ti15     V13    10.0   1_554     S
Ti16     V8    10.0   1_545     S
Ti16     V9    10.0   1_544     S
Ti16     V11    10.0   1_554     S
Ti17     V6    10.0   1_454     S
Ti17     V7    10.0   1_455     S
Ti17     V9    10.0   1_554     S
Ti18     V2    10.0   1_554     S
Ti18     V6    10.0   1_554     S
Er20     V2    10.0   1_545     S
Er20     V1    10.0   1_545     S
Er20     V8    10.0   1_545     S
Er20     V9    10.0   1_545     S
Er21     V3    10.0   1_455     S
Er21     V4    10.0   1_455     S
Er21     V7    10.0   1_455     S
Er21     V6    10.0   1_455     S
