data_cex
_audit_creation_date              2020-02-02
_audit_creation_method            'Pymatgen'
_symmetry_space_group_name_H-M    'P1'
_symmetry_Int_Tables_number       1
loop_
_symmetry_equiv_pos_as_xyz
  x,y,z
_cell_length_a                    30.5557
_cell_length_b                    30.5557
_cell_length_c                    23.4723
_cell_angle_alpha                 90.0
_cell_angle_beta                 90.0
_cell_angle_gamma                 120.0
loop_
_atom_site_label
_atom_site_type_symbol
_atom_site_fract_x
_atom_site_fract_y
_atom_site_fract_z
Er1     Er     0.6667   0.3333   0.0
V2     V     0.5794   0.0   0.1753
V3     V     0.4206   0.0   0.1753
V4     V     0.5794   0.0   0.8247
V5     V     0.4206   0.0   0.8247
V6     V     0.5794   0.5794   0.1753
V7     V     0.4206   0.4206   0.1753
V8     V     0.5794   0.5794   0.8247
V9     V     0.4206   0.4206   0.8247
Ti10     Ti     0.5764   0.7882   0.5
V11     V     0.0   0.4206   0.1753
V12     V     0.0   0.5794   0.1753
V13     V     0.0   0.5794   0.8247
V14     V     0.0   0.4206   0.8247
Ti15     Ti     0.2118   0.7882   0.5
Ti16     Ti     0.2118   0.4236   0.5
Ti17     Ti     0.7882   0.2118   0.5
Ti18     Ti     0.7882   0.5764   0.5
Ti19     Ti     0.4236   0.2118   0.5
Er20     Er     0.3333   0.6667   0.0
loop_
_geom_bond_atom_site_label_1
_geom_bond_atom_site_label_2
_geom_bond_distance
_geom_bond_site_symmetry_2
_ccdc_geom_bond_type
Er1     V12    10.031   1_655     S
Er1     V11    10.031   1_655     S
Er1     V14    10.031   1_654     S
Er1     V13    10.031   1_654     S
Er1     V5    10.031   1_554     S
Er1     V4    10.031   1_554     S
Er1     V2    10.031   .     S
Er1     V3    10.031   .     S
Er1     V8    10.031   1_554     S
Er1     V9    10.031   1_554     S
Er1     V7    10.031   .     S
Er1     V6    10.031   .     S
V2     Er20    10.031   1_545     S
V2     Ti17    9.969   .     S
V2     Ti10    9.969   1_545     S
V3     Er20    10.031   1_545     S
V3     Ti15    9.969   1_545     S
V3     Ti19    9.969   .     S
V4     Er1    10.031   1_556     S
V4     Er20    10.031   1_546     S
V4     Ti10    9.969   1_545     S
V4     Ti17    9.969   .     S
V5     Er1    10.031   1_556     S
V5     Er20    10.031   1_546     S
V5     Ti15    9.969   1_545     S
V5     Ti19    9.969   .     S
V6     Er20    10.031   .     S
V6     Ti18    9.969   .     S
V6     Ti10    9.969   .     S
V7     Er20    10.031   .     S
V7     Ti19    9.969   .     S
V7     Ti16    9.969   .     S
V8     Er1    10.031   1_556     S
V8     Er20    10.031   1_556     S
V8     Ti18    9.969   .     S
V8     Ti10    9.969   .     S
V9     Er1    10.031   1_556     S
V9     Er20    10.031   1_556     S
V9     Ti19    9.969   .     S
V9     Ti16    9.969   .     S
Ti10     V2    9.969   1_565     S
Ti10     V4    9.969   1_565     S
V11     Er1    10.031   1_455     S
V11     Er20    10.031   .     S
V11     Ti17    9.969   1_455     S
V11     Ti16    9.969   .     S
V12     Er1    10.031   1_455     S
V12     Er20    10.031   .     S
V12     Ti18    9.969   1_455     S
V12     Ti15    9.969   .     S
V13     Er1    10.031   1_456     S
V13     Er20    10.031   1_556     S
V13     Ti18    9.969   1_455     S
V13     Ti15    9.969   .     S
V14     Er1    10.031   1_456     S
V14     Er20    10.031   1_556     S
V14     Ti17    9.969   1_455     S
V14     Ti16    9.969   .     S
Ti15     V3    9.969   1_565     S
Ti15     V5    9.969   1_565     S
Ti17     V11    9.969   1_655     S
Ti17     V14    9.969   1_655     S
Ti18     V12    9.969   1_655     S
Ti18     V13    9.969   1_655     S
Er20     V13    10.031   1_554     S
Er20     V14    10.031   1_554     S
Er20     V3    10.031   1_565     S
Er20     V2    10.031   1_565     S
Er20     V4    10.031   1_564     S
Er20     V5    10.031   1_564     S
Er20     V9    10.031   1_554     S
Er20     V8    10.031   1_554     S
