data_cfd
_audit_creation_date              2020-02-02
_audit_creation_method            'Pymatgen'
_symmetry_space_group_name_H-M    'P1'
_symmetry_Int_Tables_number       1
loop_
_symmetry_equiv_pos_as_xyz
  x,y,z
_cell_length_a                    16.3494
_cell_length_b                    16.3494
_cell_length_c                    79.8086
_cell_angle_alpha                 90.0
_cell_angle_beta                 90.0
_cell_angle_gamma                 120.0
loop_
_atom_site_label
_atom_site_type_symbol
_atom_site_fract_x
_atom_site_fract_y
_atom_site_fract_z
V1     V     0.0   0.0   0.3126
V2     V     0.0   0.0   0.1874
Ti3     Ti     0.6667   0.3333   0.854
Er4     Er     0.3333   0.6667   0.0207
Er5     Er     0.6667   0.3333   0.9793
Ti6     Ti     0.3333   0.6667   0.146
Ti7     Ti     0.6667   0.3333   0.646
Er8     Er     0.3333   0.6667   0.4793
Er9     Er     0.6667   0.3333   0.5207
Ti10     Ti     0.3333   0.6667   0.354
V11     V     0.0   0.0   0.6874
V12     V     0.0   0.0   0.8126
loop_
_geom_bond_atom_site_label_1
_geom_bond_atom_site_label_2
_geom_bond_distance
_geom_bond_site_symmetry_2
_ccdc_geom_bond_type
V1     V2    10.0   .     S
V1     Ti10    10.0   1_545     S
V1     Ti10    10.0   1_445     S
V1     Ti10    10.0   .     S
V2     Ti6    10.0   1_545     S
V2     Ti6    10.0   1_445     S
V2     Ti6    10.0   .     S
Ti3     V12    10.0   .     S
Ti3     V12    10.0   1_665     S
Ti3     Er5    10.0   .     S
Ti3     V12    10.0   1_655     S
Er4     Er5    10.0   1_554     S
Er4     Er5    10.0   1_564     S
Er4     Er5    10.0   1_454     S
Er4     Ti6    10.0   .     S
Er5     Er4    10.0   1_556     S
Er5     Er4    10.0   1_546     S
Er5     Er4    10.0   1_656     S
Ti6     V2    10.0   1_565     S
Ti6     V2    10.0   1_665     S
Ti7     Er9    10.0   .     S
Ti7     V11    10.0   .     S
Ti7     V11    10.0   1_665     S
Ti7     V11    10.0   1_655     S
Er8     Er9    10.0   .     S
Er8     Er9    10.0   1_455     S
Er8     Er9    10.0   1_565     S
Er8     Ti10    10.0   .     S
Er9     Er8    10.0   1_655     S
Er9     Er8    10.0   1_545     S
Ti10     V1    10.0   1_565     S
Ti10     V1    10.0   1_665     S
V11     Ti7    10.0   1_445     S
V11     V12    10.0   .     S
V11     Ti7    10.0   1_455     S
V12     Ti3    10.0   1_445     S
V12     Ti3    10.0   1_455     S
