data_cgs
_audit_creation_date              2020-02-02
_audit_creation_method            'Pymatgen'
_symmetry_space_group_name_H-M    'P1'
_symmetry_Int_Tables_number       1
loop_
_symmetry_equiv_pos_as_xyz
  x,y,z
_cell_length_a                    28.8313
_cell_length_b                    47.2115
_cell_length_c                    50.8525
_cell_angle_alpha                 90.0
_cell_angle_beta                 90.0
_cell_angle_gamma                 90.0
loop_
_atom_site_label
_atom_site_type_symbol
_atom_site_fract_x
_atom_site_fract_y
_atom_site_fract_z
Ti1     Ti     0.117   0.4494   0.224
V2     V     0.8346   0.3559   0.1498
Ce3     Ce     0.4078   0.4906   0.1239
Er4     Er     0.4121   0.6441   0.9884
Ce5     Ce     0.5922   0.5094   0.8761
Er6     Er     0.5879   0.3559   0.0116
Ti7     Ti     0.883   0.5506   0.776
V8     V     0.1654   0.6441   0.8502
Ti9     Ti     0.617   0.4494   0.276
V10     V     0.3346   0.3559   0.3502
Ce11     Ce     0.0922   0.5094   0.6239
Er12     Er     0.0879   0.3559   0.4884
Ce13     Ce     0.9078   0.4906   0.3761
Er14     Er     0.9121   0.6441   0.5116
Ti15     Ti     0.383   0.5506   0.724
V16     V     0.6654   0.6441   0.6498
Ti17     Ti     0.383   0.9494   0.724
V18     V     0.6654   0.8559   0.6498
Ce19     Ce     0.9078   0.0094   0.3761
Er20     Er     0.9121   0.8559   0.5116
Ce21     Ce     0.0922   0.9906   0.6239
Er22     Er     0.0879   0.1441   0.4884
Ti23     Ti     0.617   0.0506   0.276
V24     V     0.3346   0.1441   0.3502
Ti25     Ti     0.883   0.9494   0.776
V26     V     0.1654   0.8559   0.8502
Ce27     Ce     0.4078   0.0094   0.1239
Er28     Er     0.4121   0.8559   0.9884
Ce29     Ce     0.5922   0.9906   0.8761
Er30     Er     0.5879   0.1441   0.0116
Ti31     Ti     0.117   0.0506   0.224
V32     V     0.8346   0.1441   0.1498
loop_
_geom_bond_atom_site_label_1
_geom_bond_atom_site_label_2
_geom_bond_distance
_geom_bond_site_symmetry_2
_ccdc_geom_bond_type
Ti1     Ce3    10.0   .     S
Ti1     V2    10.0   1_455     S
Ti1     V10    10.0   .     S
Ti1     Ce13    10.0   1_455     S
V2     Ti1    10.0   1_655     S
V2     Ti9    10.0   .     S
V2     Er6    10.0   .     S
V2     V32    10.0   .     S
Ce3     Ti9    10.0   .     S
Ce3     Er4    10.0   1_554     S
Ce3     Er6    10.0   .     S
Er4     Ce3    10.0   1_556     S
Er4     Ce5    10.0   .     S
Er4     V8    10.0   .     S
Er4     Er28    10.0   .     S
Ce5     Ti15    10.0   .     S
Ce5     Er6    10.0   1_556     S
Ce5     Ti7    10.0   .     S
Er6     Ce5    10.0   1_554     S
Er6     Er30    10.0   .     S
Ti7     V8    10.0   1_655     S
Ti7     Ce11    10.0   1_655     S
Ti7     V16    10.0   .     S
V8     Ti7    10.0   1_455     S
V8     Ti15    10.0   .     S
V8     V26    10.0   .     S
Ti9     Ce13    10.0   .     S
Ti9     V10    10.0   .     S
V10     Er12    10.0   .     S
V10     V24    10.0   .     S
Ce11     Ti7    10.0   1_455     S
Ce11     Er12    10.0   .     S
Ce11     Er14    10.0   1_455     S
Ce11     Ti15    10.0   .     S
Er12     Ce13    10.0   1_455     S
Er12     Er22    10.0   .     S
Ce13     Ti1    10.0   1_655     S
Ce13     Er14    10.0   .     S
Ce13     Er12    10.0   1_655     S
Er14     Ce11    10.0   1_655     S
Er14     V16    10.0   .     S
Er14     Er20    10.0   .     S
Ti15     V16    10.0   .     S
V16     V18    10.0   .     S
Ti17     Ce21    10.0   .     S
Ti17     V18    10.0   .     S
Ti17     V26    10.0   .     S
Ti17     Ce29    10.0   .     S
V18     Ti25    10.0   .     S
V18     Er20    10.0   .     S
Ce19     Ti31    10.0   1_655     S
Ce19     Er20    10.0   1_545     S
Ce19     Er22    10.0   1_655     S
Ce19     Ti23    10.0   .     S
Er20     Ce19    10.0   1_565     S
Er20     Ce21    10.0   1_655     S
Ce21     Er20    10.0   1_455     S
Ce21     Ti25    10.0   1_455     S
Ce21     Er22    10.0   1_565     S
Er22     Ce21    10.0   1_545     S
Er22     Ce19    10.0   1_455     S
Er22     V24    10.0   .     S
Ti23     V24    10.0   .     S
Ti23     Ce27    10.0   .     S
Ti23     V32    10.0   .     S
V24     Ti31    10.0   .     S
Ti25     Ce21    10.0   1_655     S
Ti25     Ce29    10.0   .     S
Ti25     V26    10.0   1_655     S
V26     Ti25    10.0   1_455     S
V26     Er28    10.0   .     S
Ce27     Er28    10.0   1_544     S
Ce27     Er30    10.0   .     S
Ce27     Ti31    10.0   .     S
Er28     Ce27    10.0   1_566     S
Er28     Ce29    10.0   .     S
Ce29     Er30    10.0   1_566     S
Er30     Ce29    10.0   1_544     S
Er30     V32    10.0   .     S
Ti31     Ce19    10.0   1_455     S
Ti31     V32    10.0   1_455     S
V32     Ti31    10.0   1_655     S
