data_che
_audit_creation_date              2020-02-02
_audit_creation_method            'Pymatgen'
_symmetry_space_group_name_H-M    'P1'
_symmetry_Int_Tables_number       1
loop_
_symmetry_equiv_pos_as_xyz
  x,y,z
_cell_length_a                    60.5651
_cell_length_b                    60.5651
_cell_length_c                    60.5651
_cell_angle_alpha                 90.0
_cell_angle_beta                 90.0
_cell_angle_gamma                 90.0
loop_
_atom_site_label
_atom_site_type_symbol
_atom_site_fract_x
_atom_site_fract_y
_atom_site_fract_z
Er1     Er     0.2977   0.2977   0.2977
Er2     Er     0.2023   0.2023   0.2023
Er3     Er     0.4523   0.4523   0.4523
Er4     Er     0.5477   0.5477   0.5477
Er5     Er     0.4523   0.0477   0.9523
Er6     Er     0.5477   0.9523   0.0477
Er7     Er     0.9523   0.4523   0.0477
Er8     Er     0.0477   0.5477   0.9523
Er9     Er     0.0477   0.9523   0.4523
Er10     Er     0.9523   0.0477   0.5477
Er11     Er     0.7023   0.7023   0.7023
Er12     Er     0.7977   0.7977   0.7977
Er13     Er     0.0477   0.0477   0.0477
Er14     Er     0.9523   0.9523   0.9523
Er15     Er     0.2023   0.7977   0.2977
Er16     Er     0.2977   0.7023   0.2023
Er17     Er     0.2977   0.2023   0.7977
Er18     Er     0.2023   0.2977   0.7023
Er19     Er     0.7977   0.2977   0.2023
Er20     Er     0.7023   0.2023   0.2977
Er21     Er     0.9523   0.5477   0.4523
Er22     Er     0.0477   0.4523   0.5477
Er23     Er     0.7977   0.7023   0.2977
Er24     Er     0.7023   0.7977   0.2023
Er25     Er     0.5477   0.4523   0.9523
Er26     Er     0.4523   0.5477   0.0477
Er27     Er     0.7023   0.2977   0.7977
Er28     Er     0.7977   0.2023   0.7023
Er29     Er     0.4523   0.9523   0.5477
Er30     Er     0.5477   0.0477   0.4523
V31     V     0.4215   0.134   0.7124
V32     V     0.5376   0.116   0.8285
V33     V     0.3285   0.0375   0.616
V34     V     0.2124   0.9215   0.634
V35     V     0.7124   0.4215   0.134
V36     V     0.8285   0.5376   0.116
V37     V     0.616   0.3285   0.0375
V38     V     0.634   0.2124   0.9215
V39     V     0.0375   0.616   0.3285
V40     V     0.9215   0.634   0.2124
V41     V     0.134   0.7124   0.4215
V42     V     0.116   0.8285   0.5376
V43     V     0.2875   0.0785   0.134
V44     V     0.1715   0.9624   0.116
V45     V     0.866   0.7876   0.4215
V46     V     0.884   0.6715   0.5376
V47     V     0.0785   0.866   0.2124
V48     V     0.9624   0.884   0.3285
V49     V     0.384   0.1715   0.0375
V50     V     0.366   0.2875   0.9215
V51     V     0.6715   0.4624   0.616
V52     V     0.7876   0.5785   0.634
V53     V     0.5785   0.366   0.7124
V54     V     0.4624   0.384   0.8285
V55     V     0.8285   0.0376   0.884
V56     V     0.7124   0.9215   0.866
V57     V     0.9215   0.134   0.7876
V58     V     0.0376   0.116   0.6715
V59     V     0.116   0.3285   0.4624
V60     V     0.134   0.2125   0.5785
V61     V     0.2124   0.4215   0.366
V62     V     0.3285   0.5376   0.384
V63     V     0.616   0.8285   0.9624
V64     V     0.634   0.7124   0.0785
V65     V     0.5376   0.616   0.1715
V66     V     0.4215   0.634   0.2875
V67     V     0.884   0.8285   0.0376
V68     V     0.866   0.7124   0.9215
V69     V     0.7876   0.9215   0.134
V70     V     0.6715   0.0376   0.116
V71     V     0.4624   0.116   0.3285
V72     V     0.5785   0.134   0.2125
V73     V     0.366   0.2124   0.4215
V74     V     0.384   0.3285   0.5376
V75     V     0.9624   0.616   0.8285
V76     V     0.0785   0.634   0.7124
V77     V     0.1715   0.5376   0.616
V78     V     0.2875   0.4215   0.634
V79     V     0.4624   0.884   0.1715
V80     V     0.5785   0.866   0.2875
V81     V     0.366   0.7876   0.0785
V82     V     0.384   0.6715   0.9624
V83     V     0.1715   0.4624   0.884
V84     V     0.2875   0.5785   0.866
V85     V     0.0785   0.366   0.7876
V86     V     0.9624   0.384   0.6715
V87     V     0.7876   0.0785   0.366
V88     V     0.6715   0.9624   0.384
V89     V     0.884   0.1715   0.4624
V90     V     0.866   0.2875   0.5785
V91     V     0.0376   0.884   0.8285
V92     V     0.9215   0.866   0.7124
V93     V     0.134   0.7876   0.9215
V94     V     0.116   0.6715   0.0376
V95     V     0.3285   0.4624   0.116
V96     V     0.2124   0.5785   0.134
V97     V     0.4215   0.366   0.2124
V98     V     0.5376   0.384   0.3285
V99     V     0.8285   0.9624   0.616
V100     V     0.7124   0.0785   0.634
V101     V     0.616   0.1715   0.5376
V102     V     0.634   0.2875   0.4215
V103     V     0.616   0.6715   0.4624
V104     V     0.634   0.7876   0.5785
V105     V     0.7124   0.5785   0.366
V106     V     0.8285   0.4624   0.384
V107     V     0.0375   0.384   0.1715
V108     V     0.9215   0.366   0.2875
V109     V     0.134   0.2875   0.0785
V110     V     0.116   0.1715   0.9624
V111     V     0.2124   0.0785   0.866
V112     V     0.3285   0.9624   0.884
V113     V     0.4215   0.866   0.7876
V114     V     0.5376   0.884   0.6715
V115     V     0.0785   0.134   0.2875
V116     V     0.9624   0.116   0.1715
V117     V     0.7876   0.4215   0.866
V118     V     0.6715   0.5376   0.884
V119     V     0.884   0.3285   0.9624
V120     V     0.866   0.2124   0.0785
V121     V     0.4624   0.616   0.6715
V122     V     0.5785   0.634   0.7876
V123     V     0.1715   0.0375   0.384
V124     V     0.2875   0.9215   0.366
V125     V     0.366   0.7124   0.5785
V126     V     0.384   0.8285   0.4624
Ti127     Ti     0.25   0.625   0.5
Ti128     Ti     0.5   0.75   0.875
Ti129     Ti     0.5   0.75   0.375
Ti130     Ti     0.875   0.5   0.75
Ti131     Ti     0.375   0.5   0.75
Ti132     Ti     0.625   0.5   0.25
Ti133     Ti     0.75   0.375   0.5
Ti134     Ti     0.75   0.875   0.5
Ti135     Ti     0.0   0.75   0.625
Ti136     Ti     0.5   0.25   0.125
Ti137     Ti     0.25   0.875   0.0
Ti138     Ti     0.75   0.625   0.0
Ti139     Ti     0.25   0.125   0.5
Ti140     Ti     0.625   0.0   0.75
Ti141     Ti     0.125   0.5   0.25
Ti142     Ti     0.25   0.375   0.0
Ti143     Ti     0.5   0.25   0.625
Ti144     Ti     0.0   0.75   0.125
Ti145     Ti     0.125   0.0   0.75
Ti146     Ti     0.75   0.125   0.0
Ti147     Ti     0.875   0.0   0.25
Ti148     Ti     0.0   0.25   0.875
Ti149     Ti     0.0   0.25   0.375
Ti150     Ti     0.375   0.0   0.25
Er151     Er     0.2977   0.7977   0.7023
Er152     Er     0.2023   0.7023   0.7977
loop_
_geom_bond_atom_site_label_1
_geom_bond_atom_site_label_2
_geom_bond_distance
_geom_bond_site_symmetry_2
_ccdc_geom_bond_type
Er1     Er2    9.999   .     S
Er1     V97    10.001   .     S
Er1     V73    10.001   .     S
Er1     V61    10.001   .     S
Er2     V115    10.001   .     S
Er2     V109    10.001   .     S
Er2     V43    10.001   .     S
Er3     Er4    9.999   .     S
Er3     V74    10.001   .     S
Er3     V98    10.001   .     S
Er3     V62    10.001   .     S
Er4     V103    10.001   .     S
Er4     V121    10.001   .     S
Er4     V51    10.001   .     S
Er5     Er6    9.999   1_546     S
Er5     V32    10.001   .     S
Er5     V112    10.001   1_545     S
Er5     V49    10.001   1_556     S
Er6     Er5    9.999   1_564     S
Er6     V79    10.001   .     S
Er6     V63    10.001   1_554     S
Er6     V70    10.001   1_565     S
Er7     Er8    9.999   1_654     S
Er7     V36    10.001   .     S
Er7     V119    10.001   1_554     S
Er7     V107    10.001   1_655     S
Er8     Er7    9.999   1_456     S
Er8     V75    10.001   1_455     S
Er8     V83    10.001   .     S
Er8     V94    10.001   1_556     S
Er9     Er10    9.999   1_465     S
Er9     V42    10.001   .     S
Er9     V48    10.001   1_455     S
Er9     V123    10.001   1_565     S
Er10     Er9    9.999   1_645     S
Er10     V89    10.001   .     S
Er10     V99    10.001   1_545     S
Er10     V58    10.001   1_655     S
Er11     Er12    9.999   .     S
Er11     V122    10.001   .     S
Er11     V104    10.001   .     S
Er11     V52    10.001   .     S
Er12     V92    10.001   .     S
Er12     V68    10.001   .     S
Er12     V56    10.001   .     S
Er13     Er14    9.999   1_444     S
Er13     V110    10.001   1_554     S
Er13     V116    10.001   1_455     S
Er13     V44    10.001   1_545     S
Er14     Er13    9.999   1_666     S
Er14     V67    10.001   1_556     S
Er14     V91    10.001   1_655     S
Er14     V55    10.001   1_565     S
Er15     Er16    9.999   .     S
Er15     V124    10.001   .     S
Er15     V47    10.001   .     S
Er15     V41    10.001   .     S
Er16     V81    10.001   .     S
Er16     V96    10.001   .     S
Er16     V66    10.001   .     S
Er17     Er18    9.999   .     S
Er17     V111    10.001   .     S
Er17     V50    10.001   .     S
Er17     V31    10.001   .     S
Er18     V85    10.001   .     S
Er18     V60    10.001   .     S
Er18     V78    10.001   .     S
Er19     Er20    9.999   .     S
Er19     V120    10.001   .     S
Er19     V108    10.001   .     S
Er19     V35    10.001   .     S
Er20     V87    10.001   .     S
Er20     V72    10.001   .     S
Er20     V102    10.001   .     S
Er21     Er22    9.999   1_655     S
Er21     V46    10.001   .     S
Er21     V106    10.001   .     S
Er21     V39    10.001   1_655     S
Er22     Er21    9.999   1_455     S
Er22     V86    10.001   1_455     S
Er22     V77    10.001   .     S
Er22     V59    10.001   .     S
Er23     Er24    9.999   .     S
Er23     V40    10.001   .     S
Er23     V105    10.001   .     S
Er23     V45    10.001   .     S
Er24     V69    10.001   .     S
Er24     V64    10.001   .     S
Er24     V80    10.001   .     S
Er25     Er26    9.999   1_556     S
Er25     V118    10.001   .     S
Er25     V54    10.001   .     S
Er25     V37    10.001   1_556     S
Er26     Er25    9.999   1_554     S
Er26     V95    10.001   .     S
Er26     V82    10.001   1_554     S
Er26     V65    10.001   .     S
Er27     Er28    9.999   .     S
Er27     V38    10.001   .     S
Er27     V53    10.001   .     S
Er27     V117    10.001   .     S
Er28     V57    10.001   .     S
Er28     V100    10.001   .     S
Er28     V90    10.001   .     S
Er29     Er30    9.999   1_565     S
Er29     V114    10.001   .     S
Er29     V126    10.001   .     S
Er29     V33    10.001   1_565     S
Er30     Er29    9.999   1_545     S
Er30     V71    10.001   .     S
Er30     V88    10.001   1_545     S
Er30     V101    10.001   .     S
V31     Ti143    10.0   .     S
V31     V32    10.0   .     S
V31     V33    10.0   .     S
V32     Ti140    10.0   .     S
V32     V38    10.0   .     S
V33     Er29    10.001   1_545     S
V33     Ti139    10.0   .     S
V33     V34    10.0   1_545     S
V34     Ti145    10.0   1_565     S
V34     V33    10.0   1_565     S
V34     V42    10.0   .     S
V34     Er151    10.001   .     S
V35     Ti132    10.0   .     S
V35     V36    10.0   .     S
V35     V37    10.0   .     S
V36     Ti138    10.0   .     S
V36     V40    10.0   .     S
V37     Er25    10.001   1_554     S
V37     Ti136    10.0   .     S
V37     V38    10.0   1_554     S
V38     Ti146    10.0   1_556     S
V38     V37    10.0   1_556     S
V39     Er21    10.001   1_455     S
V39     Ti141    10.0   .     S
V39     V40    10.0   1_455     S
V39     V41    10.0   .     S
V40     Ti144    10.0   1_655     S
V40     V39    10.0   1_655     S
V41     Ti127    10.0   .     S
V41     V42    10.0   .     S
V42     Ti135    10.0   .     S
V43     Ti150    10.0   .     S
V43     V44    10.0   1_545     S
V43     V49    10.0   .     S
V44     Er13    10.001   1_565     S
V44     Ti137    10.0   .     S
V44     V43    10.0   1_565     S
V44     V47    10.0   .     S
V45     Ti134    10.0   .     S
V45     V46    10.0   .     S
V45     V48    10.0   .     S
V46     Ti135    10.0   1_655     S
V46     V52    10.0   .     S
V47     Ti144    10.0   .     S
V47     V48    10.0   1_455     S
V48     Er9    10.001   1_655     S
V48     Ti147    10.0   1_565     S
V48     V47    10.0   1_655     S
V49     Er5    10.001   1_554     S
V49     Ti136    10.0   .     S
V49     V50    10.0   1_554     S
V50     Ti142    10.0   1_556     S
V50     V49    10.0   1_556     S
V50     V54    10.0   .     S
V51     Ti133    10.0   .     S
V51     V52    10.0   .     S
V51     V53    10.0   .     S
V52     Ti130    10.0   .     S
V53     Ti143    10.0   .     S
V53     V54    10.0   .     S
V54     Ti131    10.0   .     S
V55     Er14    10.001   1_545     S
V55     Ti146    10.0   1_556     S
V55     V56    10.0   1_545     S
V55     V57    10.0   .     S
V56     Ti140    10.0   1_565     S
V56     V55    10.0   1_565     S
V56     V63    10.0   .     S
V57     Ti148    10.0   1_655     S
V57     V58    10.0   1_655     S
V58     Er10    10.001   1_455     S
V58     Ti145    10.0   .     S
V58     V57    10.0   1_455     S
V58     V60    10.0   .     S
V59     Ti149    10.0   .     S
V59     V60    10.0   .     S
V59     V61    10.0   .     S
V60     Ti139    10.0   .     S
V61     Ti141    10.0   .     S
V61     V62    10.0   .     S
V62     Ti127    10.0   .     S
V62     V66    10.0   .     S
V63     Er6    10.001   1_556     S
V63     Ti128    10.0   .     S
V63     V64    10.0   1_556     S
V64     Ti138    10.0   .     S
V64     V63    10.0   1_554     S
V64     V65    10.0   .     S
V65     Ti132    10.0   .     S
V65     V66    10.0   .     S
V66     Ti129    10.0   .     S
V67     Er14    10.001   1_554     S
V67     Ti144    10.0   1_655     S
V67     V68    10.0   1_554     S
V67     V69    10.0   .     S
V68     Ti138    10.0   1_556     S
V68     V67    10.0   1_556     S
V68     V75    10.0   .     S
V69     Ti147    10.0   1_565     S
V69     V70    10.0   1_565     S
V70     Er6    10.001   1_545     S
V70     Ti146    10.0   .     S
V70     V69    10.0   1_545     S
V70     V72    10.0   .     S
V71     Ti150    10.0   .     S
V71     V72    10.0   .     S
V71     V73    10.0   .     S
V72     Ti136    10.0   .     S
V73     Ti139    10.0   .     S
V73     V74    10.0   .     S
V74     Ti143    10.0   .     S
V74     V78    10.0   .     S
V75     Er8    10.001   1_655     S
V75     Ti130    10.0   .     S
V75     V76    10.0   1_655     S
V76     Ti135    10.0   .     S
V76     V75    10.0   1_455     S
V76     V77    10.0   .     S
V76     Er152    10.001   .     S
V77     Ti127    10.0   .     S
V77     V78    10.0   .     S
V78     Ti131    10.0   .     S
V79     Ti150    10.0   1_565     S
V79     V80    10.0   .     S
V79     V81    10.0   .     S
V80     Ti129    10.0   .     S
V80     V88    10.0   .     S
V81     Ti137    10.0   .     S
V81     V82    10.0   1_554     S
V82     Er26    10.001   1_556     S
V82     Ti128    10.0   .     S
V82     V81    10.0   1_556     S
V82     V84    10.0   .     S
V83     Ti142    10.0   1_556     S
V83     V84    10.0   .     S
V83     V85    10.0   .     S
V84     Ti131    10.0   .     S
V84     Er152    10.001   .     S
V85     Ti148    10.0   .     S
V85     V86    10.0   1_455     S
V86     Er22    10.001   1_655     S
V86     Ti130    10.0   .     S
V86     V85    10.0   1_655     S
V86     V90    10.0   .     S
V87     Ti147    10.0   .     S
V87     V88    10.0   1_545     S
V87     V89    10.0   .     S
V88     Er30    10.001   1_565     S
V88     Ti134    10.0   .     S
V88     V87    10.0   1_565     S
V89     Ti149    10.0   1_655     S
V89     V90    10.0   .     S
V90     Ti133    10.0   .     S
V91     Er14    10.001   1_455     S
V91     Ti145    10.0   1_565     S
V91     V92    10.0   1_455     S
V91     V93    10.0   .     S
V92     Ti135    10.0   1_655     S
V92     V91    10.0   1_655     S
V92     V99    10.0   .     S
V93     Ti137    10.0   1_556     S
V93     V94    10.0   1_556     S
V93     Er152    10.001   .     S
V94     Er8    10.001   1_554     S
V94     Ti144    10.0   .     S
V94     V93    10.0   1_554     S
V94     V96    10.0   .     S
V95     Ti142    10.0   .     S
V95     V96    10.0   .     S
V95     V97    10.0   .     S
V96     Ti141    10.0   .     S
V97     Ti136    10.0   .     S
V97     V98    10.0   .     S
V98     Ti132    10.0   .     S
V98     V102    10.0   .     S
V99     Er10    10.001   1_565     S
V99     Ti134    10.0   .     S
V99     V100    10.0   1_565     S
V100     Ti140    10.0   .     S
V100     V99    10.0   1_545     S
V100     V101    10.0   .     S
V101     Ti143    10.0   .     S
V101     V102    10.0   .     S
V102     Ti133    10.0   .     S
V103     Ti129    10.0   .     S
V103     V104    10.0   .     S
V103     V105    10.0   .     S
V104     Ti134    10.0   .     S
V104     V114    10.0   .     S
V105     Ti132    10.0   .     S
V105     V106    10.0   .     S
V106     Ti133    10.0   .     S
V106     V108    10.0   .     S
V107     Er7    10.001   1_455     S
V107     Ti141    10.0   .     S
V107     V108    10.0   1_455     S
V107     V109    10.0   .     S
V108     Ti149    10.0   1_655     S
V108     V107    10.0   1_655     S
V109     Ti142    10.0   .     S
V109     V110    10.0   1_554     S
V110     Er13    10.001   1_556     S
V110     Ti148    10.0   .     S
V110     V109    10.0   1_556     S
V110     V111    10.0   .     S
V111     Ti145    10.0   .     S
V111     V112    10.0   1_545     S
V112     Er5    10.001   1_565     S
V112     Ti137    10.0   1_556     S
V112     V111    10.0   1_565     S
V112     V113    10.0   .     S
V113     Ti128    10.0   .     S
V113     V114    10.0   .     S
V113     Er151    10.001   .     S
V114     Ti140    10.0   1_565     S
V115     Ti149    10.0   .     S
V115     V116    10.0   1_455     S
V115     V123    10.0   .     S
V116     Er13    10.001   1_655     S
V116     Ti147    10.0   .     S
V116     V115    10.0   1_655     S
V116     V120    10.0   .     S
V117     Ti130    10.0   .     S
V117     V118    10.0   .     S
V117     V119    10.0   .     S
V118     Ti138    10.0   1_556     S
V118     V122    10.0   .     S
V119     Er7    10.001   1_556     S
V119     Ti148    10.0   1_655     S
V119     V120    10.0   1_556     S
V120     Ti146    10.0   .     S
V120     V119    10.0   1_554     S
V121     Ti131    10.0   .     S
V121     V122    10.0   .     S
V121     V125    10.0   .     S
V122     Ti128    10.0   .     S
V123     Er9    10.001   1_545     S
V123     Ti139    10.0   .     S
V123     V124    10.0   1_545     S
V124     Ti150    10.0   1_565     S
V124     V123    10.0   1_565     S
V124     V126    10.0   .     S
V125     Ti127    10.0   .     S
V125     V126    10.0   .     S
V125     Er151    10.001   .     S
V126     Ti129    10.0   .     S
Ti135     V46    10.0   1_455     S
Ti135     V92    10.0   1_455     S
Ti137     V93    10.0   1_554     S
Ti137     V112    10.0   1_554     S
Ti138     V68    10.0   1_554     S
Ti138     V118    10.0   1_554     S
Ti140     V56    10.0   1_545     S
Ti140     V114    10.0   1_545     S
Ti142     V50    10.0   1_554     S
Ti142     V83    10.0   1_554     S
Ti144     V40    10.0   1_455     S
Ti144     V67    10.0   1_455     S
Ti145     V34    10.0   1_545     S
Ti145     V91    10.0   1_545     S
Ti146     V38    10.0   1_554     S
Ti146     V55    10.0   1_554     S
Ti147     V48    10.0   1_545     S
Ti147     V69    10.0   1_545     S
Ti148     V57    10.0   1_455     S
Ti148     V119    10.0   1_455     S
Ti149     V89    10.0   1_455     S
Ti149     V108    10.0   1_455     S
Ti150     V79    10.0   1_545     S
Ti150     V124    10.0   1_545     S
Er151     Er152    9.999   .     S
