data_ckq
_audit_creation_date              2020-02-02
_audit_creation_method            'Pymatgen'
_symmetry_space_group_name_H-M    'P1'
_symmetry_Int_Tables_number       1
loop_
_symmetry_equiv_pos_as_xyz
  x,y,z
_cell_length_a                    87.8298
_cell_length_b                    87.8298
_cell_length_c                    87.8298
_cell_angle_alpha                 90.0
_cell_angle_beta                 90.0
_cell_angle_gamma                 90.0
loop_
_atom_site_label
_atom_site_type_symbol
_atom_site_fract_x
_atom_site_fract_y
_atom_site_fract_z
Ti1     Ti     0.8895   0.8406   0.7968
Er2     Er     0.9912   0.809   0.8056
V3     V     0.0861   0.768   0.839
Ti4     Ti     0.3895   0.3406   0.2968
Er5     Er     0.4912   0.309   0.3056
V6     V     0.5861   0.268   0.339
Ti7     Ti     0.2968   0.6105   0.1594
Er8     Er     0.3056   0.5088   0.191
V9     V     0.3389   0.4139   0.232
Ti10     Ti     0.1594   0.7032   0.8895
Er11     Er     0.191   0.6944   0.9912
V12     V     0.232   0.661   0.0861
Ti13     Ti     0.7968   0.1105   0.6594
Er14     Er     0.8056   0.0088   0.691
V15     V     0.839   0.9139   0.732
Ti16     Ti     0.6594   0.2032   0.3895
Er17     Er     0.691   0.1945   0.4912
V18     V     0.732   0.161   0.5861
Ti19     Ti     0.5906   0.1395   0.4532
Er20     Er     0.559   0.2412   0.4444
V21     V     0.518   0.3361   0.411
Ti22     Ti     0.4532   0.4094   0.3605
Er23     Er     0.4444   0.441   0.2588
V24     V     0.411   0.482   0.1639
Ti25     Ti     0.3605   0.5468   0.0906
Er26     Er     0.2588   0.5556   0.059
V27     V     0.1639   0.589   0.018
Ti28     Ti     0.8605   0.0468   0.5906
Er29     Er     0.7588   0.0555   0.559
V30     V     0.6639   0.089   0.518
Ti31     Ti     0.9532   0.9094   0.8605
Er32     Er     0.9444   0.941   0.7588
V33     V     0.911   0.982   0.6639
Ti34     Ti     0.0906   0.6395   0.9532
Er35     Er     0.059   0.7412   0.9444
V36     V     0.018   0.8361   0.911
Ti37     Ti     0.4532   0.5906   0.1395
Er38     Er     0.4444   0.559   0.2412
V39     V     0.411   0.518   0.3361
Ti40     Ti     0.3605   0.4532   0.4094
Er41     Er     0.2588   0.4444   0.441
V42     V     0.1639   0.411   0.482
Ti43     Ti     0.0906   0.3605   0.5468
Er44     Er     0.059   0.2588   0.5556
V45     V     0.018   0.1639   0.589
Ti46     Ti     0.5906   0.8605   0.0468
Er47     Er     0.559   0.7588   0.0555
V48     V     0.518   0.6639   0.089
Ti49     Ti     0.8605   0.9532   0.9094
Er50     Er     0.7588   0.9444   0.941
V51     V     0.6639   0.911   0.982
Ti52     Ti     0.9532   0.0906   0.6395
Er53     Er     0.9444   0.059   0.7412
V54     V     0.911   0.018   0.8361
Ti55     Ti     0.7968   0.8895   0.8406
Er56     Er     0.8056   0.9912   0.809
V57     V     0.839   0.0861   0.768
Ti58     Ti     0.2968   0.3895   0.3406
Er59     Er     0.3056   0.4912   0.309
V60     V     0.339   0.5861   0.268
Ti61     Ti     0.1594   0.2968   0.6105
Er62     Er     0.191   0.3056   0.5088
V63     V     0.232   0.3389   0.4139
Ti64     Ti     0.8895   0.1594   0.7032
Er65     Er     0.9912   0.191   0.6944
V66     V     0.0861   0.232   0.661
Ti67     Ti     0.6594   0.7968   0.1105
Er68     Er     0.691   0.8056   0.0088
V69     V     0.732   0.839   0.9139
Ti70     Ti     0.3895   0.6594   0.2032
Er71     Er     0.4912   0.691   0.1945
V72     V     0.5861   0.732   0.161
Ti73     Ti     0.1395   0.4532   0.5906
Er74     Er     0.2412   0.4444   0.559
V75     V     0.3361   0.411   0.518
Ti76     Ti     0.4094   0.3605   0.4532
Er77     Er     0.441   0.2588   0.4444
V78     V     0.482   0.1639   0.411
Ti79     Ti     0.5468   0.0906   0.3605
Er80     Er     0.5556   0.059   0.2588
V81     V     0.589   0.018   0.1639
Ti82     Ti     0.0468   0.5906   0.8605
Er83     Er     0.0555   0.559   0.7588
V84     V     0.089   0.518   0.6639
Ti85     Ti     0.9094   0.8605   0.9532
Er86     Er     0.941   0.7588   0.9444
V87     V     0.982   0.6639   0.911
Ti88     Ti     0.6395   0.9532   0.0906
Er89     Er     0.7412   0.9444   0.059
V90     V     0.8361   0.911   0.018
Ti91     Ti     0.1105   0.6594   0.7968
Er92     Er     0.0088   0.691   0.8056
V93     V     0.9139   0.732   0.839
Ti94     Ti     0.8406   0.7968   0.8895
Er95     Er     0.809   0.8056   0.9912
V96     V     0.768   0.839   0.0861
Ti97     Ti     0.2032   0.3895   0.6594
Er98     Er     0.1945   0.4912   0.691
V99     V     0.161   0.5861   0.732
Ti100     Ti     0.3406   0.2968   0.3895
Er101     Er     0.309   0.3056   0.4912
V102     V     0.268   0.3389   0.5861
Ti103     Ti     0.6105   0.1594   0.2968
Er104     Er     0.5088   0.191   0.3056
V105     V     0.4139   0.232   0.3389
Ti106     Ti     0.7032   0.8895   0.1594
Er107     Er     0.6944   0.9912   0.191
V108     V     0.661   0.0861   0.232
Ti109     Ti     0.6105   0.8406   0.2032
Er110     Er     0.5088   0.809   0.1945
V111     V     0.4139   0.768   0.161
Ti112     Ti     0.3406   0.7032   0.1105
Er113     Er     0.309   0.6944   0.0088
V114     V     0.268   0.661   0.9139
Ti115     Ti     0.7032   0.1105   0.3406
Er116     Er     0.6944   0.0088   0.309
V117     V     0.661   0.9139   0.268
Ti118     Ti     0.2032   0.6105   0.8406
Er119     Er     0.1945   0.5088   0.809
V120     V     0.161   0.4139   0.768
Ti121     Ti     0.8406   0.2032   0.6105
Er122     Er     0.809   0.1945   0.5088
V123     V     0.768   0.161   0.4139
Ti124     Ti     0.1105   0.3406   0.7032
Er125     Er     0.0088   0.309   0.6944
V126     V     0.9139   0.268   0.661
Ti127     Ti     0.0468   0.4094   0.6395
Er128     Er     0.0555   0.441   0.7412
V129     V     0.089   0.482   0.8361
Ti130     Ti     0.1395   0.5468   0.9094
Er131     Er     0.2412   0.5556   0.941
V132     V     0.3361   0.589   0.982
Ti133     Ti     0.4094   0.6395   0.0468
Er134     Er     0.441   0.7412   0.0555
V135     V     0.482   0.8361   0.089
Ti136     Ti     0.5468   0.9094   0.1395
Er137     Er     0.5556   0.941   0.2412
V138     V     0.589   0.982   0.3361
Ti139     Ti     0.9094   0.1395   0.5468
Er140     Er     0.941   0.2412   0.5556
V141     V     0.982   0.3361   0.589
Ti142     Ti     0.6395   0.0468   0.4094
Er143     Er     0.7412   0.0555   0.441
V144     V     0.8361   0.089   0.482
loop_
_geom_bond_atom_site_label_1
_geom_bond_atom_site_label_2
_geom_bond_distance
_geom_bond_site_symmetry_2
_ccdc_geom_bond_type
Ti1     Er2    9.387   .     S
Ti1     Ti55    9.974   .     S
Ti1     Ti31    9.961   .     S
Ti1     Ti94    9.974   .     S
Ti1     V15    9.676   .     S
Ti1     Er32    10.595   .     S
Ti1     V93    10.452   .     S
Er2     Er92    10.483   1_655     S
Er2     V36    9.851   1_655     S
Er2     V3    9.539   1_655     S
Er2     Ti31    10.595   .     S
Er2     V93    10.025   .     S
V3     Ti10    9.676   .     S
V3     Er35    9.851   .     S
V3     Er2    9.539   1_455     S
V3     Ti91    10.452   .     S
V3     Er92    10.025   .     S
V3     V36    10.564   .     S
Ti4     Er5    9.387   .     S
Ti4     Ti58    9.974   .     S
Ti4     Ti100    9.974   .     S
Ti4     Ti22    9.961   .     S
Ti4     V9    9.676   .     S
Ti4     Er23    10.595   .     S
Ti4     V105    10.452   .     S
Er5     Er104    10.483   .     S
Er5     V21    9.851   .     S
Er5     V6    9.539   .     S
Er5     Ti22    10.595   .     S
Er5     V105    10.025   .     S
V6     Ti16    9.676   .     S
V6     Er20    9.851   .     S
V6     Ti103    10.452   .     S
V6     Er104    10.025   .     S
V6     V21    10.564   .     S
Ti7     Er8    9.387   .     S
Ti7     Ti70    9.974   .     S
Ti7     Ti25    9.961   .     S
Ti7     Ti112    9.974   .     S
Ti7     V12    9.676   .     S
Ti7     Er26    10.595   .     S
Ti7     V60    10.452   .     S
Er8     Er59    10.483   .     S
Er8     V24    9.851   .     S
Er8     V9    9.539   .     S
Er8     Ti25    10.595   .     S
Er8     V60    10.025   .     S
V9     Er23    9.851   .     S
V9     Ti58    10.452   .     S
V9     Er59    10.025   .     S
V9     V24    10.564   .     S
Ti10     Er11    9.387   .     S
Ti10     Ti34    9.961   .     S
Ti10     Ti91    9.974   .     S
Ti10     Ti118    9.974   .     S
Ti10     Er35    10.595   .     S
Ti10     V114    10.452   .     S
Er11     Er113    10.483   1_556     S
Er11     V27    9.851   1_556     S
Er11     V12    9.539   1_556     S
Er11     Ti34    10.595   .     S
Er11     V114    10.025   .     S
V12     Er26    9.851   .     S
V12     Er11    9.539   1_554     S
V12     Ti112    10.452   .     S
V12     Er113    10.025   .     S
V12     V27    10.564   .     S
Ti13     Er14    9.387   .     S
Ti13     Ti64    9.974   .     S
Ti13     Ti28    9.961   .     S
Ti13     Ti121    9.974   .     S
Ti13     V18    9.676   .     S
Ti13     Er29    10.595   .     S
Ti13     V57    10.452   .     S
Er14     Er56    10.483   1_545     S
Er14     V33    9.851   1_545     S
Er14     V15    9.539   1_545     S
Er14     Ti28    10.595   .     S
Er14     V57    10.025   .     S
V15     Er32    9.851   .     S
V15     Er14    9.539   1_565     S
V15     Ti55    10.452   .     S
V15     Er56    10.025   .     S
V15     V33    10.564   .     S
Ti16     Er17    9.387   .     S
Ti16     Ti103    9.974   .     S
Ti16     Ti19    9.961   .     S
Ti16     Ti115    9.974   .     S
Ti16     Er20    10.595   .     S
Ti16     V123    10.452   .     S
Er17     Er122    10.483   .     S
Er17     V30    9.851   .     S
Er17     V18    9.539   .     S
Er17     Ti19    10.595   .     S
Er17     V123    10.025   .     S
V18     Er29    9.851   .     S
V18     Ti121    10.452   .     S
V18     Er122    10.025   .     S
V18     V30    10.564   .     S
Ti19     Er20    9.387   .     S
Ti19     Ti79    9.974   .     S
Ti19     Ti142    9.974   .     S
Ti19     V30    9.676   .     S
Ti19     V78    10.452   .     S
Er20     Er77    10.483   .     S
Er20     V21    9.539   .     S
Er20     V78    10.025   .     S
V21     Ti22    9.676   .     S
V21     Ti76    10.452   .     S
V21     Er77    10.025   .     S
Ti22     Er23    9.387   .     S
Ti22     Ti76    9.974   .     S
Ti22     Ti40    9.974   .     S
Ti22     V39    10.452   .     S
Er23     Er38    10.483   .     S
Er23     V24    9.539   .     S
Er23     V39    10.025   .     S
V24     Ti25    9.676   .     S
V24     Ti37    10.452   .     S
V24     Er38    10.025   .     S
Ti25     Er26    9.387   .     S
Ti25     Ti37    9.974   .     S
Ti25     Ti133    9.974   .     S
Ti25     V132    10.452   1_554     S
Er26     Er131    10.483   1_554     S
Er26     V27    9.539   .     S
Er26     V132    10.025   1_554     S
V27     Ti34    9.676   1_554     S
V27     Er11    9.851   1_554     S
V27     Ti130    10.452   1_554     S
V27     Er131    10.025   1_554     S
Ti28     Er29    9.387   .     S
Ti28     Ti52    9.974   .     S
Ti28     Ti139    9.974   .     S
Ti28     V33    9.676   1_545     S
Ti28     V144    10.452   .     S
Er29     Er143    10.483   .     S
Er29     V30    9.539   .     S
Er29     V144    10.025   .     S
V30     Ti142    10.452   .     S
V30     Er143    10.025   .     S
Ti31     Er32    9.387   .     S
Ti31     Ti85    9.974   .     S
Ti31     Ti49    9.974   .     S
Ti31     V36    9.676   1_655     S
Ti31     V54    10.452   1_565     S
Er32     Er53    10.483   1_565     S
Er32     V33    9.539   .     S
Er32     V54    10.025   1_565     S
V33     Ti28    9.676   1_565     S
V33     Er14    9.851   1_565     S
V33     Ti52    10.452   1_565     S
V33     Er53    10.025   1_565     S
Ti34     Er35    9.387   .     S
Ti34     Ti82    9.974   .     S
Ti34     Ti130    9.974   .     S
Ti34     V27    9.676   1_556     S
Ti34     V87    10.452   1_455     S
Er35     Er86    10.483   1_455     S
Er35     V36    9.539   .     S
Er35     V87    10.025   1_455     S
V36     Ti31    9.676   1_455     S
V36     Er2    9.851   1_455     S
V36     Ti85    10.452   1_455     S
V36     Er86    10.025   1_455     S
Ti37     Er38    9.387   .     S
Ti37     Ti133    9.974   .     S
Ti37     Ti70    9.961   .     S
Ti37     V48    9.676   .     S
Ti37     Er71    10.595   .     S
Er38     V60    9.851   .     S
Er38     V39    9.539   .     S
Er38     Ti70    10.595   .     S
V39     Ti40    9.676   .     S
V39     Er59    9.851   .     S
V39     V60    10.564   .     S
Ti40     Er41    9.387   .     S
Ti40     Ti76    9.974   .     S
Ti40     Ti58    9.961   .     S
Ti40     Er59    10.595   .     S
Ti40     V75    10.452   .     S
Er41     Er74    10.483   .     S
Er41     V63    9.851   .     S
Er41     V42    9.539   .     S
Er41     Ti58    10.595   .     S
Er41     V75    10.025   .     S
V42     Ti43    9.676   .     S
V42     Er62    9.851   .     S
V42     Ti73    10.452   .     S
V42     Er74    10.025   .     S
V42     V63    10.564   .     S
Ti43     Er44    9.387   .     S
Ti43     Ti73    9.974   .     S
Ti43     Ti127    9.974   .     S
Ti43     Ti61    9.961   .     S
Ti43     Er62    10.595   .     S
Ti43     V141    10.452   1_455     S
Er44     Er140    10.483   1_455     S
Er44     V66    9.851   .     S
Er44     V45    9.539   .     S
Er44     Ti61    10.595   .     S
Er44     V141    10.025   1_455     S
V45     Ti52    9.676   1_455     S
V45     Er65    9.851   1_455     S
V45     Ti139    10.452   1_455     S
V45     Er140    10.025   1_455     S
V45     V66    10.564   .     S
Ti46     Er47    9.387   .     S
Ti46     Ti88    9.974   .     S
Ti46     Ti136    9.974   .     S
Ti46     Ti67    9.961   .     S
Ti46     V51    9.676   1_554     S
Ti46     Er68    10.595   .     S
Ti46     V135    10.452   .     S
Er47     Er134    10.483   .     S
Er47     V72    9.851   .     S
Er47     V48    9.539   .     S
Er47     Ti67    10.595   .     S
Er47     V135    10.025   .     S
V48     Er71    9.851   .     S
V48     Ti133    10.452   .     S
V48     Er134    10.025   .     S
V48     V72    10.564   .     S
Ti49     Er50    9.387   .     S
Ti49     Ti85    9.974   .     S
Ti49     Ti55    9.961   .     S
Ti49     V54    9.676   1_565     S
Ti49     Er56    10.595   .     S
Ti49     V90    10.452   1_556     S
Er50     Er89    10.483   1_556     S
Er50     V69    9.851   .     S
Er50     V51    9.539   .     S
Er50     Ti55    10.595   .     S
Er50     V90    10.025   1_556     S
V51     Ti46    9.676   1_556     S
V51     Er68    9.851   1_556     S
V51     Ti88    10.452   1_556     S
V51     Er89    10.025   1_556     S
V51     V69    10.564   .     S
Ti52     Er53    9.387   .     S
Ti52     Ti139    9.974   .     S
Ti52     Ti64    9.961   .     S
Ti52     V45    9.676   1_655     S
Ti52     Er65    10.595   .     S
Ti52     V33    10.452   1_545     S
Er53     Er32    10.483   1_545     S
Er53     V57    9.851   .     S
Er53     V54    9.539   .     S
Er53     Ti64    10.595   .     S
Er53     V33    10.025   1_545     S
V54     Ti49    9.676   1_545     S
V54     Er56    9.851   1_545     S
V54     Ti31    10.452   1_545     S
V54     Er32    10.025   1_545     S
V54     V57    10.564   .     S
Ti55     Er56    9.387   .     S
Ti55     Ti94    9.974   .     S
Ti55     V69    9.676   .     S
Er56     Er14    10.483   1_565     S
Er56     V54    9.851   1_565     S
Er56     V57    9.539   1_565     S
V57     Ti64    9.676   .     S
V57     Er56    9.539   1_545     S
Ti58     Er59    9.387   .     S
Ti58     Ti100    9.974   .     S
Ti58     V63    9.676   .     S
Er59     V60    9.539   .     S
V60     Ti70    9.676   .     S
Ti61     Er62    9.387   .     S
Ti61     Ti97    9.974   .     S
Ti61     Ti124    9.974   .     S
Ti61     V66    9.676   .     S
Ti61     V102    10.452   .     S
Er62     Er101    10.483   .     S
Er62     V63    9.539   .     S
Er62     V102    10.025   .     S
V63     Ti100    10.452   .     S
V63     Er101    10.025   .     S
Ti64     Er65    9.387   .     S
Ti64     Ti121    9.974   .     S
Ti64     V126    10.452   .     S
Er65     Er125    10.483   1_655     S
Er65     V45    9.851   1_655     S
Er65     V66    9.539   1_655     S
Er65     V126    10.025   .     S
V66     Er65    9.539   1_455     S
V66     Ti124    10.452   .     S
V66     Er125    10.025   .     S
Ti67     Er68    9.387   .     S
Ti67     Ti109    9.974   .     S
Ti67     Ti106    9.974   .     S
Ti67     V72    9.676   .     S
Ti67     V96    10.452   .     S
Er68     Er95    10.483   1_554     S
Er68     V51    9.851   1_554     S
Er68     V69    9.539   1_554     S
Er68     V96    10.025   .     S
V69     Er68    9.539   1_556     S
V69     Ti94    10.452   .     S
V69     Er95    10.025   .     S
Ti70     Er71    9.387   .     S
Ti70     Ti112    9.974   .     S
Ti70     V111    10.452   .     S
Er71     Er110    10.483   .     S
Er71     V72    9.539   .     S
Er71     V111    10.025   .     S
V72     Ti109    10.452   .     S
V72     Er110    10.025   .     S
Ti73     Er74    9.387   .     S
Ti73     Ti127    9.974   .     S
Ti73     Ti97    9.961   .     S
Ti73     V84    9.676   .     S
Ti73     Er98    10.595   .     S
Er74     V102    9.851   .     S
Er74     V75    9.539   .     S
Er74     Ti97    10.595   .     S
V75     Ti76    9.676   .     S
V75     Er101    9.851   .     S
V75     V102    10.564   .     S
Ti76     Er77    9.387   .     S
Ti76     Ti100    9.961   .     S
Ti76     Er101    10.595   .     S
Er77     V105    9.851   .     S
Er77     V78    9.539   .     S
Er77     Ti100    10.595   .     S
V78     Ti79    9.676   .     S
V78     Er104    9.851   .     S
V78     V105    10.564   .     S
Ti79     Er80    9.387   .     S
Ti79     Ti142    9.974   .     S
Ti79     Ti103    9.961   .     S
Ti79     Er104    10.595   .     S
Ti79     V138    10.452   1_545     S
Er80     Er137    10.483   1_545     S
Er80     V108    9.851   .     S
Er80     V81    9.539   .     S
Er80     Ti103    10.595   .     S
Er80     V138    10.025   1_545     S
V81     Ti88    9.676   1_545     S
V81     Er107    9.851   1_545     S
V81     Ti136    10.452   1_545     S
V81     Er137    10.025   1_545     S
V81     V108    10.564   .     S
Ti82     Er83    9.387   .     S
Ti82     Ti130    9.974   .     S
Ti82     Ti91    9.961   .     S
Ti82     V87    9.676   1_455     S
Ti82     Er92    10.595   .     S
Ti82     V129    10.452   .     S
Er83     Er128    10.483   .     S
Er83     V99    9.851   .     S
Er83     V84    9.539   .     S
Er83     Ti91    10.595   .     S
Er83     V129    10.025   .     S
V84     Er98    9.851   .     S
V84     Ti127    10.452   .     S
V84     Er128    10.025   .     S
V84     V99    10.564   .     S
Ti85     Er86    9.387   .     S
Ti85     Ti94    9.961   .     S
Ti85     V90    9.676   1_556     S
Ti85     Er95    10.595   .     S
Ti85     V36    10.452   1_655     S
Er86     Er35    10.483   1_655     S
Er86     V93    9.851   .     S
Er86     V87    9.539   .     S
Er86     Ti94    10.595   .     S
Er86     V36    10.025   1_655     S
V87     Ti82    9.676   1_655     S
V87     Er92    9.851   1_655     S
V87     Ti34    10.452   1_655     S
V87     Er35    10.025   1_655     S
V87     V93    10.564   .     S
Ti88     Er89    9.387   .     S
Ti88     Ti136    9.974   .     S
Ti88     Ti106    9.961   .     S
Ti88     V81    9.676   1_565     S
Ti88     Er107    10.595   .     S
Ti88     V51    10.452   1_554     S
Er89     Er50    10.483   1_554     S
Er89     V96    9.851   .     S
Er89     V90    9.539   .     S
Er89     Ti106    10.595   .     S
Er89     V51    10.025   1_554     S
V90     Ti85    9.676   1_554     S
V90     Er95    9.851   1_554     S
V90     Ti49    10.452   1_554     S
V90     Er50    10.025   1_554     S
V90     V96    10.564   .     S
Ti91     Er92    9.387   .     S
Ti91     Ti118    9.974   .     S
Ti91     V99    9.676   .     S
Er92     Er2    10.483   1_455     S
Er92     V87    9.851   1_455     S
Er92     V93    9.539   1_455     S
V93     Ti94    9.676   .     S
V93     Er92    9.539   1_655     S
Ti94     Er95    9.387   .     S
Er95     Er68    10.483   1_556     S
Er95     V90    9.851   1_556     S
Er95     V96    9.539   1_556     S
V96     Ti106    9.676   .     S
V96     Er95    9.539   1_554     S
Ti97     Er98    9.387   .     S
Ti97     Ti124    9.974   .     S
Ti97     V102    9.676   .     S
Ti97     V120    10.452   .     S
Er98     Er119    10.483   .     S
Er98     V99    9.539   .     S
Er98     V120    10.025   .     S
V99     Ti118    10.452   .     S
V99     Er119    10.025   .     S
Ti100     Er101    9.387   .     S
Ti100     V105    9.676   .     S
Er101     V102    9.539   .     S
Ti103     Er104    9.387   .     S
Ti103     Ti115    9.974   .     S
Ti103     V108    9.676   .     S
Er104     V105    9.539   .     S
Ti106     Er107    9.387   .     S
Ti106     Ti109    9.974   .     S
Ti106     V117    10.452   .     S
Er107     Er116    10.483   1_565     S
Er107     V81    9.851   1_565     S
Er107     V108    9.539   1_565     S
Er107     V117    10.025   .     S
V108     Er107    9.539   1_545     S
V108     Ti115    10.452   .     S
V108     Er116    10.025   .     S
Ti109     Er110    9.387   .     S
Ti109     Ti136    9.961   .     S
Ti109     V117    9.676   .     S
Ti109     Er137    10.595   .     S
Er110     V135    9.851   .     S
Er110     V111    9.539   .     S
Er110     Ti136    10.595   .     S
V111     Ti112    9.676   .     S
V111     Er134    9.851   .     S
V111     V135    10.564   .     S
Ti112     Er113    9.387   .     S
Ti112     Ti133    9.961   .     S
Ti112     Er134    10.595   .     S
Er113     Er11    10.483   1_554     S
Er113     V132    9.851   1_554     S
Er113     V114    9.539   1_554     S
Er113     Ti133    10.595   .     S
V114     Ti118    9.676   .     S
V114     Er131    9.851   .     S
V114     Er113    9.539   1_556     S
V114     V132    10.564   .     S
Ti115     Er116    9.387   .     S
Ti115     Ti142    9.961   .     S
Ti115     V123    9.676   .     S
Ti115     Er143    10.595   .     S
Er116     Er107    10.483   1_545     S
Er116     V138    9.851   1_545     S
Er116     V117    9.539   1_545     S
Er116     Ti142    10.595   .     S
V117     Er137    9.851   .     S
V117     Er116    9.539   1_565     S
V117     V138    10.564   .     S
Ti118     Er119    9.387   .     S
Ti118     Ti130    9.961   .     S
Ti118     Er131    10.595   .     S
Er119     V129    9.851   .     S
Er119     V120    9.539   .     S
Er119     Ti130    10.595   .     S
V120     Ti124    9.676   .     S
V120     Er128    9.851   .     S
V120     V129    10.564   .     S
Ti121     Er122    9.387   .     S
Ti121     Ti139    9.961   .     S
Ti121     V126    9.676   .     S
Ti121     Er140    10.595   .     S
Er122     V144    9.851   .     S
Er122     V123    9.539   .     S
Er122     Ti139    10.595   .     S
V123     Er143    9.851   .     S
V123     V144    10.564   .     S
Ti124     Er125    9.387   .     S
Ti124     Ti127    9.961   .     S
Ti124     Er128    10.595   .     S
Er125     Er65    10.483   1_455     S
Er125     V141    9.851   1_455     S
Er125     V126    9.539   1_455     S
Er125     Ti127    10.595   .     S
V126     Er140    9.851   .     S
V126     Er125    9.539   1_655     S
V126     V141    10.564   .     S
Ti127     Er128    9.387   .     S
Ti127     V141    9.676   1_455     S
Er128     V129    9.539   .     S
V129     Ti130    9.676   .     S
Ti130     Er131    9.387   .     S
Ti130     V27    10.452   1_556     S
Er131     Er26    10.483   1_556     S
Er131     V132    9.539   .     S
Er131     V27    10.025   1_556     S
V132     Ti133    9.676   1_556     S
V132     Er113    9.851   1_556     S
V132     Ti25    10.452   1_556     S
V132     Er26    10.025   1_556     S
Ti133     Er134    9.387   .     S
Ti133     V132    9.676   1_554     S
Er134     V135    9.539   .     S
V135     Ti136    9.676   .     S
Ti136     Er137    9.387   .     S
Ti136     V81    10.452   1_565     S
Er137     Er80    10.483   1_565     S
Er137     V138    9.539   .     S
Er137     V81    10.025   1_565     S
V138     Ti142    9.676   1_565     S
V138     Er116    9.851   1_565     S
V138     Ti79    10.452   1_565     S
V138     Er80    10.025   1_565     S
Ti139     Er140    9.387   .     S
Ti139     V144    9.676   .     S
Ti139     V45    10.452   1_655     S
Er140     Er44    10.483   1_655     S
Er140     V141    9.539   .     S
Er140     V45    10.025   1_655     S
V141     Ti127    9.676   1_655     S
V141     Er125    9.851   1_655     S
V141     Ti43    10.452   1_655     S
V141     Er44    10.025   1_655     S
Ti142     Er143    9.387   .     S
Ti142     V138    9.676   1_545     S
Er143     V144    9.539   .     S
