data_cla
_audit_creation_date              2020-02-02
_audit_creation_method            'Pymatgen'
_symmetry_space_group_name_H-M    'P1'
_symmetry_Int_Tables_number       1
loop_
_symmetry_equiv_pos_as_xyz
  x,y,z
_cell_length_a                    52.5629
_cell_length_b                    52.5629
_cell_length_c                    52.5629
_cell_angle_alpha                 90.0
_cell_angle_beta                 90.0
_cell_angle_gamma                 90.0
loop_
_atom_site_label
_atom_site_type_symbol
_atom_site_fract_x
_atom_site_fract_y
_atom_site_fract_z
Er1     Er     0.3902   0.6098   0.6098
Er2     Er     0.6098   0.3902   0.6098
Er3     Er     0.6098   0.6098   0.3902
Er4     Er     0.3902   0.3902   0.3902
V5     V     0.5   0.5   0.5
Er6     Er     0.8902   0.1098   0.1098
Er7     Er     0.8902   0.8902   0.8902
Er8     Er     0.1098   0.8902   0.1098
Er9     Er     0.1098   0.1098   0.8902
V10     V     0.0   0.0   0.0
Ce11     Ce     0.9738   0.2352   0.3697
Ce12     Ce     0.2352   0.9738   0.3697
Ce13     Ce     0.0262   0.7648   0.3697
Ce14     Ce     0.7648   0.0262   0.3697
Ti15     Ti     0.9327   0.0673   0.2903
Ti16     Ti     0.0673   0.9327   0.2903
Ce17     Ce     0.3697   0.9738   0.2352
Ce18     Ce     0.3697   0.2352   0.9738
Ce19     Ce     0.3697   0.0262   0.7648
Ce20     Ce     0.3697   0.7648   0.0262
Ti21     Ti     0.2903   0.9327   0.0673
Ti22     Ti     0.2903   0.0673   0.9327
Ce23     Ce     0.9738   0.3697   0.2352
Ce24     Ce     0.2352   0.3697   0.9738
Ce25     Ce     0.0262   0.3697   0.7648
Ce26     Ce     0.7648   0.3697   0.0262
Ti27     Ti     0.9327   0.2903   0.0673
Ti28     Ti     0.0673   0.2903   0.9327
Ce29     Ce     0.7352   0.5262   0.1303
Ce30     Ce     0.4738   0.2648   0.1303
Ce31     Ce     0.5262   0.7352   0.1303
Ce32     Ce     0.2648   0.4738   0.1303
Ti33     Ti     0.4327   0.4327   0.2097
Ti34     Ti     0.5673   0.5673   0.2097
Ce35     Ce     0.5262   0.1303   0.7352
Ce36     Ce     0.4738   0.1303   0.2648
Ce37     Ce     0.7352   0.1303   0.5262
Ce38     Ce     0.2648   0.1303   0.4738
Ti39     Ti     0.4327   0.2097   0.4327
Ti40     Ti     0.5673   0.2097   0.5673
Ce41     Ce     0.8697   0.5262   0.2648
Ce42     Ce     0.8697   0.4738   0.7352
Ce43     Ce     0.8697   0.2648   0.5262
Ce44     Ce     0.8697   0.7352   0.4738
Ti45     Ti     0.7903   0.5673   0.4327
Ti46     Ti     0.7903   0.4327   0.5673
Ce47     Ce     0.0262   0.2352   0.6303
Ce48     Ce     0.2352   0.0262   0.6303
Ce49     Ce     0.9738   0.7648   0.6303
Ce50     Ce     0.7648   0.9738   0.6303
Ti51     Ti     0.0673   0.0673   0.7097
Ti52     Ti     0.9327   0.9327   0.7097
Ce53     Ce     0.5262   0.8697   0.2648
Ce54     Ce     0.4738   0.8697   0.7352
Ce55     Ce     0.7352   0.8697   0.4738
Ce56     Ce     0.2648   0.8697   0.5262
Ti57     Ti     0.5673   0.7903   0.4327
Ti58     Ti     0.4327   0.7903   0.5673
Ce59     Ce     0.6303   0.0262   0.2352
Ce60     Ce     0.6303   0.2352   0.0262
Ce61     Ce     0.6303   0.9738   0.7648
Ce62     Ce     0.6303   0.7648   0.9738
Ti63     Ti     0.7097   0.0673   0.0673
Ti64     Ti     0.7097   0.9327   0.9327
Ce65     Ce     0.0262   0.6303   0.2352
Ce66     Ce     0.2352   0.6303   0.0262
Ce67     Ce     0.9738   0.6303   0.7648
Ce68     Ce     0.7648   0.6303   0.9738
Ti69     Ti     0.0673   0.7097   0.0673
Ti70     Ti     0.9327   0.7097   0.9327
Ce71     Ce     0.4738   0.7352   0.8697
Ce72     Ce     0.5262   0.2648   0.8697
Ce73     Ce     0.7352   0.4738   0.8697
Ce74     Ce     0.2648   0.5262   0.8697
Ti75     Ti     0.4327   0.5673   0.7903
Ti76     Ti     0.5673   0.4327   0.7903
Ce77     Ce     0.1303   0.5262   0.7352
Ce78     Ce     0.1303   0.4738   0.2648
Ce79     Ce     0.1303   0.7352   0.5262
Ce80     Ce     0.1303   0.2648   0.4738
Ti81     Ti     0.2097   0.4327   0.4327
Ti82     Ti     0.2097   0.5673   0.5673
loop_
_geom_bond_atom_site_label_1
_geom_bond_atom_site_label_2
_geom_bond_distance
_geom_bond_site_symmetry_2
_ccdc_geom_bond_type
Er1     Ti58    10.0   .     S
Er1     Ti75    10.0   .     S
Er1     Ti82    10.0   .     S
Er1     V5    10.0   .     S
Er2     Ti46    10.0   .     S
Er2     Ti76    10.0   .     S
Er2     Ti40    10.0   .     S
Er2     V5    10.0   .     S
Er3     Ti45    10.0   .     S
Er3     Ti57    10.0   .     S
Er3     Ti34    10.0   .     S
Er3     V5    10.0   .     S
Er4     Ti81    10.0   .     S
Er4     Ti39    10.0   .     S
Er4     Ti33    10.0   .     S
Er4     V5    10.0   .     S
Er6     Ti27    10.0   .     S
Er6     Ti15    10.0   .     S
Er6     Ti63    10.0   .     S
Er6     V10    10.0   1_655     S
Er7     Ti64    10.0   .     S
Er7     Ti70    10.0   .     S
Er7     Ti52    10.0   .     S
Er7     V10    10.0   1_666     S
Er8     Ti21    10.0   .     S
Er8     Ti16    10.0   .     S
Er8     Ti69    10.0   .     S
Er8     V10    10.0   1_565     S
Er9     Ti22    10.0   .     S
Er9     Ti28    10.0   .     S
Er9     Ti51    10.0   .     S
Er9     V10    10.0   1_556     S
V10     Er9    10.0   1_554     S
V10     Er8    10.0   1_545     S
V10     Er7    10.0   1_444     S
V10     Er6    10.0   1_455     S
Ce11     Ti15    10.0   .     S
Ce11     Ce43    10.0   .     S
Ce11     Ce80    10.0   1_655     S
Ce11     Ce23    10.0   .     S
Ce12     Ti16    10.0   .     S
Ce12     Ce38    10.0   1_565     S
Ce12     Ce56    10.0   .     S
Ce12     Ce17    10.0   .     S
Ce13     Ti16    10.0   .     S
Ce13     Ce44    10.0   1_455     S
Ce13     Ce79    10.0   .     S
Ce13     Ce65    10.0   .     S
Ce14     Ti15    10.0   .     S
Ce14     Ce37    10.0   .     S
Ce14     Ce55    10.0   1_545     S
Ce14     Ce59    10.0   .     S
Ti15     Ti16    10.0   1_645     S
Ti16     Ti15    10.0   1_465     S
Ce17     Ti21    10.0   .     S
Ce17     Ce36    10.0   1_565     S
Ce17     Ce53    10.0   .     S
Ce18     Ti22    10.0   .     S
Ce18     Ce30    10.0   1_556     S
Ce18     Ce72    10.0   .     S
Ce18     Ce24    10.0   .     S
Ce19     Ti22    10.0   .     S
Ce19     Ce35    10.0   .     S
Ce19     Ce54    10.0   1_545     S
Ce19     Ce48    10.0   .     S
Ce20     Ti21    10.0   .     S
Ce20     Ce31    10.0   .     S
Ce20     Ce71    10.0   1_554     S
Ce20     Ce66    10.0   .     S
Ti21     Ti22    10.0   1_564     S
Ti22     Ti21    10.0   1_546     S
Ce23     Ti27    10.0   .     S
Ce23     Ce41    10.0   .     S
Ce23     Ce78    10.0   1_655     S
Ce24     Ti28    10.0   .     S
Ce24     Ce32    10.0   1_556     S
Ce24     Ce74    10.0   .     S
Ce25     Ti28    10.0   .     S
Ce25     Ce42    10.0   1_455     S
Ce25     Ce77    10.0   .     S
Ce25     Ce47    10.0   .     S
Ce26     Ti27    10.0   .     S
Ce26     Ce29    10.0   .     S
Ce26     Ce73    10.0   1_554     S
Ce26     Ce60    10.0   .     S
Ti27     Ti28    10.0   1_654     S
Ti28     Ti27    10.0   1_456     S
Ce29     Ti34    10.0   .     S
Ce29     Ce68    10.0   1_554     S
Ce29     Ce41    10.0   .     S
Ce30     Ti33    10.0   .     S
Ce30     Ce18    10.0   1_554     S
Ce30     Ce60    10.0   .     S
Ce30     Ce36    10.0   .     S
Ce31     Ti34    10.0   .     S
Ce31     Ce62    10.0   1_554     S
Ce31     Ce53    10.0   .     S
Ce32     Ti33    10.0   .     S
Ce32     Ce24    10.0   1_554     S
Ce32     Ce66    10.0   .     S
Ce32     Ce78    10.0   .     S
Ti33     Ti34    10.0   .     S
Ce35     Ti40    10.0   .     S
Ce35     Ce61    10.0   1_545     S
Ce35     Ce72    10.0   .     S
Ce36     Ti39    10.0   .     S
Ce36     Ce17    10.0   1_545     S
Ce36     Ce59    10.0   .     S
Ce37     Ti40    10.0   .     S
Ce37     Ce50    10.0   1_545     S
Ce37     Ce43    10.0   .     S
Ce38     Ti39    10.0   .     S
Ce38     Ce12    10.0   1_545     S
Ce38     Ce48    10.0   .     S
Ce38     Ce80    10.0   .     S
Ti39     Ti40    10.0   .     S
Ce41     Ti45    10.0   .     S
Ce41     Ce65    10.0   1_655     S
Ce42     Ti46    10.0   .     S
Ce42     Ce25    10.0   1_655     S
Ce42     Ce67    10.0   .     S
Ce42     Ce73    10.0   .     S
Ce43     Ti46    10.0   .     S
Ce43     Ce47    10.0   1_655     S
Ce44     Ti45    10.0   .     S
Ce44     Ce13    10.0   1_655     S
Ce44     Ce49    10.0   .     S
Ce44     Ce55    10.0   .     S
Ti45     Ti46    10.0   .     S
Ce47     Ce43    10.0   1_455     S
Ce47     Ti51    10.0   .     S
Ce47     Ce80    10.0   .     S
Ce48     Ti51    10.0   .     S
Ce48     Ce56    10.0   1_545     S
Ce49     Ti52    10.0   .     S
Ce49     Ce79    10.0   1_655     S
Ce49     Ce67    10.0   .     S
Ce50     Ce37    10.0   1_565     S
Ce50     Ti52    10.0   .     S
Ce50     Ce55    10.0   .     S
Ce50     Ce61    10.0   .     S
Ti51     Ti52    10.0   1_445     S
Ti52     Ti51    10.0   1_665     S
Ce53     Ti57    10.0   .     S
Ce53     Ce59    10.0   1_565     S
Ce54     Ti58    10.0   .     S
Ce54     Ce19    10.0   1_565     S
Ce54     Ce61    10.0   .     S
Ce54     Ce71    10.0   .     S
Ce55     Ti57    10.0   .     S
Ce55     Ce14    10.0   1_565     S
Ce56     Ti58    10.0   .     S
Ce56     Ce48    10.0   1_565     S
Ce56     Ce79    10.0   .     S
Ti57     Ti58    10.0   .     S
Ce59     Ce53    10.0   1_545     S
Ce59     Ti63    10.0   .     S
Ce60     Ti63    10.0   .     S
Ce60     Ce72    10.0   1_554     S
Ce61     Ce35    10.0   1_565     S
Ce61     Ti64    10.0   .     S
Ce62     Ce31    10.0   1_556     S
Ce62     Ti64    10.0   .     S
Ce62     Ce71    10.0   .     S
Ce62     Ce68    10.0   .     S
Ti63     Ti64    10.0   1_544     S
Ti64     Ti63    10.0   1_566     S
Ce65     Ce41    10.0   1_455     S
Ce65     Ti69    10.0   .     S
Ce65     Ce78    10.0   .     S
Ce66     Ti69    10.0   .     S
Ce66     Ce74    10.0   1_554     S
Ce67     Ti70    10.0   .     S
Ce67     Ce77    10.0   1_655     S
Ce68     Ce29    10.0   1_556     S
Ce68     Ti70    10.0   .     S
Ce68     Ce73    10.0   .     S
Ti69     Ti70    10.0   1_454     S
Ti70     Ti69    10.0   1_656     S
Ce71     Ti75    10.0   .     S
Ce71     Ce20    10.0   1_556     S
Ce72     Ti76    10.0   .     S
Ce72     Ce60    10.0   1_556     S
Ce73     Ti76    10.0   .     S
Ce73     Ce26    10.0   1_556     S
Ce74     Ti75    10.0   .     S
Ce74     Ce66    10.0   1_556     S
Ce74     Ce77    10.0   .     S
Ti75     Ti76    10.0   .     S
Ce77     Ti82    10.0   .     S
Ce77     Ce67    10.0   1_455     S
Ce78     Ti81    10.0   .     S
Ce78     Ce23    10.0   1_455     S
Ce79     Ti82    10.0   .     S
Ce79     Ce49    10.0   1_455     S
Ce80     Ti81    10.0   .     S
Ce80     Ce11    10.0   1_455     S
Ti81     Ti82    10.0   .     S
