data_clj
_audit_creation_date              2020-02-02
_audit_creation_method            'Pymatgen'
_symmetry_space_group_name_H-M    'P1'
_symmetry_Int_Tables_number       1
loop_
_symmetry_equiv_pos_as_xyz
  x,y,z
_cell_length_a                    52.3286
_cell_length_b                    52.3286
_cell_length_c                    142.2396
_cell_angle_alpha                 90.0
_cell_angle_beta                 90.0
_cell_angle_gamma                 90.0
loop_
_atom_site_label
_atom_site_type_symbol
_atom_site_fract_x
_atom_site_fract_y
_atom_site_fract_z
Ti1     Ti     0.9044   0.0954   0.1114
Ti2     Ti     0.9044   0.9046   0.1114
Ce3     Ce     0.775   0.0954   0.1631
Ce4     Ce     0.775   0.9046   0.1631
Ti5     Ti     0.0956   0.0954   0.1114
Ti6     Ti     0.0956   0.9046   0.1114
Ce7     Ce     0.225   0.0954   0.1631
Ce8     Ce     0.225   0.9046   0.1631
Ti9     Ti     0.0954   0.9044   0.3887
Ti10     Ti     0.9046   0.9044   0.3886
Ce11     Ce     0.0954   0.775   0.3369
Ce12     Ce     0.9046   0.775   0.3369
H13     H     0.9044   0.0954   0.2148
H14     H     0.9044   0.9046   0.2148
H15     H     0.0956   0.0954   0.2148
H16     H     0.0956   0.9046   0.2148
H17     H     0.0954   0.9044   0.2852
H18     H     0.9046   0.9044   0.2852
H19     H     0.0954   0.0956   0.2852
H20     H     0.9046   0.0956   0.2852
Ti21     Ti     0.0954   0.0956   0.3886
Ti22     Ti     0.9046   0.0956   0.3887
Ce23     Ce     0.0954   0.225   0.3369
Ce24     Ce     0.9046   0.225   0.3369
Ti25     Ti     0.9044   0.0954   0.8886
Ti26     Ti     0.9044   0.9046   0.8886
Ce27     Ce     0.775   0.0954   0.8369
Ce28     Ce     0.775   0.9046   0.8369
Ti29     Ti     0.0956   0.0954   0.8886
Ti30     Ti     0.0956   0.9046   0.8886
Ce31     Ce     0.225   0.0954   0.8369
Ce32     Ce     0.225   0.9046   0.8369
Ti33     Ti     0.0954   0.9044   0.6113
Ti34     Ti     0.9046   0.9044   0.6114
Ce35     Ce     0.0954   0.775   0.6631
Ce36     Ce     0.9046   0.775   0.6631
H37     H     0.0954   0.9044   0.7148
H38     H     0.9046   0.9044   0.7148
H39     H     0.0954   0.0956   0.7148
H40     H     0.9046   0.0956   0.7148
H41     H     0.9044   0.0954   0.7852
H42     H     0.9044   0.9046   0.7852
H43     H     0.0956   0.0954   0.7852
H44     H     0.0956   0.9046   0.7852
Ti45     Ti     0.0954   0.0956   0.6114
Ti46     Ti     0.9046   0.0956   0.6113
Ce47     Ce     0.0954   0.225   0.6631
Ce48     Ce     0.9046   0.225   0.6631
V49     V     0.0954   0.5957   0.6386
V50     V     0.9046   0.5957   0.6386
Er51     Er     0.0954   0.725   0.5869
Er52     Er     0.9046   0.725   0.5869
V53     V     0.0954   0.5957   0.3614
V54     V     0.9046   0.5957   0.3614
Er55     Er     0.0954   0.725   0.4131
Er56     Er     0.9046   0.725   0.4131
V57     V     0.0954   0.4043   0.3614
V58     V     0.9046   0.4043   0.3614
Er59     Er     0.0954   0.275   0.4131
Er60     Er     0.9046   0.275   0.4131
S61     S     0.0954   0.5956   0.4648
S62     S     0.9046   0.5956   0.4648
S63     S     0.0954   0.4044   0.4648
S64     S     0.9046   0.4044   0.4648
S65     S     0.0954   0.5956   0.5352
S66     S     0.9046   0.5956   0.5352
S67     S     0.0954   0.4044   0.5352
S68     S     0.9046   0.4044   0.5352
V69     V     0.0954   0.4043   0.6386
V70     V     0.9046   0.4043   0.6386
Er71     Er     0.0954   0.275   0.5869
Er72     Er     0.9046   0.275   0.5869
V73     V     0.5957   0.0954   0.8614
V74     V     0.5957   0.9046   0.8614
Er75     Er     0.725   0.0954   0.9131
Er76     Er     0.725   0.9046   0.9131
V77     V     0.4043   0.0954   0.8614
V78     V     0.4043   0.9046   0.8614
Er79     Er     0.275   0.0954   0.9131
Er80     Er     0.275   0.9046   0.9131
V81     V     0.5957   0.0954   0.1386
V82     V     0.5957   0.9046   0.1386
Er83     Er     0.725   0.0954   0.0869
Er84     Er     0.725   0.9046   0.0869
S85     S     0.5956   0.0954   0.0352
S86     S     0.5956   0.9046   0.0352
S87     S     0.4044   0.0954   0.0352
S88     S     0.4044   0.9046   0.0352
S89     S     0.5956   0.0954   0.9648
S90     S     0.5956   0.9046   0.9648
S91     S     0.4044   0.0954   0.9648
S92     S     0.4044   0.9046   0.9648
V93     V     0.4043   0.0954   0.1386
V94     V     0.4043   0.9046   0.1386
Er95     Er     0.275   0.0954   0.0869
Er96     Er     0.275   0.9046   0.0869
loop_
_geom_bond_atom_site_label_1
_geom_bond_atom_site_label_2
_geom_bond_distance
_geom_bond_site_symmetry_2
_ccdc_geom_bond_type
Ti1     Ti2    9.99   1_545     S
Ti1     Ce3    9.997   .     S
Ti1     Er83    10.008   .     S
Ti1     Ti5    10.009   1_655     S
Ti2     Ti1    9.99   1_565     S
Ti2     Ce4    9.997   .     S
Ti2     Er84    10.008   .     S
Ti2     Ti6    10.009   1_655     S
Ce3     Ce4    9.988   1_545     S
Ce3     H13    10.005   .     S
Ce3     V81    10.007   .     S
Ce4     Ce3    9.988   1_565     S
Ce4     H14    10.005   .     S
Ce4     V82    10.007   .     S
Ti5     Ti6    9.99   1_545     S
Ti5     Ce7    9.997   .     S
Ti5     Er95    10.008   .     S
Ti5     Ti1    10.009   1_455     S
Ti6     Ti5    9.99   1_565     S
Ti6     Ce8    9.997   .     S
Ti6     Er96    10.008   .     S
Ti6     Ti2    10.009   1_455     S
Ce7     Ce8    9.988   1_545     S
Ce7     H15    10.005   .     S
Ce7     V93    10.007   .     S
Ce8     Ce7    9.988   1_565     S
Ce8     H16    10.005   .     S
Ce8     V94    10.007   .     S
Ti9     Ti10    9.99   1_455     S
Ti9     Ce11    9.997   .     S
Ti9     Er55    10.008   .     S
Ti9     Ti21    10.009   1_565     S
Ti10     Ti9    9.99   1_655     S
Ti10     Ce12    9.997   .     S
Ti10     Er56    10.008   .     S
Ti10     Ti22    10.009   1_565     S
Ce11     Ce12    9.988   1_455     S
Ce11     H17    10.005   .     S
Ce11     V53    10.007   .     S
Ce12     Ce11    9.988   1_655     S
Ce12     H18    10.005   .     S
Ce12     V54    10.007   .     S
H13     H14    9.988   1_545     S
H13     H15    10.002   1_655     S
H13     H20    10.002   .     S
H14     H13    9.988   1_565     S
H14     H16    10.002   1_655     S
H14     H18    10.002   .     S
H15     H16    9.988   1_545     S
H15     H13    10.002   1_455     S
H15     H19    10.002   .     S
H16     H15    9.988   1_565     S
H16     H14    10.002   1_455     S
H16     H17    10.002   .     S
H17     H18    9.988   1_455     S
H17     H19    10.002   1_565     S
H18     H17    9.988   1_655     S
H18     H20    10.002   1_565     S
H19     H20    9.988   1_455     S
H19     H17    10.002   1_545     S
H19     Ce23    10.005   .     S
H20     H19    9.988   1_655     S
H20     H18    10.002   1_545     S
H20     Ce24    10.005   .     S
Ti21     Ti22    9.99   1_455     S
Ti21     Ce23    9.997   .     S
Ti21     Er59    10.008   .     S
Ti21     Ti9    10.009   1_545     S
Ti22     Ti21    9.99   1_655     S
Ti22     Ce24    9.997   .     S
Ti22     Er60    10.008   .     S
Ti22     Ti10    10.009   1_545     S
Ce23     Ce24    9.988   1_455     S
Ce23     V57    10.007   .     S
Ce24     Ce23    9.988   1_655     S
Ce24     V58    10.007   .     S
Ti25     Ti26    9.99   1_545     S
Ti25     Ce27    9.997   .     S
Ti25     Er75    10.008   .     S
Ti25     Ti29    10.009   1_655     S
Ti26     Ti25    9.99   1_565     S
Ti26     Ce28    9.997   .     S
Ti26     Er76    10.008   .     S
Ti26     Ti30    10.009   1_655     S
Ce27     Ce28    9.988   1_545     S
Ce27     H41    10.005   .     S
Ce27     V73    10.007   .     S
Ce28     Ce27    9.988   1_565     S
Ce28     H42    10.005   .     S
Ce28     V74    10.007   .     S
Ti29     Ti30    9.99   1_545     S
Ti29     Ce31    9.997   .     S
Ti29     Er79    10.008   .     S
Ti29     Ti25    10.009   1_455     S
Ti30     Ti29    9.99   1_565     S
Ti30     Ce32    9.997   .     S
Ti30     Er80    10.008   .     S
Ti30     Ti26    10.009   1_455     S
Ce31     Ce32    9.988   1_545     S
Ce31     H43    10.005   .     S
Ce31     V77    10.007   .     S
Ce32     Ce31    9.988   1_565     S
Ce32     H44    10.005   .     S
Ce32     V78    10.007   .     S
Ti33     Ti34    9.99   1_455     S
Ti33     Ce35    9.997   .     S
Ti33     Er51    10.008   .     S
Ti33     Ti45    10.009   1_565     S
Ti34     Ti33    9.99   1_655     S
Ti34     Ce36    9.997   .     S
Ti34     Er52    10.008   .     S
Ti34     Ti46    10.009   1_565     S
Ce35     Ce36    9.988   1_455     S
Ce35     H37    10.005   .     S
Ce35     V49    10.007   .     S
Ce36     Ce35    9.988   1_655     S
Ce36     H38    10.005   .     S
Ce36     V50    10.007   .     S
H37     H38    9.988   1_455     S
H37     H39    10.002   1_565     S
H37     H44    10.002   .     S
H38     H37    9.988   1_655     S
H38     H40    10.002   1_565     S
H38     H42    10.002   .     S
H39     H40    9.988   1_455     S
H39     H37    10.002   1_545     S
H39     H43    10.002   .     S
H39     Ce47    10.005   .     S
H40     H39    9.988   1_655     S
H40     H38    10.002   1_545     S
H40     H41    10.002   .     S
H40     Ce48    10.005   .     S
H41     H42    9.988   1_545     S
H41     H43    10.002   1_655     S
H42     H41    9.988   1_565     S
H42     H44    10.002   1_655     S
H43     H44    9.988   1_545     S
H43     H41    10.002   1_455     S
H44     H43    9.988   1_565     S
H44     H42    10.002   1_455     S
Ti45     Ti46    9.99   1_455     S
Ti45     Ce47    9.997   .     S
Ti45     Er71    10.008   .     S
Ti45     Ti33    10.009   1_545     S
Ti46     Ti45    9.99   1_655     S
Ti46     Ce48    9.997   .     S
Ti46     Er72    10.008   .     S
Ti46     Ti34    10.009   1_545     S
Ce47     Ce48    9.988   1_455     S
Ce47     V69    10.007   .     S
Ce48     Ce47    9.988   1_655     S
Ce48     V70    10.007   .     S
V49     V50    9.988   1_455     S
V49     Er51    9.998   .     S
V49     V69    10.012   .     S
V50     V49    9.988   1_655     S
V50     Er52    9.998   .     S
V50     V70    10.012   .     S
Er51     Er52    9.99   1_455     S
Er51     S65    10.004   .     S
Er52     Er51    9.99   1_655     S
Er52     S66    10.004   .     S
V53     V54    9.988   1_455     S
V53     Er55    9.998   .     S
V53     V57    10.012   .     S
V54     V53    9.988   1_655     S
V54     Er56    9.998   .     S
V54     V58    10.012   .     S
Er55     Er56    9.99   1_455     S
Er55     S61    10.004   .     S
Er56     Er55    9.99   1_655     S
Er56     S62    10.004   .     S
V57     V58    9.988   1_455     S
V57     Er59    9.998   .     S
V58     V57    9.988   1_655     S
V58     Er60    9.998   .     S
Er59     Er60    9.99   1_455     S
Er59     S63    10.004   .     S
Er60     Er59    9.99   1_655     S
Er60     S64    10.004   .     S
S61     S62    9.99   1_455     S
S61     S63    10.001   .     S
S61     S65    10.002   .     S
S62     S61    9.99   1_655     S
S62     S64    10.001   .     S
S62     S66    10.002   .     S
S63     S64    9.99   1_455     S
S63     S67    10.002   .     S
S64     S63    9.99   1_655     S
S64     S68    10.002   .     S
S65     S66    9.99   1_455     S
S65     S67    10.001   .     S
S66     S65    9.99   1_655     S
S66     S68    10.001   .     S
S67     S68    9.99   1_455     S
S67     Er71    10.004   .     S
S68     S67    9.99   1_655     S
S68     Er72    10.004   .     S
V69     V70    9.988   1_455     S
V69     Er71    9.998   .     S
V70     V69    9.988   1_655     S
V70     Er72    9.998   .     S
Er71     Er72    9.99   1_455     S
Er72     Er71    9.99   1_655     S
V73     V74    9.988   1_545     S
V73     Er75    9.998   .     S
V73     V77    10.012   .     S
V74     V73    9.988   1_565     S
V74     Er76    9.998   .     S
V74     V78    10.012   .     S
Er75     Er76    9.99   1_545     S
Er75     S89    10.004   .     S
Er76     Er75    9.99   1_565     S
Er76     S90    10.004   .     S
V77     V78    9.988   1_545     S
V77     Er79    9.998   .     S
V78     V77    9.988   1_565     S
V78     Er80    9.998   .     S
Er79     Er80    9.99   1_545     S
Er79     S91    10.004   .     S
Er80     Er79    9.99   1_565     S
Er80     S92    10.004   .     S
V81     V82    9.988   1_545     S
V81     Er83    9.998   .     S
V81     V93    10.012   .     S
V82     V81    9.988   1_565     S
V82     Er84    9.998   .     S
V82     V94    10.012   .     S
Er83     Er84    9.99   1_545     S
Er83     S85    10.004   .     S
Er84     Er83    9.99   1_565     S
Er84     S86    10.004   .     S
S85     S86    9.99   1_545     S
S85     S87    10.001   .     S
S85     S89    10.002   1_554     S
S86     S85    9.99   1_565     S
S86     S88    10.001   .     S
S86     S90    10.002   1_554     S
S87     S88    9.99   1_545     S
S87     S91    10.002   1_554     S
S87     Er95    10.004   .     S
S88     S87    9.99   1_565     S
S88     S92    10.002   1_554     S
S88     Er96    10.004   .     S
S89     S90    9.99   1_545     S
S89     S91    10.001   .     S
S89     S85    10.002   1_556     S
S90     S89    9.99   1_565     S
S90     S92    10.001   .     S
S90     S86    10.002   1_556     S
S91     S92    9.99   1_545     S
S91     S87    10.002   1_556     S
S92     S91    9.99   1_565     S
S92     S88    10.002   1_556     S
V93     V94    9.988   1_545     S
V93     Er95    9.998   .     S
V94     V93    9.988   1_565     S
V94     Er96    9.998   .     S
Er95     Er96    9.99   1_545     S
Er96     Er95    9.99   1_565     S
