data_coee
_audit_creation_date              2020-02-02
_audit_creation_method            'Pymatgen'
_symmetry_space_group_name_H-M    'P1'
_symmetry_Int_Tables_number       1
loop_
_symmetry_equiv_pos_as_xyz
  x,y,z
_cell_length_a                    27.0655
_cell_length_b                    46.5277
_cell_length_c                    27.7428
_cell_angle_alpha                 90.0
_cell_angle_beta                 118.1167
_cell_angle_gamma                 90.0
loop_
_atom_site_label
_atom_site_type_symbol
_atom_site_fract_x
_atom_site_fract_y
_atom_site_fract_z
Ti1     Ti     0.1629   0.901   0.7099
Ti2     Ti     0.3371   0.901   0.2901
S3     S     0.75   0.8668   0.5
Ce4     Ce     0.5266   0.895   0.6985
Er5     Er     0.4825   0.7853   0.9858
Ce6     Ce     0.4734   0.105   0.3015
Er7     Er     0.5175   0.2147   0.0142
V8     V     0.5   0.0   0.0
Ce9     Ce     0.9734   0.895   0.3015
Er10     Er     0.0175   0.7853   0.0142
Ce11     Ce     0.0266   0.105   0.6985
Er12     Er     0.9825   0.2147   0.9858
V13     V     0.0   0.0   0.0
Ti14     Ti     0.6629   0.099   0.7099
Ti15     Ti     0.8371   0.099   0.2901
S16     S     0.25   0.1332   0.5
Ce17     Ce     0.4734   0.395   0.8015
Er18     Er     0.5175   0.2853   0.5142
Ce19     Ce     0.5266   0.605   0.1985
Er20     Er     0.4825   0.7147   0.4858
V21     V     0.5   0.5   0.5
Ti22     Ti     0.8371   0.401   0.7901
Ti23     Ti     0.6629   0.401   0.2099
S24     S     0.25   0.3668   0.0
Ce25     Ce     0.0266   0.395   0.1985
Er26     Er     0.9825   0.2853   0.4858
Ce27     Ce     0.9734   0.605   0.8015
Er28     Er     0.0175   0.7147   0.5142
V29     V     0.0   0.5   0.5
Ti30     Ti     0.1629   0.599   0.2099
Ti31     Ti     0.3371   0.599   0.7901
S32     S     0.75   0.6332   0.0
loop_
_geom_bond_atom_site_label_1
_geom_bond_atom_site_label_2
_geom_bond_distance
_geom_bond_site_symmetry_2
_ccdc_geom_bond_type
Ti1     Er28    10.0   .     S
Ti1     S3    10.0   1_455     S
Ti1     Ce9    10.0   1_455     S
Ti1     Ce4    10.0   .     S
Ti1     Er5    10.0   .     S
Ti1     V8    10.0   1_566     S
Ti2     Er20    10.0   .     S
Ti2     S3    10.0   .     S
Ti2     Ce4    10.0   .     S
Ti2     Ce9    10.0   1_455     S
Ti2     Er10    10.0   .     S
Ti2     V13    10.0   1_565     S
S3     Er28    10.0   1_655     S
S3     Ti1    10.0   1_655     S
S3     Ce9    10.0   .     S
S3     Er20    10.0   .     S
S3     Ce4    10.0   .     S
Ce4     V8    10.0   1_566     S
Ce4     Er5    10.0   .     S
Ce4     Er20    10.0   .     S
Er5     V8    10.0   1_566     S
Er5     S32    10.0   1_556     S
Er5     Ti31    10.0   .     S
Er5     Ce19    10.0   1_556     S
Ce6     Er7    10.0   .     S
Ce6     Ti15    10.0   .     S
Ce6     V8    10.0   .     S
Ce6     Ti14    10.0   .     S
Ce6     S16    10.0   .     S
Ce6     Er18    10.0   .     S
Er7     Ti15    10.0   .     S
Er7     V8    10.0   .     S
Er7     S24    10.0   .     S
Er7     Ti23    10.0   .     S
Er7     Ce17    10.0   1_554     S
V8     Ce4    10.0   1_544     S
V8     Er5    10.0   1_544     S
V8     Ti1    10.0   1_544     S
V8     Ti15    10.0   .     S
Ce9     Ti1    10.0   1_655     S
Ce9     Ti2    10.0   1_655     S
Ce9     V13    10.0   1_665     S
Ce9     Er10    10.0   1_655     S
Ce9     Er28    10.0   1_655     S
Er10     V13    10.0   1_565     S
Er10     Ce9    10.0   1_455     S
Er10     S32    10.0   1_455     S
Er10     Ti30    10.0   .     S
Er10     Ce27    10.0   1_454     S
Ce11     Er12    10.0   1_455     S
Ce11     Ti14    10.0   1_455     S
Ce11     V13    10.0   1_556     S
Ce11     Ti15    10.0   1_455     S
Ce11     S16    10.0   .     S
Ce11     Er26    10.0   1_455     S
Er12     Ti14    10.0   .     S
Er12     V13    10.0   1_656     S
Er12     Ce11    10.0   1_655     S
Er12     S24    10.0   1_656     S
Er12     Ti22    10.0   .     S
Er12     Ce25    10.0   1_656     S
V13     Ce9    10.0   1_445     S
V13     Er10    10.0   1_545     S
V13     Ti2    10.0   1_545     S
V13     Er12    10.0   1_454     S
V13     Ce11    10.0   1_554     S
V13     Ti14    10.0   1_454     S
Ti14     Ce11    10.0   1_655     S
Ti14     V13    10.0   1_656     S
Ti14     Er18    10.0   .     S
Ti14     S16    10.0   .     S
Ti15     S16    10.0   1_655     S
Ti15     Ce11    10.0   1_655     S
Ti15     Er26    10.0   .     S
S16     Er18    10.0   .     S
S16     Ti15    10.0   1_455     S
S16     Er26    10.0   1_455     S
Ce17     Ti22    10.0   .     S
Ce17     V21    10.0   .     S
Ce17     Er18    10.0   .     S
Ce17     Ti23    10.0   1_556     S
Ce17     S24    10.0   1_556     S
Ce17     Er7    10.0   1_556     S
Er18     Ti22    10.0   .     S
Er18     V21    10.0   .     S
Ce19     Ti30    10.0   .     S
Ce19     V21    10.0   .     S
Ce19     Er20    10.0   .     S
Ce19     Ti31    10.0   1_554     S
Ce19     S32    10.0   .     S
Ce19     Er5    10.0   1_554     S
Er20     Ti30    10.0   .     S
Er20     V21    10.0   .     S
V21     Ti22    10.0   .     S
V21     Ti30    10.0   .     S
Ti22     S24    10.0   1_656     S
Ti22     Ce25    10.0   1_656     S
Ti23     S24    10.0   .     S
Ti23     Ce17    10.0   1_554     S
Ti23     Ce25    10.0   1_655     S
Ti23     Er26    10.0   .     S
Ti23     V29    10.0   1_655     S
S24     Ti22    10.0   1_454     S
S24     Ce25    10.0   .     S
S24     Er12    10.0   1_454     S
S24     Ce17    10.0   1_554     S
Ce25     Ti22    10.0   1_454     S
Ce25     Ti23    10.0   1_455     S
Ce25     V29    10.0   .     S
Ce25     Er26    10.0   1_455     S
Ce25     Er12    10.0   1_454     S
Er26     S16    10.0   1_655     S
Er26     Ce11    10.0   1_655     S
Er26     V29    10.0   1_655     S
Er26     Ce25    10.0   1_655     S
Ce27     Ti31    10.0   1_655     S
Ce27     V29    10.0   1_655     S
Ce27     Er28    10.0   1_655     S
Ce27     Ti30    10.0   1_656     S
Ce27     S32    10.0   1_556     S
Ce27     Er10    10.0   1_656     S
Er28     S3    10.0   1_455     S
Er28     Ce9    10.0   1_455     S
Er28     Ti31    10.0   .     S
Er28     V29    10.0   .     S
Er28     Ce27    10.0   1_455     S
V29     Er26    10.0   1_455     S
V29     Ti23    10.0   1_455     S
V29     Ce27    10.0   1_455     S
V29     Ti31    10.0   .     S
Ti30     S32    10.0   1_455     S
Ti30     Ce27    10.0   1_454     S
Ti31     Ce27    10.0   1_455     S
Ti31     S32    10.0   1_556     S
Ti31     Ce19    10.0   1_556     S
S32     Ti30    10.0   1_655     S
S32     Ce27    10.0   1_554     S
S32     Er10    10.0   1_655     S
S32     Er5    10.0   1_554     S
S32     Ti31    10.0   1_554     S
