data_coi
_audit_creation_date              2020-02-02
_audit_creation_method            'Pymatgen'
_symmetry_space_group_name_H-M    'P1'
_symmetry_Int_Tables_number       1
loop_
_symmetry_equiv_pos_as_xyz
  x,y,z
_cell_length_a                    44.2292
_cell_length_b                    44.2292
_cell_length_c                    18.8725
_cell_angle_alpha                 90.0
_cell_angle_beta                 90.0
_cell_angle_gamma                 90.0
loop_
_atom_site_label
_atom_site_type_symbol
_atom_site_fract_x
_atom_site_fract_y
_atom_site_fract_z
Er1     Er     0.6652   0.1348   0.9682
Ce2     Ce     0.6249   0.9153   0.5
Ti3     Ti     0.5942   0.139   0.4712
V4     V     0.4568   0.2155   0.8874
Er5     Er     0.3348   0.8652   0.9682
Ce6     Ce     0.3751   0.0847   0.5
Ti7     Ti     0.4058   0.861   0.4712
V8     V     0.5432   0.7845   0.8874
Er9     Er     0.8652   0.1652   0.2182
Ce10     Ce     0.0847   0.1249   0.75
Ti11     Ti     0.861   0.0942   0.7212
V12     V     0.7845   0.9568   0.1374
Er13     Er     0.1348   0.8348   0.2182
Ce14     Ce     0.9153   0.8751   0.75
Ti15     Ti     0.139   0.9058   0.7212
V16     V     0.2155   0.0432   0.1374
Er17     Er     0.8348   0.3652   0.4682
Ce18     Ce     0.8751   0.5847   0.0
Ti19     Ti     0.9058   0.3611   0.9712
V20     V     0.0432   0.2845   0.3874
Er21     Er     0.1652   0.6348   0.4682
Ce22     Ce     0.1249   0.4153   0.0
Ti23     Ti     0.0942   0.639   0.9712
V24     V     0.9568   0.7155   0.3874
Er25     Er     0.3652   0.6652   0.7182
Ce26     Ce     0.5847   0.6249   0.25
Ti27     Ti     0.361   0.5942   0.2212
V28     V     0.2845   0.4568   0.6374
Er29     Er     0.6348   0.3348   0.7182
Ce30     Ce     0.4153   0.3751   0.25
Ti31     Ti     0.639   0.4058   0.2212
V32     V     0.7155   0.5432   0.6374
loop_
_geom_bond_atom_site_label_1
_geom_bond_atom_site_label_2
_geom_bond_distance
_geom_bond_site_symmetry_2
_ccdc_geom_bond_type
Er1     V4    10.0   .     S
Er1     Ti3    10.0   1_556     S
Er1     Ti11    10.0   .     S
Er1     V12    10.0   1_546     S
Ce2     Ti7    10.0   .     S
Ce2     Ti3    10.0   1_565     S
Ce2     V8    10.0   .     S
Ce2     V12    10.0   .     S
Ti3     Er1    10.0   1_554     S
Ti3     Ce2    10.0   1_545     S
Ti3     Ce6    10.0   .     S
Ti3     Er29    10.0   .     S
V4     Er29    10.0   .     S
V4     Ce6    10.0   .     S
V4     Ce30    10.0   1_556     S
Er5     V8    10.0   .     S
Er5     Ti7    10.0   1_556     S
Er5     Ti15    10.0   .     S
Er5     V16    10.0   1_566     S
Ce6     Ti7    10.0   1_545     S
Ce6     V16    10.0   .     S
Ti7     Er5    10.0   1_554     S
Ti7     Ce6    10.0   1_565     S
Ti7     Er25    10.0   .     S
V8     Er25    10.0   .     S
V8     Ce26    10.0   1_556     S
Er9     V12    10.0   1_545     S
Er9     Ti11    10.0   .     S
Er9     Ti19    10.0   1_554     S
Er9     V20    10.0   1_655     S
Ce10     Ti15    10.0   1_545     S
Ce10     Ti11    10.0   1_455     S
Ce10     V16    10.0   1_556     S
Ce10     V20    10.0   .     S
Ti11     Ce10    10.0   1_655     S
Ti11     Ce14    10.0   1_545     S
V12     Er9    10.0   1_565     S
V12     Er1    10.0   1_564     S
V12     Ce14    10.0   1_554     S
Er13     V16    10.0   1_565     S
Er13     Ti15    10.0   .     S
Er13     Ti23    10.0   1_554     S
Er13     V24    10.0   1_455     S
Ce14     Ti11    10.0   1_565     S
Ce14     Ti15    10.0   1_655     S
Ce14     V12    10.0   1_556     S
Ce14     V24    10.0   .     S
Ti15     Ce10    10.0   1_565     S
Ti15     Ce14    10.0   1_455     S
V16     Ce10    10.0   1_554     S
V16     Er13    10.0   1_545     S
V16     Er5    10.0   1_544     S
Er17     V20    10.0   1_655     S
Er17     Ti19    10.0   .     S
Er17     Ti31    10.0   .     S
Er17     V32    10.0   .     S
Ce18     Ti23    10.0   1_654     S
Ce18     Ti19    10.0   1_554     S
Ce18     V24    10.0   .     S
Ce18     V32    10.0   1_554     S
Ti19     Er9    10.0   1_556     S
Ti19     Ce18    10.0   1_556     S
Ti19     Ce22    10.0   1_656     S
V20     Er17    10.0   1_455     S
V20     Er9    10.0   1_455     S
V20     Ce22    10.0   .     S
Er21     V24    10.0   1_455     S
Er21     Ti23    10.0   .     S
Er21     Ti27    10.0   .     S
Er21     V28    10.0   .     S
Ce22     Ti19    10.0   1_454     S
Ce22     Ti23    10.0   1_554     S
Ce22     V28    10.0   1_554     S
Ti23     Er13    10.0   1_556     S
Ti23     Ce18    10.0   1_456     S
Ti23     Ce22    10.0   1_556     S
V24     Er21    10.0   1_655     S
V24     Er13    10.0   1_655     S
Er25     V28    10.0   .     S
Er25     Ti27    10.0   1_556     S
Ce26     Ti31    10.0   .     S
Ce26     Ti27    10.0   .     S
Ce26     V32    10.0   .     S
Ce26     V8    10.0   1_554     S
Ti27     Er25    10.0   1_554     S
Ti27     Ce30    10.0   .     S
V28     Ce22    10.0   1_556     S
V28     Ce30    10.0   .     S
Er29     V32    10.0   .     S
Er29     Ti31    10.0   1_556     S
Ce30     Ti31    10.0   .     S
Ce30     V4    10.0   1_554     S
Ti31     Er29    10.0   1_554     S
V32     Ce18    10.0   1_556     S
