data_cor
_audit_creation_date              2020-02-02
_audit_creation_method            'Pymatgen'
_symmetry_space_group_name_H-M    'P1'
_symmetry_Int_Tables_number       1
loop_
_symmetry_equiv_pos_as_xyz
  x,y,z
_cell_length_a                    24.6908
_cell_length_b                    24.6908
_cell_length_c                    70.2459
_cell_angle_alpha                 90.0
_cell_angle_beta                 90.0
_cell_angle_gamma                 120.0
loop_
_atom_site_label
_atom_site_type_symbol
_atom_site_fract_x
_atom_site_fract_y
_atom_site_fract_z
V1     V     0.3333   0.9607   0.4167
V2     V     0.6273   0.6667   0.4167
V3     V     0.0393   0.3727   0.4167
Er4     Er     0.0   0.0   0.3479
Er5     Er     0.6667   0.3333   0.4854
V6     V     0.0   0.706   0.25
V7     V     0.706   0.0   0.25
Er8     Er     0.6667   0.3333   0.1812
V9     V     0.294   0.294   0.25
Er10     Er     0.3333   0.6667   0.3188
V11     V     0.3727   0.3333   0.5833
Er12     Er     0.3333   0.6667   0.5146
V13     V     0.9607   0.6273   0.5833
V14     V     0.6667   0.0393   0.5833
Er15     Er     0.0   0.0   0.6521
V16     V     0.706   0.706   0.75
V17     V     0.294   0.0   0.75
V18     V     0.0   0.294   0.75
Er19     Er     0.6667   0.3333   0.6812
Er20     Er     0.3333   0.6667   0.8188
V21     V     0.0393   0.6667   0.9167
V22     V     0.3333   0.3727   0.9167
V23     V     0.6273   0.9607   0.9167
Er24     Er     0.6667   0.3333   0.9854
Er25     Er     0.0   0.0   0.8479
V26     V     0.6667   0.6273   0.0833
V27     V     0.3727   0.0393   0.0833
V28     V     0.9607   0.3333   0.0833
Er29     Er     0.0   0.0   0.1521
Er30     Er     0.3333   0.6667   0.0146
loop_
_geom_bond_atom_site_label_1
_geom_bond_atom_site_label_2
_geom_bond_distance
_geom_bond_site_symmetry_2
_ccdc_geom_bond_type
V1     Er5    10.0   1_565     S
V1     Er4    10.0   1_565     S
V1     Er12    10.0   .     S
V1     Er10    10.0   .     S
V2     Er5    10.0   .     S
V2     Er4    10.0   1_665     S
V2     Er12    10.0   .     S
V2     Er10    10.0   .     S
V3     Er5    10.0   1_455     S
V3     Er4    10.0   .     S
V3     Er12    10.0   .     S
V3     Er10    10.0   .     S
Er4     V1    10.0   1_545     S
Er4     V2    10.0   1_445     S
Er4     V6    10.0   1_545     S
Er4     V7    10.0   1_455     S
Er4     V9    10.0   .     S
Er5     V1    10.0   1_545     S
Er5     V3    10.0   1_655     S
Er5     V11    10.0   .     S
Er5     V13    10.0   .     S
Er5     V14    10.0   .     S
V6     Er10    10.0   .     S
V6     Er8    10.0   1_455     S
V6     Er4    10.0   1_565     S
V6     Er29    10.0   1_565     S
V7     Er8    10.0   .     S
V7     Er10    10.0   1_545     S
V7     Er4    10.0   1_655     S
V7     Er29    10.0   1_655     S
Er8     V6    10.0   1_655     S
Er8     V9    10.0   .     S
Er8     V26    10.0   .     S
Er8     V27    10.0   .     S
Er8     V28    10.0   .     S
V9     Er10    10.0   .     S
V9     Er29    10.0   .     S
Er10     V7    10.0   1_565     S
V11     Er12    10.0   .     S
V11     Er15    10.0   .     S
V11     Er19    10.0   .     S
Er12     V13    10.0   1_455     S
Er12     V14    10.0   1_565     S
V13     Er12    10.0   1_655     S
V13     Er15    10.0   1_665     S
V13     Er19    10.0   .     S
V14     Er12    10.0   1_545     S
V14     Er15    10.0   1_655     S
V14     Er19    10.0   .     S
Er15     V13    10.0   1_445     S
Er15     V14    10.0   1_455     S
Er15     V16    10.0   1_445     S
Er15     V17    10.0   .     S
Er15     V18    10.0   .     S
V16     Er19    10.0   .     S
V16     Er20    10.0   .     S
V16     Er25    10.0   1_665     S
V16     Er15    10.0   1_665     S
V17     Er20    10.0   1_545     S
V17     Er19    10.0   .     S
V17     Er25    10.0   .     S
V18     Er19    10.0   1_455     S
V18     Er20    10.0   .     S
V18     Er25    10.0   .     S
Er19     V18    10.0   1_655     S
Er20     V17    10.0   1_565     S
Er20     V21    10.0   .     S
Er20     V22    10.0   .     S
Er20     V23    10.0   .     S
V21     Er24    10.0   1_455     S
V21     Er25    10.0   1_565     S
V21     Er30    10.0   1_556     S
V22     Er24    10.0   .     S
V22     Er25    10.0   .     S
V22     Er30    10.0   1_556     S
V23     Er24    10.0   1_565     S
V23     Er25    10.0   1_665     S
V23     Er30    10.0   1_556     S
Er24     V21    10.0   1_655     S
Er24     V23    10.0   1_545     S
Er24     V26    10.0   1_556     S
Er24     V27    10.0   1_556     S
Er24     V28    10.0   1_556     S
Er25     V16    10.0   1_445     S
Er25     V21    10.0   1_545     S
Er25     V23    10.0   1_445     S
V26     Er30    10.0   .     S
V26     Er29    10.0   1_665     S
V26     Er24    10.0   1_554     S
V27     Er30    10.0   1_545     S
V27     Er29    10.0   .     S
V27     Er24    10.0   1_554     S
V28     Er30    10.0   1_655     S
V28     Er29    10.0   1_655     S
V28     Er24    10.0   1_554     S
Er29     V6    10.0   1_545     S
Er29     V7    10.0   1_455     S
Er29     V26    10.0   1_445     S
Er29     V28    10.0   1_455     S
Er30     V21    10.0   1_554     S
Er30     V22    10.0   1_554     S
Er30     V23    10.0   1_554     S
Er30     V27    10.0   1_565     S
Er30     V28    10.0   1_455     S
