data_cot
_audit_creation_date              2020-02-02
_audit_creation_method            'Pymatgen'
_symmetry_space_group_name_H-M    'P1'
_symmetry_Int_Tables_number       1
loop_
_symmetry_equiv_pos_as_xyz
  x,y,z
_cell_length_a                    20.6931
_cell_length_b                    20.6931
_cell_length_c                    20.6931
_cell_angle_alpha                 90.0
_cell_angle_beta                 90.0
_cell_angle_gamma                 90.0
loop_
_atom_site_label
_atom_site_type_symbol
_atom_site_fract_x
_atom_site_fract_y
_atom_site_fract_z
Ti1     Ti     0.75   0.75   0.75
Er2     Er     0.0   0.0   0.0
Ti3     Ti     0.25   0.25   0.25
Er4     Er     0.5   0.5   0.0
Er5     Er     0.0   0.5   0.5
Er6     Er     0.5   0.0   0.5
V7     V     0.0   0.0   0.5
V8     V     0.0   0.5   0.0
V9     V     0.5   0.5   0.5
V10     V     0.5   0.0   0.0
loop_
_geom_bond_atom_site_label_1
_geom_bond_atom_site_label_2
_geom_bond_distance
_geom_bond_site_symmetry_2
_ccdc_geom_bond_type
Ti1     Er2    8.96   1_666     S
Ti1     Er4    8.96   1_556     S
Ti1     Er5    8.96   1_655     S
Ti1     Er6    8.96   1_565     S
Er2     Ti1    8.96   1_444     S
Er2     Ti3    8.96   .     S
Er2     V7    10.347   .     S
Er2     V10    10.347   .     S
Er2     V8    10.347   .     S
Er2     V8    10.347   1_545     S
Er2     V10    10.347   1_455     S
Er2     V7    10.347   1_554     S
Ti3     Er4    8.96   .     S
Ti3     Er5    8.96   .     S
Ti3     Er6    8.96   .     S
Er4     Ti1    8.96   1_554     S
Er4     V9    10.347   1_554     S
Er4     V9    10.347   .     S
Er4     V8    10.347   .     S
Er4     V10    10.347   .     S
Er4     V10    10.347   1_565     S
Er4     V8    10.347   1_655     S
Er5     Ti1    8.96   1_455     S
Er5     V9    10.347   1_455     S
Er5     V8    10.347   .     S
Er5     V9    10.347   .     S
Er5     V7    10.347   .     S
Er5     V8    10.347   1_556     S
Er5     V7    10.347   1_565     S
Er6     Ti1    8.96   1_545     S
Er6     V9    10.347   1_545     S
Er6     V10    10.347   .     S
Er6     V7    10.347   .     S
Er6     V9    10.347   .     S
Er6     V10    10.347   1_556     S
Er6     V7    10.347   1_655     S
V7     Er2    10.347   1_556     S
V7     Er5    10.347   1_545     S
V7     Er6    10.347   1_455     S
V8     Er2    10.347   1_565     S
V8     Er4    10.347   1_455     S
V8     Er5    10.347   1_554     S
V9     Er4    10.347   1_556     S
V9     Er6    10.347   1_565     S
V9     Er5    10.347   1_655     S
V10     Er4    10.347   1_545     S
V10     Er2    10.347   1_655     S
V10     Er6    10.347   1_554     S
