data_cota
_audit_creation_date              2020-02-02
_audit_creation_method            'Pymatgen'
_symmetry_space_group_name_H-M    'P1'
_symmetry_Int_Tables_number       1
loop_
_symmetry_equiv_pos_as_xyz
  x,y,z
_cell_length_a                    51.374
_cell_length_b                    51.374
_cell_length_c                    51.374
_cell_angle_alpha                 90.0
_cell_angle_beta                 90.0
_cell_angle_gamma                 90.0
loop_
_atom_site_label
_atom_site_type_symbol
_atom_site_fract_x
_atom_site_fract_y
_atom_site_fract_z
Ti1     Ti     0.5012   0.9988   0.1372
Ti2     Ti     0.6372   0.0012   0.0012
Ti3     Ti     0.4988   0.0012   0.8628
Ti4     Ti     0.3628   0.9988   0.9988
Ti5     Ti     0.4988   0.8628   0.0012
Ti6     Ti     0.5012   0.1372   0.9988
Ti7     Ti     0.1372   0.5012   0.9988
Ti8     Ti     0.0012   0.4988   0.8628
Ti9     Ti     0.9988   0.3628   0.9988
Ti10     Ti     0.8628   0.4988   0.0012
Ti11     Ti     0.9988   0.5012   0.1372
Ti12     Ti     0.0012   0.6372   0.0012
Ti13     Ti     0.9988   0.1372   0.5012
Ti14     Ti     0.1372   0.9988   0.5012
Ti15     Ti     0.0012   0.0012   0.6372
Ti16     Ti     0.0012   0.8628   0.4988
Ti17     Ti     0.9988   0.9988   0.3628
Ti18     Ti     0.8628   0.0012   0.4988
Ti19     Ti     0.5012   0.5012   0.3628
Ti20     Ti     0.4988   0.6372   0.4988
Ti21     Ti     0.6372   0.4988   0.4988
Ti22     Ti     0.5012   0.3628   0.5012
Ti23     Ti     0.4988   0.4988   0.6372
Ti24     Ti     0.3628   0.5012   0.5012
V25     V     0.9585   0.9585   0.1694
V26     V     0.9585   0.1694   0.9585
Er27     Er     0.0739   0.0739   0.0739
Ce28     Ce     0.183   0.183   0.183
V29     V     0.1694   0.9585   0.9585
V30     V     0.5415   0.9585   0.3306
V31     V     0.3306   0.9585   0.5415
Ce32     Ce     0.317   0.183   0.317
Er33     Er     0.4261   0.0739   0.4261
V34     V     0.5415   0.1694   0.5415
V35     V     0.5415   0.3306   0.9585
V36     V     0.3306   0.5415   0.9585
Ce37     Ce     0.317   0.317   0.183
Er38     Er     0.4261   0.4261   0.0739
V39     V     0.5415   0.5415   0.1694
V40     V     0.9585   0.5415   0.3306
V41     V     0.9585   0.3306   0.5415
Ce42     Ce     0.183   0.317   0.317
Er43     Er     0.0739   0.4261   0.4261
V44     V     0.1694   0.5415   0.5415
V45     V     0.6694   0.0415   0.4585
V46     V     0.4585   0.8306   0.4585
Ce47     Ce     0.683   0.817   0.683
Er48     Er     0.5739   0.9261   0.5739
V49     V     0.4585   0.0415   0.6694
V50     V     0.8306   0.0415   0.0415
V51     V     0.0415   0.8306   0.0415
Er52     Er     0.9261   0.9261   0.9261
Ce53     Ce     0.817   0.817   0.817
V54     V     0.0415   0.0415   0.8306
V55     V     0.6694   0.4585   0.0415
V56     V     0.4585   0.6694   0.0415
Ce57     Ce     0.683   0.683   0.817
Er58     Er     0.5739   0.5739   0.9261
V59     V     0.4585   0.4585   0.8306
V60     V     0.8306   0.4585   0.4585
V61     V     0.0415   0.6694   0.4585
Ce62     Ce     0.817   0.683   0.683
Er63     Er     0.9261   0.5739   0.5739
V64     V     0.0415   0.4585   0.6694
loop_
_geom_bond_atom_site_label_1
_geom_bond_atom_site_label_2
_geom_bond_distance
_geom_bond_site_symmetry_2
_ccdc_geom_bond_type
Ti1     Ti4    10.054   1_554     S
Ti1     Ti6    10.054   1_564     S
Ti1     Ti5    9.877   .     S
Ti1     Ti2    9.877   1_565     S
Ti1     V30    10.36   .     S
Ti2     Ti5    10.054   1_545     S
Ti2     Ti3    10.054   1_554     S
Ti2     Ti1    9.877   1_545     S
Ti2     Ti6    9.877   1_554     S
Ti2     V50    10.36   .     S
Ti3     Ti5    10.054   1_546     S
Ti3     Ti2    10.054   1_556     S
Ti3     Ti6    9.877   .     S
Ti3     Ti4    9.877   1_545     S
Ti3     V49    10.36   .     S
Ti4     Ti1    10.054   1_556     S
Ti4     Ti6    10.054   1_565     S
Ti4     Ti3    9.877   1_565     S
Ti4     Ti5    9.877   1_556     S
Ti4     V29    10.36   .     S
Ti5     Ti2    10.054   1_565     S
Ti5     Ti3    10.054   1_564     S
Ti5     Ti4    9.877   1_554     S
Ti5     V56    10.36   .     S
Ti6     Ti4    10.054   1_545     S
Ti6     Ti1    10.054   1_546     S
Ti6     Ti2    9.877   1_556     S
Ti6     V35    10.36   .     S
Ti7     Ti9    10.054   1_455     S
Ti7     Ti11    10.054   1_456     S
Ti7     Ti12    9.877   1_556     S
Ti7     Ti8    9.877   .     S
Ti7     V36    10.36   .     S
Ti8     Ti10    10.054   1_456     S
Ti8     Ti12    10.054   1_556     S
Ti8     Ti9    9.877   1_455     S
Ti8     V64    10.36   .     S
Ti9     Ti7    10.054   1_655     S
Ti9     Ti11    10.054   1_556     S
Ti9     Ti8    9.877   1_655     S
Ti9     Ti10    9.877   1_556     S
Ti9     V26    10.36   .     S
Ti10     Ti8    10.054   1_654     S
Ti10     Ti12    10.054   1_655     S
Ti10     Ti9    9.877   1_554     S
Ti10     Ti11    9.877   .     S
Ti10     V55    10.36   .     S
Ti11     Ti9    10.054   1_554     S
Ti11     Ti7    10.054   1_654     S
Ti11     Ti12    9.877   1_655     S
Ti11     V40    10.36   .     S
Ti12     Ti10    10.054   1_455     S
Ti12     Ti8    10.054   1_554     S
Ti12     Ti7    9.877   1_554     S
Ti12     Ti11    9.877   1_455     S
Ti12     V51    10.36   .     S
Ti13     Ti17    10.054   1_545     S
Ti13     Ti14    10.054   1_645     S
Ti13     Ti18    9.877   .     S
Ti13     Ti15    9.877   1_655     S
Ti13     V41    10.36   .     S
Ti14     Ti13    10.054   1_465     S
Ti14     Ti17    10.054   1_455     S
Ti14     Ti15    9.877   1_565     S
Ti14     Ti16    9.877   .     S
Ti14     V31    10.36   .     S
Ti15     Ti16    10.054   1_545     S
Ti15     Ti18    10.054   1_455     S
Ti15     Ti13    9.877   1_455     S
Ti15     Ti14    9.877   1_545     S
Ti15     V54    10.36   .     S
Ti16     Ti18    10.054   1_465     S
Ti16     Ti15    10.054   1_565     S
Ti16     Ti17    9.877   1_455     S
Ti16     V61    10.36   .     S
Ti17     Ti13    10.054   1_565     S
Ti17     Ti14    10.054   1_655     S
Ti17     Ti16    9.877   1_655     S
Ti17     Ti18    9.877   1_565     S
Ti17     V25    10.36   .     S
Ti18     Ti16    10.054   1_645     S
Ti18     Ti15    10.054   1_655     S
Ti18     Ti17    9.877   1_545     S
Ti18     V45    10.36   .     S
Ti19     Ti24    10.054   .     S
Ti19     Ti22    10.054   .     S
Ti19     Ti20    9.877   .     S
Ti19     Ti21    9.877   .     S
Ti19     V39    10.36   .     S
Ti20     Ti21    10.054   .     S
Ti20     Ti23    10.054   .     S
Ti20     Ti24    9.877   .     S
Ti20     V46    10.36   .     S
Ti21     Ti23    10.054   .     S
Ti21     Ti22    9.877   .     S
Ti21     V60    10.36   .     S
Ti22     Ti24    10.054   .     S
Ti22     Ti23    9.877   .     S
Ti22     V34    10.36   .     S
Ti23     Ti24    9.877   .     S
Ti23     V59    10.36   .     S
Ti24     V44    10.36   .     S
V25     Er27    9.716   1_665     S
V25     V50    10.223   1_565     S
V25     V51    10.223   1_655     S
V26     Er27    9.716   1_656     S
V26     V54    10.223   1_655     S
V26     V50    10.223   1_556     S
Er27     V25    9.716   1_445     S
Er27     V26    9.716   1_454     S
Er27     Ce28    9.712   .     S
Er27     V29    9.716   1_544     S
Ce28     Ce32    9.731   .     S
Ce28     Ce37    9.731   .     S
Ce28     Ce42    9.731   .     S
V29     Er27    9.716   1_566     S
V29     V54    10.223   1_565     S
V29     V51    10.223   1_556     S
V30     Er33    9.716   1_565     S
V30     V45    10.223   1_565     S
V30     V46    10.223   .     S
V31     Er33    9.716   1_565     S
V31     V49    10.223   1_565     S
V31     V46    10.223   .     S
Ce32     Er33    9.712   .     S
Ce32     Ce37    9.731   .     S
Ce32     Ce42    9.731   .     S
Er33     V30    9.716   1_545     S
Er33     V31    9.716   1_545     S
Er33     V34    9.716   .     S
V34     V45    10.223   .     S
V34     V49    10.223   .     S
V35     Er38    9.716   1_556     S
V35     V55    10.223   1_556     S
V35     V59    10.223   .     S
V36     Er38    9.716   1_556     S
V36     V56    10.223   1_556     S
V36     V59    10.223   .     S
Ce37     Er38    9.712   .     S
Ce37     Ce42    9.731   .     S
Er38     V35    9.716   1_554     S
Er38     V36    9.716   1_554     S
Er38     V39    9.716   .     S
V39     V55    10.223   .     S
V39     V56    10.223   .     S
V40     Er43    9.716   1_655     S
V40     V61    10.223   1_655     S
V40     V60    10.223   .     S
V41     Er43    9.716   1_655     S
V41     V64    10.223   1_655     S
V41     V60    10.223   .     S
Ce42     Er43    9.712   .     S
Er43     V40    9.716   1_455     S
Er43     V41    9.716   1_455     S
Er43     V44    9.716   .     S
V44     V64    10.223   .     S
V44     V61    10.223   .     S
V45     Er48    9.716   1_545     S
V45     V30    10.223   1_545     S
V46     Er48    9.716   .     S
Ce47     Er48    9.712   .     S
Ce47     Ce53    9.731   .     S
Ce47     Ce57    9.731   .     S
Ce47     Ce62    9.731   .     S
Er48     V45    9.716   1_565     S
Er48     V49    9.716   1_565     S
V49     Er48    9.716   1_545     S
V49     V31    10.223   1_545     S
V50     Er52    9.716   1_544     S
V50     V25    10.223   1_545     S
V50     V26    10.223   1_554     S
V51     Er52    9.716   1_454     S
V51     V29    10.223   1_554     S
V51     V25    10.223   1_455     S
Er52     V50    9.716   1_566     S
Er52     V51    9.716   1_656     S
Er52     Ce53    9.712   .     S
Er52     V54    9.716   1_665     S
Ce53     Ce62    9.731   .     S
Ce53     Ce57    9.731   .     S
V54     Er52    9.716   1_445     S
V54     V29    10.223   1_545     S
V54     V26    10.223   1_455     S
V55     Er58    9.716   1_554     S
V55     V35    10.223   1_554     S
V56     Er58    9.716   1_554     S
V56     V36    10.223   1_554     S
Ce57     Er58    9.712   .     S
Ce57     Ce62    9.731   .     S
Er58     V55    9.716   1_556     S
Er58     V56    9.716   1_556     S
Er58     V59    9.716   .     S
V60     Er63    9.716   .     S
V61     Er63    9.716   1_455     S
V61     V40    10.223   1_455     S
Ce62     Er63    9.712   .     S
Er63     V61    9.716   1_655     S
Er63     V64    9.716   1_655     S
V64     Er63    9.716   1_455     S
V64     V41    10.223   1_455     S
