data_csi
_audit_creation_date              2020-02-02
_audit_creation_method            'Pymatgen'
_symmetry_space_group_name_H-M    'P1'
_symmetry_Int_Tables_number       1
loop_
_symmetry_equiv_pos_as_xyz
  x,y,z
_cell_length_a                    62.1919
_cell_length_b                    62.1919
_cell_length_c                    62.1919
_cell_angle_alpha                 90.0
_cell_angle_beta                 90.0
_cell_angle_gamma                 90.0
loop_
_atom_site_label
_atom_site_type_symbol
_atom_site_fract_x
_atom_site_fract_y
_atom_site_fract_z
Ti1     Ti     0.4196   0.78   0.7497
Er2     Er     0.347   0.8403   0.6196
Ti3     Ti     0.5804   0.78   0.7497
Er4     Er     0.653   0.8403   0.6196
Ti5     Ti     0.4196   0.22   0.7497
Er6     Er     0.347   0.1597   0.6196
Ti7     Ti     0.5804   0.22   0.7497
Er8     Er     0.653   0.1597   0.6196
Ti9     Ti     0.4196   0.78   0.2503
Er10     Er     0.347   0.8403   0.3804
Ti11     Ti     0.5804   0.78   0.2503
Er12     Er     0.653   0.8403   0.3804
V13     V     0.4196   0.0804   0.5
V14     V     0.4196   0.9196   0.5
V15     V     0.5804   0.9196   0.5
V16     V     0.5804   0.0804   0.5
Ti17     Ti     0.4196   0.22   0.2503
Er18     Er     0.347   0.1597   0.3804
Ti19     Ti     0.5804   0.22   0.2503
Er20     Er     0.653   0.1597   0.3804
Ti21     Ti     0.7497   0.4196   0.78
Er22     Er     0.6196   0.347   0.8403
Ti23     Ti     0.7497   0.5804   0.78
Er24     Er     0.6196   0.653   0.8403
Ti25     Ti     0.7497   0.4196   0.22
Er26     Er     0.6196   0.347   0.1597
Ti27     Ti     0.7497   0.5804   0.22
Er28     Er     0.6196   0.653   0.1597
Ti29     Ti     0.2503   0.4196   0.78
Er30     Er     0.3804   0.347   0.8403
Ti31     Ti     0.2503   0.5804   0.78
Er32     Er     0.3804   0.653   0.8403
V33     V     0.5   0.4196   0.0804
V34     V     0.5   0.4196   0.9196
V35     V     0.5   0.5804   0.9196
V36     V     0.5   0.5804   0.0804
Ti37     Ti     0.2503   0.4196   0.22
Er38     Er     0.3804   0.347   0.1597
Ti39     Ti     0.2503   0.5804   0.22
Er40     Er     0.3804   0.653   0.1597
Ti41     Ti     0.78   0.7497   0.4196
Er42     Er     0.8403   0.6196   0.347
Ti43     Ti     0.78   0.7497   0.5804
Er44     Er     0.8403   0.6196   0.653
Ti45     Ti     0.22   0.7497   0.4196
Er46     Er     0.1597   0.6196   0.347
Ti47     Ti     0.22   0.7497   0.5804
Er48     Er     0.1597   0.6196   0.653
Ti49     Ti     0.78   0.2503   0.4196
Er50     Er     0.8403   0.3804   0.347
Ti51     Ti     0.78   0.2503   0.5804
Er52     Er     0.8403   0.3804   0.653
V53     V     0.0804   0.5   0.4196
V54     V     0.9196   0.5   0.4196
V55     V     0.9196   0.5   0.5804
V56     V     0.0804   0.5   0.5804
Ti57     Ti     0.22   0.2503   0.4196
Er58     Er     0.1597   0.3804   0.347
Ti59     Ti     0.22   0.2503   0.5804
Er60     Er     0.1597   0.3804   0.653
Ti61     Ti     0.0804   0.72   0.7503
Er62     Er     0.153   0.6597   0.8804
Ti63     Ti     0.9196   0.72   0.7503
Er64     Er     0.847   0.6597   0.8804
Ti65     Ti     0.0804   0.28   0.7503
Er66     Er     0.153   0.3403   0.8804
Ti67     Ti     0.9196   0.28   0.7503
Er68     Er     0.847   0.3403   0.8804
Ti69     Ti     0.0804   0.72   0.2497
Er70     Er     0.153   0.6597   0.1196
Ti71     Ti     0.9196   0.72   0.2497
Er72     Er     0.847   0.6597   0.1196
Ti73     Ti     0.0804   0.28   0.2497
Er74     Er     0.153   0.3403   0.1196
Ti75     Ti     0.9196   0.28   0.2497
Er76     Er     0.847   0.3403   0.1196
V77     V     0.0804   0.5804   0.0
V78     V     0.9196   0.5804   0.0
V79     V     0.0804   0.4196   0.0
V80     V     0.9196   0.4196   0.0
Ti81     Ti     0.72   0.7503   0.0804
Er82     Er     0.6597   0.8804   0.153
Ti83     Ti     0.72   0.7503   0.9196
Er84     Er     0.6597   0.8804   0.847
Ti85     Ti     0.28   0.7503   0.0804
Er86     Er     0.3403   0.8804   0.153
Ti87     Ti     0.28   0.7503   0.9196
Er88     Er     0.3403   0.8804   0.847
Ti89     Ti     0.72   0.2497   0.0804
Er90     Er     0.6597   0.1196   0.153
Ti91     Ti     0.72   0.2497   0.9196
Er92     Er     0.6597   0.1196   0.847
Ti93     Ti     0.28   0.2497   0.0804
Er94     Er     0.3403   0.1196   0.153
Ti95     Ti     0.28   0.2497   0.9196
Er96     Er     0.3403   0.1196   0.847
V97     V     0.5804   0.0   0.0804
V98     V     0.5804   0.0   0.9196
V99     V     0.4196   0.0   0.0804
V100     V     0.4196   0.0   0.9196
Ti101     Ti     0.7503   0.0804   0.72
Er102     Er     0.8804   0.153   0.6597
Ti103     Ti     0.7503   0.9196   0.72
Er104     Er     0.8804   0.847   0.6597
Ti105     Ti     0.7503   0.0804   0.28
Er106     Er     0.8804   0.153   0.3403
Ti107     Ti     0.7503   0.9196   0.28
Er108     Er     0.8804   0.847   0.3403
Ti109     Ti     0.2497   0.0804   0.72
Er110     Er     0.1196   0.153   0.6597
Ti111     Ti     0.2497   0.9196   0.72
Er112     Er     0.1196   0.847   0.6597
Ti113     Ti     0.2497   0.0804   0.28
Er114     Er     0.1196   0.153   0.3403
Ti115     Ti     0.2497   0.9196   0.28
Er116     Er     0.1196   0.847   0.3403
V117     V     0.0   0.0804   0.4196
V118     V     0.0   0.9196   0.4196
V119     V     0.0   0.0804   0.5804
V120     V     0.0   0.9196   0.5804
loop_
_geom_bond_atom_site_label_1
_geom_bond_atom_site_label_2
_geom_bond_distance
_geom_bond_site_symmetry_2
_ccdc_geom_bond_type
Ti1     Er88    10.0   .     S
Ti1     Er2    10.0   .     S
Ti1     Er32    10.0   .     S
Ti1     Ti3    10.0   .     S
Er2     V14    10.0   .     S
Er2     Ti47    10.0   .     S
Er2     Ti111    10.0   .     S
Ti3     Er84    10.0   .     S
Ti3     Er4    10.0   .     S
Ti3     Er24    10.0   .     S
Er4     V15    10.0   .     S
Er4     Ti43    10.0   .     S
Er4     Ti103    10.0   .     S
Ti5     Er96    10.0   .     S
Ti5     Er6    10.0   .     S
Ti5     Er30    10.0   .     S
Ti5     Ti7    10.0   .     S
Er6     V13    10.0   .     S
Er6     Ti59    10.0   .     S
Er6     Ti109    10.0   .     S
Ti7     Er92    10.0   .     S
Ti7     Er8    10.0   .     S
Ti7     Er22    10.0   .     S
Er8     V16    10.0   .     S
Er8     Ti51    10.0   .     S
Er8     Ti101    10.0   .     S
Ti9     Er86    10.0   .     S
Ti9     Er10    10.0   .     S
Ti9     Er40    10.0   .     S
Ti9     Ti11    10.0   .     S
Er10     V14    10.0   .     S
Er10     Ti45    10.0   .     S
Er10     Ti115    10.0   .     S
Ti11     Er82    10.0   .     S
Ti11     Er12    10.0   .     S
Ti11     Er28    10.0   .     S
Er12     V15    10.0   .     S
Er12     Ti41    10.0   .     S
Er12     Ti107    10.0   .     S
V13     Er18    10.0   .     S
V13     V14    10.0   1_545     S
V13     V16    10.0   .     S
V14     V13    10.0   1_565     S
V14     V15    10.0   .     S
V15     V16    10.0   1_565     S
V16     V15    10.0   1_545     S
V16     Er20    10.0   .     S
Ti17     Er94    10.0   .     S
Ti17     Er18    10.0   .     S
Ti17     Er38    10.0   .     S
Ti17     Ti19    10.0   .     S
Er18     Ti57    10.0   .     S
Er18     Ti113    10.0   .     S
Ti19     Er90    10.0   .     S
Ti19     Er20    10.0   .     S
Ti19     Er26    10.0   .     S
Er20     Ti49    10.0   .     S
Er20     Ti105    10.0   .     S
Ti21     Er68    10.0   .     S
Ti21     Er22    10.0   .     S
Ti21     Er52    10.0   .     S
Ti21     Ti23    10.0   .     S
Er22     V34    10.0   .     S
Er22     Ti91    10.0   .     S
Ti23     Er64    10.0   .     S
Ti23     Er24    10.0   .     S
Ti23     Er44    10.0   .     S
Er24     V35    10.0   .     S
Er24     Ti83    10.0   .     S
Ti25     Er76    10.0   .     S
Ti25     Er26    10.0   .     S
Ti25     Er50    10.0   .     S
Ti25     Ti27    10.0   .     S
Er26     V33    10.0   .     S
Er26     Ti89    10.0   .     S
Ti27     Er72    10.0   .     S
Ti27     Er28    10.0   .     S
Ti27     Er42    10.0   .     S
Er28     V36    10.0   .     S
Er28     Ti81    10.0   .     S
Ti29     Er66    10.0   .     S
Ti29     Er30    10.0   .     S
Ti29     Er60    10.0   .     S
Ti29     Ti31    10.0   .     S
Er30     V34    10.0   .     S
Er30     Ti95    10.0   .     S
Ti31     Er62    10.0   .     S
Ti31     Er32    10.0   .     S
Ti31     Er48    10.0   .     S
Er32     V35    10.0   .     S
Er32     Ti87    10.0   .     S
V33     Er38    10.0   .     S
V33     V34    10.0   1_554     S
V33     V36    10.0   .     S
V34     V33    10.0   1_556     S
V34     V35    10.0   .     S
V35     V36    10.0   1_556     S
V36     V35    10.0   1_554     S
V36     Er40    10.0   .     S
Ti37     Er74    10.0   .     S
Ti37     Er38    10.0   .     S
Ti37     Er58    10.0   .     S
Ti37     Ti39    10.0   .     S
Er38     Ti93    10.0   .     S
Ti39     Er70    10.0   .     S
Ti39     Er40    10.0   .     S
Ti39     Er46    10.0   .     S
Er40     Ti85    10.0   .     S
Ti41     Er108    10.0   .     S
Ti41     Er42    10.0   .     S
Ti41     Ti43    10.0   .     S
Er42     V54    10.0   .     S
Er42     Ti71    10.0   .     S
Ti43     Er104    10.0   .     S
Ti43     Er44    10.0   .     S
Er44     V55    10.0   .     S
Er44     Ti63    10.0   .     S
Ti45     Er116    10.0   .     S
Ti45     Er46    10.0   .     S
Ti45     Ti47    10.0   .     S
Er46     V53    10.0   .     S
Er46     Ti69    10.0   .     S
Ti47     Er112    10.0   .     S
Ti47     Er48    10.0   .     S
Er48     V56    10.0   .     S
Er48     Ti61    10.0   .     S
Ti49     Er106    10.0   .     S
Ti49     Er50    10.0   .     S
Ti49     Ti51    10.0   .     S
Er50     V54    10.0   .     S
Er50     Ti75    10.0   .     S
Ti51     Er102    10.0   .     S
Ti51     Er52    10.0   .     S
Er52     V55    10.0   .     S
Er52     Ti67    10.0   .     S
V53     Er58    10.0   .     S
V53     V54    10.0   1_455     S
V53     V56    10.0   .     S
V54     V53    10.0   1_655     S
V54     V55    10.0   .     S
V55     V56    10.0   1_655     S
V56     V55    10.0   1_455     S
V56     Er60    10.0   .     S
Ti57     Er114    10.0   .     S
Ti57     Er58    10.0   .     S
Ti57     Ti59    10.0   .     S
Er58     Ti73    10.0   .     S
Ti59     Er110    10.0   .     S
Ti59     Er60    10.0   .     S
Er60     Ti65    10.0   .     S
Ti61     Er62    10.0   .     S
Ti61     Er112    10.0   .     S
Ti61     Ti63    10.0   1_455     S
Er62     V77    10.0   1_556     S
Er62     Ti87    10.0   .     S
Ti63     Er64    10.0   .     S
Ti63     Er104    10.0   .     S
Ti63     Ti61    10.0   1_655     S
Er64     V78    10.0   1_556     S
Er64     Ti83    10.0   .     S
Ti65     Er66    10.0   .     S
Ti65     Er110    10.0   .     S
Ti65     Ti67    10.0   1_455     S
Er66     V79    10.0   1_556     S
Er66     Ti95    10.0   .     S
Ti67     Er68    10.0   .     S
Ti67     Er102    10.0   .     S
Ti67     Ti65    10.0   1_655     S
Er68     V80    10.0   1_556     S
Er68     Ti91    10.0   .     S
Ti69     Er70    10.0   .     S
Ti69     Er116    10.0   .     S
Ti69     Ti71    10.0   1_455     S
Er70     V77    10.0   .     S
Er70     Ti85    10.0   .     S
Ti71     Er72    10.0   .     S
Ti71     Er108    10.0   .     S
Ti71     Ti69    10.0   1_655     S
Er72     V78    10.0   .     S
Er72     Ti81    10.0   .     S
Ti73     Er74    10.0   .     S
Ti73     Er114    10.0   .     S
Ti73     Ti75    10.0   1_455     S
Er74     V79    10.0   .     S
Er74     Ti93    10.0   .     S
Ti75     Er76    10.0   .     S
Ti75     Er106    10.0   .     S
Ti75     Ti73    10.0   1_655     S
Er76     V80    10.0   .     S
Er76     Ti89    10.0   .     S
V77     Er62    10.0   1_554     S
V77     V79    10.0   .     S
V77     V78    10.0   1_455     S
V78     Er64    10.0   1_554     S
V78     V77    10.0   1_655     S
V78     V80    10.0   .     S
V79     Er66    10.0   1_554     S
V79     V80    10.0   1_455     S
V80     Er68    10.0   1_554     S
V80     V79    10.0   1_655     S
Ti81     Er82    10.0   .     S
Ti81     Ti83    10.0   1_554     S
Er82     V97    10.0   1_565     S
Er82     Ti107    10.0   .     S
Ti83     Er84    10.0   .     S
Ti83     Ti81    10.0   1_556     S
Er84     V98    10.0   1_565     S
Er84     Ti103    10.0   .     S
Ti85     Er86    10.0   .     S
Ti85     Ti87    10.0   1_554     S
Er86     V99    10.0   1_565     S
Er86     Ti115    10.0   .     S
Ti87     Er88    10.0   .     S
Ti87     Ti85    10.0   1_556     S
Er88     V100    10.0   1_565     S
Er88     Ti111    10.0   .     S
Ti89     Er90    10.0   .     S
Ti89     Ti91    10.0   1_554     S
Er90     V97    10.0   .     S
Er90     Ti105    10.0   .     S
Ti91     Er92    10.0   .     S
Ti91     Ti89    10.0   1_556     S
Er92     V98    10.0   .     S
Er92     Ti101    10.0   .     S
Ti93     Er94    10.0   .     S
Ti93     Ti95    10.0   1_554     S
Er94     V99    10.0   .     S
Er94     Ti113    10.0   .     S
Ti95     Er96    10.0   .     S
Ti95     Ti93    10.0   1_556     S
Er96     V100    10.0   .     S
Er96     Ti109    10.0   .     S
V97     Er82    10.0   1_545     S
V97     V99    10.0   .     S
V97     V98    10.0   1_554     S
V98     Er84    10.0   1_545     S
V98     V97    10.0   1_556     S
V98     V100    10.0   .     S
V99     Er86    10.0   1_545     S
V99     V100    10.0   1_554     S
V100     Er88    10.0   1_545     S
V100     V99    10.0   1_556     S
Ti101     Er102    10.0   .     S
Ti101     Ti103    10.0   1_545     S
Er102     V119    10.0   1_655     S
Ti103     Er104    10.0   .     S
Ti103     Ti101    10.0   1_565     S
Er104     V120    10.0   1_655     S
Ti105     Er106    10.0   .     S
Ti105     Ti107    10.0   1_545     S
Er106     V117    10.0   1_655     S
Ti107     Er108    10.0   .     S
Ti107     Ti105    10.0   1_565     S
Er108     V118    10.0   1_655     S
Ti109     Er110    10.0   .     S
Ti109     Ti111    10.0   1_545     S
Er110     V119    10.0   .     S
Ti111     Er112    10.0   .     S
Ti111     Ti109    10.0   1_565     S
Er112     V120    10.0   .     S
Ti113     Er114    10.0   .     S
Ti113     Ti115    10.0   1_545     S
Er114     V117    10.0   .     S
Ti115     Er116    10.0   .     S
Ti115     Ti113    10.0   1_565     S
Er116     V118    10.0   .     S
V117     Er106    10.0   1_455     S
V117     V118    10.0   1_545     S
V117     V119    10.0   .     S
V118     Er108    10.0   1_455     S
V118     V117    10.0   1_565     S
V118     V120    10.0   .     S
V119     Er102    10.0   1_455     S
V119     V120    10.0   1_545     S
V120     Er104    10.0   1_455     S
V120     V119    10.0   1_565     S
