data_csk
_audit_creation_date              2020-02-02
_audit_creation_method            'Pymatgen'
_symmetry_space_group_name_H-M    'P1'
_symmetry_Int_Tables_number       1
loop_
_symmetry_equiv_pos_as_xyz
  x,y,z
_cell_length_a                    64.622
_cell_length_b                    64.622
_cell_length_c                    64.622
_cell_angle_alpha                 90.0
_cell_angle_beta                 90.0
_cell_angle_gamma                 90.0
loop_
_atom_site_label
_atom_site_type_symbol
_atom_site_fract_x
_atom_site_fract_y
_atom_site_fract_z
V1     V     0.6759   0.0774   0.0
V2     V     0.6759   0.9226   0.0
V3     V     0.3241   0.0774   0.0
V4     V     0.3241   0.9226   0.0
V5     V     0.5774   0.8241   0.5
V6     V     0.4226   0.8241   0.5
Er7     Er     0.65   0.824   0.3633
Er8     Er     0.65   0.176   0.3633
Ti9     Ti     0.7193   0.9226   0.2663
Ti10     Ti     0.7193   0.0774   0.2663
Er11     Er     0.324   0.85   0.1367
Er12     Er     0.676   0.85   0.1367
Ti13     Ti     0.5774   0.7807   0.2337
Ti14     Ti     0.4226   0.7807   0.2337
Er15     Er     0.324   0.15   0.1367
Er16     Er     0.676   0.15   0.1367
Ti17     Ti     0.5774   0.2193   0.2337
Ti18     Ti     0.4226   0.2193   0.2337
Er19     Er     0.35   0.824   0.3633
Er20     Er     0.35   0.176   0.3633
Ti21     Ti     0.2807   0.9226   0.2663
Ti22     Ti     0.2807   0.0774   0.2663
V23     V     0.5774   0.1759   0.5
V24     V     0.4226   0.1759   0.5
Er25     Er     0.676   0.85   0.8633
Er26     Er     0.324   0.85   0.8633
Ti27     Ti     0.5774   0.7807   0.7663
Ti28     Ti     0.4226   0.7807   0.7663
Er29     Er     0.65   0.176   0.6367
Er30     Er     0.65   0.824   0.6367
Ti31     Ti     0.7193   0.9226   0.7337
Ti32     Ti     0.7193   0.0774   0.7337
Er33     Er     0.35   0.824   0.6367
Er34     Er     0.35   0.176   0.6367
Ti35     Ti     0.2807   0.9226   0.7337
Ti36     Ti     0.2807   0.0774   0.7337
Er37     Er     0.324   0.15   0.8633
Er38     Er     0.676   0.15   0.8633
Ti39     Ti     0.4226   0.2193   0.7663
Ti40     Ti     0.5774   0.2193   0.7663
V41     V     0.0   0.6759   0.0774
V42     V     0.0   0.6759   0.9226
V43     V     0.0   0.3241   0.0774
V44     V     0.0   0.3241   0.9226
V45     V     0.5   0.5774   0.8241
V46     V     0.5   0.4226   0.8241
Er47     Er     0.8633   0.676   0.85
Er48     Er     0.8633   0.324   0.85
Ti49     Ti     0.7663   0.5774   0.7807
Ti50     Ti     0.7663   0.4226   0.7807
Er51     Er     0.6367   0.65   0.176
Er52     Er     0.6367   0.65   0.824
Ti53     Ti     0.7337   0.7193   0.9226
Ti54     Ti     0.7337   0.7193   0.0774
Er55     Er     0.6367   0.35   0.824
Er56     Er     0.6367   0.35   0.176
Ti57     Ti     0.7337   0.2807   0.9226
Ti58     Ti     0.7337   0.2807   0.0774
Er59     Er     0.8633   0.324   0.15
Er60     Er     0.8633   0.676   0.15
Ti61     Ti     0.7663   0.5774   0.2193
Ti62     Ti     0.7663   0.4226   0.2193
V63     V     0.5   0.5774   0.1759
V64     V     0.5   0.4226   0.1759
Er65     Er     0.3633   0.65   0.824
Er66     Er     0.3633   0.65   0.176
Ti67     Ti     0.2663   0.7193   0.9226
Ti68     Ti     0.2663   0.7193   0.0774
Er69     Er     0.1367   0.324   0.85
Er70     Er     0.1367   0.676   0.85
Ti71     Ti     0.2337   0.5774   0.7807
Ti72     Ti     0.2337   0.4226   0.7807
Er73     Er     0.1367   0.676   0.15
Er74     Er     0.1367   0.324   0.15
Ti75     Ti     0.2337   0.5774   0.2193
Ti76     Ti     0.2337   0.4226   0.2193
Er77     Er     0.3633   0.35   0.824
Er78     Er     0.3633   0.35   0.176
Ti79     Ti     0.2663   0.2807   0.9226
Ti80     Ti     0.2663   0.2807   0.0774
V81     V     0.0774   0.0   0.6759
V82     V     0.9226   0.0   0.6759
V83     V     0.0774   0.0   0.3241
V84     V     0.9226   0.0   0.3241
V85     V     0.8241   0.5   0.5774
V86     V     0.8241   0.5   0.4226
Er87     Er     0.824   0.3633   0.65
Er88     Er     0.176   0.3633   0.65
Ti89     Ti     0.9226   0.2663   0.7193
Ti90     Ti     0.0774   0.2663   0.7193
Er91     Er     0.85   0.1367   0.324
Er92     Er     0.85   0.1367   0.676
Ti93     Ti     0.7807   0.2337   0.5774
Ti94     Ti     0.7807   0.2337   0.4226
Er95     Er     0.15   0.1367   0.324
Er96     Er     0.15   0.1367   0.676
Ti97     Ti     0.2193   0.2337   0.5774
Ti98     Ti     0.2193   0.2337   0.4226
Er99     Er     0.824   0.3633   0.35
Er100     Er     0.176   0.3633   0.35
Ti101     Ti     0.9226   0.2663   0.2807
Ti102     Ti     0.0774   0.2663   0.2807
V103     V     0.1759   0.5   0.5774
V104     V     0.1759   0.5   0.4226
Er105     Er     0.85   0.8633   0.676
Er106     Er     0.85   0.8633   0.324
Ti107     Ti     0.7807   0.7663   0.5774
Ti108     Ti     0.7807   0.7663   0.4226
Er109     Er     0.176   0.6367   0.65
Er110     Er     0.824   0.6367   0.65
Ti111     Ti     0.9226   0.7337   0.7193
Ti112     Ti     0.0774   0.7337   0.7193
Er113     Er     0.824   0.6367   0.35
Er114     Er     0.176   0.6367   0.35
Ti115     Ti     0.9226   0.7337   0.2807
Ti116     Ti     0.0774   0.7337   0.2807
Er117     Er     0.15   0.8633   0.324
Er118     Er     0.15   0.8633   0.676
Ti119     Ti     0.2193   0.7663   0.4226
Ti120     Ti     0.2193   0.7663   0.5774
loop_
_geom_bond_atom_site_label_1
_geom_bond_atom_site_label_2
_geom_bond_distance
_geom_bond_site_symmetry_2
_ccdc_geom_bond_type
V1     Er16    10.0   .     S
V1     Er38    10.0   1_554     S
V1     V2    10.0   1_545     S
V2     Er12    10.0   .     S
V2     Er25    10.0   1_554     S
V2     V1    10.0   1_565     S
V3     Er15    10.0   .     S
V3     Er37    10.0   1_554     S
V3     V4    10.0   1_545     S
V4     Er11    10.0   .     S
V4     Er26    10.0   1_554     S
V4     V3    10.0   1_565     S
V5     Er7    10.0   .     S
V5     Er30    10.0   .     S
V5     V6    10.0   .     S
V6     Er33    10.0   .     S
V6     Er19    10.0   .     S
Er7     Ti13    10.0   .     S
Er7     Ti9    10.0   .     S
Er7     Ti108    10.0   .     S
Er8     Ti17    10.0   .     S
Er8     Ti10    10.0   .     S
Er8     V23    10.0   .     S
Er8     Ti94    10.0   .     S
Ti9     Ti10    10.0   1_565     S
Ti9     Er106    10.0   .     S
Ti9     Er12    10.0   .     S
Ti10     Ti9    10.0   1_545     S
Ti10     Er91    10.0   .     S
Ti10     Er16    10.0   .     S
Er11     Ti21    10.0   .     S
Er11     Ti14    10.0   .     S
Er11     Ti68    10.0   .     S
Er12     Ti13    10.0   .     S
Er12     Ti54    10.0   .     S
Ti13     Ti14    10.0   .     S
Ti13     Er51    10.0   .     S
Ti14     Er66    10.0   .     S
Ti14     Er19    10.0   .     S
Er15     Ti22    10.0   .     S
Er15     Ti18    10.0   .     S
Er15     Ti80    10.0   .     S
Er16     Ti17    10.0   .     S
Er16     Ti58    10.0   .     S
Ti17     Ti18    10.0   .     S
Ti17     Er56    10.0   .     S
Ti18     Er78    10.0   .     S
Ti18     Er20    10.0   .     S
Er19     Ti21    10.0   .     S
Er19     Ti119    10.0   .     S
Er20     Ti22    10.0   .     S
Er20     V24    10.0   .     S
Er20     Ti98    10.0   .     S
Ti21     Ti22    10.0   1_565     S
Ti21     Er117    10.0   .     S
Ti22     Ti21    10.0   1_545     S
Ti22     Er95    10.0   .     S
V23     Er29    10.0   .     S
V23     V24    10.0   .     S
V24     Er34    10.0   .     S
Er25     V2    10.0   1_556     S
Er25     Ti31    10.0   .     S
Er25     Ti27    10.0   .     S
Er25     Ti53    10.0   .     S
Er26     V4    10.0   1_556     S
Er26     Ti35    10.0   .     S
Er26     Ti28    10.0   .     S
Er26     Ti67    10.0   .     S
Ti27     Ti28    10.0   .     S
Ti27     Er52    10.0   .     S
Ti27     Er30    10.0   .     S
Ti28     Er65    10.0   .     S
Ti28     Er33    10.0   .     S
Er29     Ti40    10.0   .     S
Er29     Ti32    10.0   .     S
Er29     Ti93    10.0   .     S
Er30     Ti31    10.0   .     S
Er30     Ti107    10.0   .     S
Ti31     Ti32    10.0   1_565     S
Ti31     Er105    10.0   .     S
Ti32     Ti31    10.0   1_545     S
Ti32     Er92    10.0   .     S
Ti32     Er38    10.0   .     S
Er33     Ti35    10.0   .     S
Er33     Ti120    10.0   .     S
Er34     Ti39    10.0   .     S
Er34     Ti36    10.0   .     S
Er34     Ti97    10.0   .     S
Ti35     Ti36    10.0   1_565     S
Ti35     Er118    10.0   .     S
Ti36     Ti35    10.0   1_545     S
Ti36     Er96    10.0   .     S
Ti36     Er37    10.0   .     S
Er37     V3    10.0   1_556     S
Er37     Ti39    10.0   .     S
Er37     Ti79    10.0   .     S
Er38     V1    10.0   1_556     S
Er38     Ti40    10.0   .     S
Er38     Ti57    10.0   .     S
Ti39     Ti40    10.0   .     S
Ti39     Er77    10.0   .     S
Ti40     Er55    10.0   .     S
V41     Er73    10.0   .     S
V41     Er60    10.0   1_455     S
V41     V42    10.0   1_554     S
V42     Er70    10.0   .     S
V42     Er47    10.0   1_455     S
V42     V41    10.0   1_556     S
V43     Er74    10.0   .     S
V43     Er59    10.0   1_455     S
V43     V44    10.0   1_554     S
V44     Er69    10.0   .     S
V44     Er48    10.0   1_455     S
V44     V43    10.0   1_556     S
V45     Er65    10.0   .     S
V45     Er52    10.0   .     S
V45     V46    10.0   .     S
V46     Er55    10.0   .     S
V46     Er77    10.0   .     S
Er47     V42    10.0   1_655     S
Er47     Ti53    10.0   .     S
Er47     Ti49    10.0   .     S
Er47     Ti111    10.0   .     S
Er48     V44    10.0   1_655     S
Er48     Ti57    10.0   .     S
Er48     Ti50    10.0   .     S
Er48     Ti89    10.0   .     S
Ti49     Ti50    10.0   .     S
Ti49     Er110    10.0   .     S
Ti49     Er52    10.0   .     S
Ti50     Er87    10.0   .     S
Ti50     Er55    10.0   .     S
Er51     Ti61    10.0   .     S
Er51     Ti54    10.0   .     S
Er51     V63    10.0   .     S
Er52     Ti53    10.0   .     S
Ti53     Ti54    10.0   1_556     S
Ti54     Ti53    10.0   1_554     S
Ti54     Er60    10.0   .     S
Er55     Ti57    10.0   .     S
Er56     Ti62    10.0   .     S
Er56     Ti58    10.0   .     S
Er56     V64    10.0   .     S
Ti57     Ti58    10.0   1_556     S
Ti58     Ti57    10.0   1_554     S
Ti58     Er59    10.0   .     S
Er59     V43    10.0   1_655     S
Er59     Ti62    10.0   .     S
Er59     Ti101    10.0   .     S
Er60     V41    10.0   1_655     S
Er60     Ti61    10.0   .     S
Er60     Ti115    10.0   .     S
Ti61     Ti62    10.0   .     S
Ti61     Er113    10.0   .     S
Ti62     Er99    10.0   .     S
V63     Er66    10.0   .     S
V63     V64    10.0   .     S
V64     Er78    10.0   .     S
Er65     Ti71    10.0   .     S
Er65     Ti67    10.0   .     S
Er66     Ti75    10.0   .     S
Er66     Ti68    10.0   .     S
Ti67     Ti68    10.0   1_556     S
Ti67     Er70    10.0   .     S
Ti68     Ti67    10.0   1_554     S
Ti68     Er73    10.0   .     S
Er69     Ti79    10.0   .     S
Er69     Ti72    10.0   .     S
Er69     Ti90    10.0   .     S
Er70     Ti71    10.0   .     S
Er70     Ti112    10.0   .     S
Ti71     Ti72    10.0   .     S
Ti71     Er109    10.0   .     S
Ti72     Er88    10.0   .     S
Ti72     Er77    10.0   .     S
Er73     Ti75    10.0   .     S
Er73     Ti116    10.0   .     S
Er74     Ti80    10.0   .     S
Er74     Ti76    10.0   .     S
Er74     Ti102    10.0   .     S
Ti75     Ti76    10.0   .     S
Ti75     Er114    10.0   .     S
Ti76     Er100    10.0   .     S
Ti76     Er78    10.0   .     S
Er77     Ti79    10.0   .     S
Er78     Ti80    10.0   .     S
Ti79     Ti80    10.0   1_556     S
Ti80     Ti79    10.0   1_554     S
V81     Er96    10.0   .     S
V81     Er118    10.0   1_545     S
V81     V82    10.0   1_455     S
V82     Er92    10.0   .     S
V82     Er105    10.0   1_545     S
V82     V81    10.0   1_655     S
V83     Er95    10.0   .     S
V83     Er117    10.0   1_545     S
V83     V84    10.0   1_455     S
V84     Er91    10.0   .     S
V84     Er106    10.0   1_545     S
V84     V83    10.0   1_655     S
V85     Er87    10.0   .     S
V85     Er110    10.0   .     S
V85     V86    10.0   .     S
V86     Er113    10.0   .     S
V86     Er99    10.0   .     S
Er87     Ti93    10.0   .     S
Er87     Ti89    10.0   .     S
Er88     Ti97    10.0   .     S
Er88     Ti90    10.0   .     S
Er88     V103    10.0   .     S
Ti89     Ti90    10.0   1_655     S
Ti89     Er92    10.0   .     S
Ti90     Ti89    10.0   1_455     S
Ti90     Er96    10.0   .     S
Er91     Ti101    10.0   .     S
Er91     Ti94    10.0   .     S
Er92     Ti93    10.0   .     S
Ti93     Ti94    10.0   .     S
Ti94     Er99    10.0   .     S
Er95     Ti102    10.0   .     S
Er95     Ti98    10.0   .     S
Er96     Ti97    10.0   .     S
Ti97     Ti98    10.0   .     S
Ti98     Er100    10.0   .     S
Er99     Ti101    10.0   .     S
Er100     Ti102    10.0   .     S
Er100     V104    10.0   .     S
Ti101     Ti102    10.0   1_655     S
Ti102     Ti101    10.0   1_455     S
V103     Er109    10.0   .     S
V103     V104    10.0   .     S
V104     Er114    10.0   .     S
Er105     V82    10.0   1_565     S
Er105     Ti111    10.0   .     S
Er105     Ti107    10.0   .     S
Er106     V84    10.0   1_565     S
Er106     Ti115    10.0   .     S
Er106     Ti108    10.0   .     S
Ti107     Ti108    10.0   .     S
Ti107     Er110    10.0   .     S
Ti108     Er113    10.0   .     S
Er109     Ti120    10.0   .     S
Er109     Ti112    10.0   .     S
Er110     Ti111    10.0   .     S
Ti111     Ti112    10.0   1_655     S
Ti112     Ti111    10.0   1_455     S
Ti112     Er118    10.0   .     S
Er113     Ti115    10.0   .     S
Er114     Ti119    10.0   .     S
Er114     Ti116    10.0   .     S
Ti115     Ti116    10.0   1_655     S
Ti116     Ti115    10.0   1_455     S
Ti116     Er117    10.0   .     S
Er117     V83    10.0   1_565     S
Er117     Ti119    10.0   .     S
Er118     V81    10.0   1_565     S
Er118     Ti120    10.0   .     S
Ti119     Ti120    10.0   .     S
