data_csp
_audit_creation_date              2020-02-02
_audit_creation_method            'Pymatgen'
_symmetry_space_group_name_H-M    'P1'
_symmetry_Int_Tables_number       1
loop_
_symmetry_equiv_pos_as_xyz
  x,y,z
_cell_length_a                    62.0206
_cell_length_b                    62.0206
_cell_length_c                    62.0206
_cell_angle_alpha                 90.0
_cell_angle_beta                 90.0
_cell_angle_gamma                 90.0
loop_
_atom_site_label
_atom_site_type_symbol
_atom_site_fract_x
_atom_site_fract_y
_atom_site_fract_z
V1     V     0.5806   0.0806   0.0
V2     V     0.4194   0.0806   0.0
V3     V     0.5806   0.9194   0.0
V4     V     0.4194   0.9194   0.0
V5     V     0.0806   0.0   0.5806
V6     V     0.0806   0.0   0.4194
V7     V     0.9194   0.0   0.5806
V8     V     0.9194   0.0   0.4194
V9     V     0.0   0.5806   0.0806
V10     V     0.0   0.4194   0.0806
V11     V     0.0   0.4194   0.9194
V12     V     0.0   0.5806   0.9194
Ti13     Ti     0.7434   0.7243   0.9194
Er14     Er     0.658   0.8536   0.8748
Ti15     Ti     0.7434   0.7243   0.0806
Er16     Er     0.658   0.8536   0.1252
Ti17     Ti     0.7243   0.9194   0.7434
Er18     Er     0.8536   0.8748   0.658
Ti19     Ti     0.7243   0.0806   0.7434
Er20     Er     0.8536   0.1252   0.658
Ti21     Ti     0.9194   0.7434   0.7243
Er22     Er     0.8748   0.658   0.8536
Ti23     Ti     0.0806   0.7434   0.7243
Er24     Er     0.1252   0.658   0.8536
Ti25     Ti     0.7243   0.9194   0.2566
Er26     Er     0.8536   0.8748   0.342
Ti27     Ti     0.7243   0.0806   0.2566
Er28     Er     0.8536   0.1252   0.342
Ti29     Ti     0.7434   0.2757   0.9194
Er30     Er     0.658   0.1464   0.8748
Ti31     Ti     0.7434   0.2757   0.0806
Er32     Er     0.658   0.1464   0.1252
Ti33     Ti     0.9194   0.2566   0.7243
Er34     Er     0.8748   0.342   0.8536
Ti35     Ti     0.0806   0.2566   0.7243
Er36     Er     0.1252   0.342   0.8536
Ti37     Ti     0.2757   0.9194   0.7434
Er38     Er     0.1464   0.8748   0.658
Ti39     Ti     0.2757   0.0806   0.7434
Er40     Er     0.1464   0.1252   0.658
Ti41     Ti     0.9194   0.2566   0.2757
Er42     Er     0.8748   0.342   0.1464
Ti43     Ti     0.0806   0.2566   0.2757
Er44     Er     0.1252   0.342   0.1464
Ti45     Ti     0.2757   0.9194   0.2566
Er46     Er     0.1464   0.8748   0.342
Ti47     Ti     0.2757   0.0806   0.2566
Er48     Er     0.1464   0.1252   0.342
Ti49     Ti     0.2566   0.2757   0.9194
Er50     Er     0.342   0.1464   0.8748
Ti51     Ti     0.2566   0.2757   0.0806
Er52     Er     0.342   0.1464   0.1252
Ti53     Ti     0.2566   0.7243   0.9194
Er54     Er     0.342   0.8536   0.8748
Ti55     Ti     0.2566   0.7243   0.0806
Er56     Er     0.342   0.8536   0.1252
Ti57     Ti     0.9194   0.7434   0.2757
Er58     Er     0.8748   0.658   0.1464
Ti59     Ti     0.0806   0.7434   0.2757
Er60     Er     0.1252   0.658   0.1464
V61     V     0.0806   0.5   0.5806
V62     V     0.0806   0.5   0.4194
V63     V     0.9194   0.5   0.4194
V64     V     0.9194   0.5   0.5806
V65     V     0.5806   0.0806   0.5
V66     V     0.4194   0.0806   0.5
V67     V     0.4194   0.9194   0.5
V68     V     0.5806   0.9194   0.5
V69     V     0.5   0.5806   0.0806
V70     V     0.5   0.4194   0.0806
V71     V     0.5   0.4194   0.9194
V72     V     0.5   0.5806   0.9194
Ti73     Ti     0.2243   0.7566   0.5806
Er74     Er     0.3536   0.842   0.6252
Ti75     Ti     0.2243   0.7566   0.4194
Er76     Er     0.3536   0.842   0.3748
Ti77     Ti     0.5806   0.2243   0.7566
Er78     Er     0.6252   0.3536   0.842
Ti79     Ti     0.4194   0.2243   0.7566
Er80     Er     0.3748   0.3536   0.842
Ti81     Ti     0.7566   0.5806   0.2243
Er82     Er     0.842   0.6252   0.3536
Ti83     Ti     0.7566   0.4194   0.2243
Er84     Er     0.842   0.3748   0.3536
Ti85     Ti     0.2434   0.5806   0.7757
Er86     Er     0.158   0.6252   0.6464
Ti87     Ti     0.2433   0.4194   0.7757
Er88     Er     0.158   0.3748   0.6464
Ti89     Ti     0.5806   0.7757   0.7566
Er90     Er     0.6252   0.6464   0.842
Ti91     Ti     0.4194   0.7757   0.7566
Er92     Er     0.3748   0.6464   0.842
Ti93     Ti     0.5806   0.7757   0.2434
Er94     Er     0.6252   0.6464   0.158
Ti95     Ti     0.4194   0.7757   0.2433
Er96     Er     0.3748   0.6464   0.158
Ti97     Ti     0.7757   0.7566   0.5806
Er98     Er     0.6464   0.842   0.6252
Ti99     Ti     0.7757   0.7566   0.4194
Er100     Er     0.6464   0.842   0.3748
Ti101     Ti     0.2243   0.2433   0.5806
Er102     Er     0.3536   0.158   0.6252
Ti103     Ti     0.2243   0.2434   0.4194
Er104     Er     0.3536   0.158   0.3748
Ti105     Ti     0.4194   0.2243   0.2434
Er106     Er     0.3748   0.3536   0.158
Ti107     Ti     0.5806   0.2243   0.2433
Er108     Er     0.6252   0.3536   0.158
Ti109     Ti     0.2433   0.5806   0.2243
Er110     Er     0.158   0.6252   0.3536
Ti111     Ti     0.2434   0.4194   0.2243
Er112     Er     0.158   0.3748   0.3536
Ti113     Ti     0.7566   0.5806   0.7757
Er114     Er     0.842   0.6252   0.6464
Ti115     Ti     0.7566   0.4194   0.7757
Er116     Er     0.842   0.3748   0.6464
Ti117     Ti     0.7757   0.2434   0.5806
Er118     Er     0.6464   0.158   0.6252
Ti119     Ti     0.7757   0.2433   0.4194
Er120     Er     0.6464   0.158   0.3748
loop_
_geom_bond_atom_site_label_1
_geom_bond_atom_site_label_2
_geom_bond_distance
_geom_bond_site_symmetry_2
_ccdc_geom_bond_type
V1     V3    10.0   1_545     S
V1     V2    10.0   .     S
V1     Er30    10.0   1_554     S
V1     Er32    10.0   .     S
V2     V4    10.0   1_545     S
V2     Er50    10.0   1_554     S
V2     Er52    10.0   .     S
V3     V1    10.0   1_565     S
V3     V4    10.0   .     S
V3     Er14    10.0   1_554     S
V3     Er16    10.0   .     S
V4     V2    10.0   1_565     S
V4     Er54    10.0   1_554     S
V4     Er56    10.0   .     S
V5     V7    10.0   1_455     S
V5     V6    10.0   .     S
V5     Er38    10.0   1_545     S
V5     Er40    10.0   .     S
V6     V8    10.0   1_455     S
V6     Er46    10.0   1_545     S
V6     Er48    10.0   .     S
V7     V5    10.0   1_655     S
V7     V8    10.0   .     S
V7     Er18    10.0   1_545     S
V7     Er20    10.0   .     S
V8     V6    10.0   1_655     S
V8     Er26    10.0   1_545     S
V8     Er28    10.0   .     S
V9     V12    10.0   1_554     S
V9     V10    10.0   .     S
V9     Er58    10.0   1_455     S
V9     Er60    10.0   .     S
V10     V11    10.0   1_554     S
V10     Er42    10.0   1_455     S
V10     Er44    10.0   .     S
V11     V10    10.0   1_556     S
V11     V12    10.0   .     S
V11     Er34    10.0   1_455     S
V11     Er36    10.0   .     S
V12     V9    10.0   1_556     S
V12     Er22    10.0   1_455     S
V12     Er24    10.0   .     S
Ti13     Er14    10.0   .     S
Ti13     Ti15    10.0   1_556     S
Ti13     Er22    10.0   .     S
Ti13     Er90    10.0   .     S
Er14     V3    10.0   1_556     S
Er14     Ti89    10.0   .     S
Er14     Ti17    10.0   .     S
Ti15     Er16    10.0   .     S
Ti15     Ti13    10.0   1_554     S
Ti15     Er58    10.0   .     S
Ti15     Er94    10.0   .     S
Er16     Ti93    10.0   .     S
Er16     Ti25    10.0   .     S
Ti17     Er18    10.0   .     S
Ti17     Ti19    10.0   1_565     S
Ti17     Er98    10.0   .     S
Er18     V7    10.0   1_565     S
Er18     Ti97    10.0   .     S
Er18     Ti21    10.0   .     S
Ti19     Er20    10.0   .     S
Ti19     Ti17    10.0   1_545     S
Ti19     Er30    10.0   .     S
Ti19     Er118    10.0   .     S
Er20     Ti117    10.0   .     S
Er20     Ti33    10.0   .     S
Ti21     Er22    10.0   .     S
Ti21     Ti23    10.0   1_655     S
Ti21     Er114    10.0   .     S
Er22     V12    10.0   1_655     S
Er22     Ti113    10.0   .     S
Ti23     Er24    10.0   .     S
Ti23     Ti21    10.0   1_455     S
Ti23     Er38    10.0   .     S
Ti23     Er86    10.0   .     S
Er24     Ti85    10.0   .     S
Er24     Ti53    10.0   .     S
Ti25     Er26    10.0   .     S
Ti25     Ti27    10.0   1_565     S
Ti25     Er100    10.0   .     S
Er26     V8    10.0   1_565     S
Er26     Ti99    10.0   .     S
Er26     Ti57    10.0   .     S
Ti27     Er28    10.0   .     S
Ti27     Ti25    10.0   1_545     S
Ti27     Er32    10.0   .     S
Ti27     Er120    10.0   .     S
Er28     Ti119    10.0   .     S
Er28     Ti41    10.0   .     S
Ti29     Er30    10.0   .     S
Ti29     Ti31    10.0   1_556     S
Ti29     Er34    10.0   .     S
Ti29     Er78    10.0   .     S
Er30     V1    10.0   1_556     S
Er30     Ti77    10.0   .     S
Ti31     Er32    10.0   .     S
Ti31     Ti29    10.0   1_554     S
Ti31     Er42    10.0   .     S
Ti31     Er108    10.0   .     S
Er32     Ti107    10.0   .     S
Ti33     Er34    10.0   .     S
Ti33     Ti35    10.0   1_655     S
Ti33     Er116    10.0   .     S
Er34     V11    10.0   1_655     S
Er34     Ti115    10.0   .     S
Ti35     Er36    10.0   .     S
Ti35     Ti33    10.0   1_455     S
Ti35     Er40    10.0   .     S
Ti35     Er88    10.0   .     S
Er36     Ti87    10.0   .     S
Er36     Ti49    10.0   .     S
Ti37     Er38    10.0   .     S
Ti37     Ti39    10.0   1_565     S
Ti37     Er54    10.0   .     S
Ti37     Er74    10.0   .     S
Er38     V5    10.0   1_565     S
Er38     Ti73    10.0   .     S
Ti39     Er40    10.0   .     S
Ti39     Ti37    10.0   1_545     S
Ti39     Er50    10.0   .     S
Ti39     Er102    10.0   .     S
Er40     Ti101    10.0   .     S
Ti41     Er42    10.0   .     S
Ti41     Ti43    10.0   1_655     S
Ti41     Er84    10.0   .     S
Er42     V10    10.0   1_655     S
Er42     Ti83    10.0   .     S
Ti43     Er44    10.0   .     S
Ti43     Ti41    10.0   1_455     S
Ti43     Er48    10.0   .     S
Ti43     Er112    10.0   .     S
Er44     Ti111    10.0   .     S
Er44     Ti51    10.0   .     S
Ti45     Er46    10.0   .     S
Ti45     Ti47    10.0   1_565     S
Ti45     Er56    10.0   .     S
Ti45     Er76    10.0   .     S
Er46     V6    10.0   1_565     S
Er46     Ti75    10.0   .     S
Er46     Ti59    10.0   .     S
Ti47     Er48    10.0   .     S
Ti47     Ti45    10.0   1_545     S
Ti47     Er52    10.0   .     S
Ti47     Er104    10.0   .     S
Er48     Ti103    10.0   .     S
Ti49     Er50    10.0   .     S
Ti49     Ti51    10.0   1_556     S
Ti49     Er80    10.0   .     S
Er50     V2    10.0   1_556     S
Er50     Ti79    10.0   .     S
Ti51     Er52    10.0   .     S
Ti51     Ti49    10.0   1_554     S
Ti51     Er106    10.0   .     S
Er52     Ti105    10.0   .     S
Ti53     Er54    10.0   .     S
Ti53     Ti55    10.0   1_556     S
Ti53     Er92    10.0   .     S
Er54     V4    10.0   1_556     S
Er54     Ti91    10.0   .     S
Ti55     Er56    10.0   .     S
Ti55     Ti53    10.0   1_554     S
Ti55     Er60    10.0   .     S
Ti55     Er96    10.0   .     S
Er56     Ti95    10.0   .     S
Ti57     Er58    10.0   .     S
Ti57     Ti59    10.0   1_655     S
Ti57     Er82    10.0   .     S
Er58     V9    10.0   1_655     S
Er58     Ti81    10.0   .     S
Ti59     Er60    10.0   .     S
Ti59     Ti57    10.0   1_455     S
Ti59     Er110    10.0   .     S
Er60     Ti109    10.0   .     S
V61     V64    10.0   1_455     S
V61     V62    10.0   .     S
V61     Er86    10.0   .     S
V61     Er88    10.0   .     S
V62     V63    10.0   1_455     S
V62     Er110    10.0   .     S
V62     Er112    10.0   .     S
V63     V62    10.0   1_655     S
V63     V64    10.0   .     S
V63     Er82    10.0   .     S
V63     Er84    10.0   .     S
V64     V61    10.0   1_655     S
V64     Er114    10.0   .     S
V64     Er116    10.0   .     S
V65     V68    10.0   1_545     S
V65     V66    10.0   .     S
V65     Er118    10.0   .     S
V65     Er120    10.0   .     S
V66     V67    10.0   1_545     S
V66     Er102    10.0   .     S
V66     Er104    10.0   .     S
V67     V66    10.0   1_565     S
V67     V68    10.0   .     S
V67     Er74    10.0   .     S
V67     Er76    10.0   .     S
V68     V65    10.0   1_565     S
V68     Er98    10.0   .     S
V68     Er100    10.0   .     S
V69     V72    10.0   1_554     S
V69     V70    10.0   .     S
V69     Er94    10.0   .     S
V69     Er96    10.0   .     S
V70     V71    10.0   1_554     S
V70     Er106    10.0   .     S
V70     Er108    10.0   .     S
V71     V70    10.0   1_556     S
V71     V72    10.0   .     S
V71     Er78    10.0   .     S
V71     Er80    10.0   .     S
V72     V69    10.0   1_556     S
V72     Er90    10.0   .     S
V72     Er92    10.0   .     S
Ti73     Er74    10.0   .     S
Ti73     Ti75    10.0   .     S
Ti73     Er86    10.0   .     S
Er74     Ti91    10.0   .     S
Ti75     Er76    10.0   .     S
Ti75     Er110    10.0   .     S
Er76     Ti95    10.0   .     S
Ti77     Er78    10.0   .     S
Ti77     Ti79    10.0   .     S
Ti77     Er118    10.0   .     S
Er78     Ti115    10.0   .     S
Ti79     Er80    10.0   .     S
Ti79     Er102    10.0   .     S
Er80     Ti87    10.0   .     S
Ti81     Er82    10.0   .     S
Ti81     Ti83    10.0   .     S
Ti81     Er94    10.0   .     S
Er82     Ti99    10.0   .     S
Ti83     Er84    10.0   .     S
Ti83     Er108    10.0   .     S
Er84     Ti119    10.0   .     S
Ti85     Er86    10.0   .     S
Ti85     Ti87    10.0   .     S
Ti85     Er92    10.0   .     S
Ti87     Er88    10.0   .     S
Er88     Ti101    10.0   .     S
Ti89     Er90    10.0   .     S
Ti89     Ti91    10.0   .     S
Ti89     Er98    10.0   .     S
Er90     Ti113    10.0   .     S
Ti91     Er92    10.0   .     S
Ti93     Er94    10.0   .     S
Ti93     Ti95    10.0   .     S
Ti93     Er100    10.0   .     S
Ti95     Er96    10.0   .     S
Er96     Ti109    10.0   .     S
Ti97     Er98    10.0   .     S
Ti97     Ti99    10.0   .     S
Ti97     Er114    10.0   .     S
Ti99     Er100    10.0   .     S
Ti101     Er102    10.0   .     S
Ti101     Ti103    10.0   .     S
Ti103     Er104    10.0   .     S
Ti103     Er112    10.0   .     S
Er104     Ti105    10.0   .     S
Ti105     Er106    10.0   .     S
Ti105     Ti107    10.0   .     S
Er106     Ti111    10.0   .     S
Ti107     Er108    10.0   .     S
Ti107     Er120    10.0   .     S
Ti109     Er110    10.0   .     S
Ti109     Ti111    10.0   .     S
Ti111     Er112    10.0   .     S
Ti113     Er114    10.0   .     S
Ti113     Ti115    10.0   .     S
Ti115     Er116    10.0   .     S
Er116     Ti117    10.0   .     S
Ti117     Er118    10.0   .     S
Ti117     Ti119    10.0   .     S
Ti119     Er120    10.0   .     S
