data_cssa
_audit_creation_date              2020-02-02
_audit_creation_method            'Pymatgen'
_symmetry_space_group_name_H-M    'P1'
_symmetry_Int_Tables_number       1
loop_
_symmetry_equiv_pos_as_xyz
  x,y,z
_cell_length_a                    15.6963
_cell_length_b                    15.6963
_cell_length_c                    50.8014
_cell_angle_alpha                 90.0
_cell_angle_beta                 90.0
_cell_angle_gamma                 90.0
loop_
_atom_site_label
_atom_site_type_symbol
_atom_site_fract_x
_atom_site_fract_y
_atom_site_fract_z
V1     V     0.3127   0.2423   0.9304
V2     V     0.6873   0.7577   0.9304
V3     V     0.2423   0.6873   0.0696
V4     V     0.7577   0.3127   0.0696
Er5     Er     0.8185   0.9999   0.1804
Er6     Er     0.5001   0.6815   0.3196
Er7     Er     0.1815   0.0001   0.1804
Er8     Er     0.4999   0.3185   0.3196
Er9     Er     0.3185   0.5001   0.6804
Er10     Er     0.0001   0.8185   0.8196
Er11     Er     0.9999   0.1815   0.8196
Er12     Er     0.6815   0.4999   0.6804
V13     V     0.2577   0.1873   0.5696
V14     V     0.1873   0.7423   0.4304
V15     V     0.7423   0.8127   0.5696
V16     V     0.8127   0.2577   0.4304
loop_
_geom_bond_atom_site_label_1
_geom_bond_atom_site_label_2
_geom_bond_distance
_geom_bond_site_symmetry_2
_ccdc_geom_bond_type
V1     V4    9.999   1_556     S
V1     V2    10.0   .     S
V1     V3    9.999   1_556     S
V1     Er10    10.002   1_545     S
V2     V3    9.999   1_556     S
V2     V4    9.999   1_556     S
V2     Er11    10.002   1_565     S
V3     V2    9.999   1_554     S
V3     V1    9.999   1_554     S
V3     V4    10.0   .     S
V3     Er5    10.002   1_455     S
V4     V1    9.999   1_554     S
V4     V2    9.999   1_554     S
V4     Er7    10.002   1_655     S
Er5     Er6    9.998   .     S
Er5     Er8    10.0   1_565     S
Er5     Er7    9.999   1_565     S
Er5     V3    10.002   1_655     S
Er6     Er8    9.999   1_565     S
Er6     Er7    10.0   1_565     S
Er6     V16    10.002   .     S
Er7     V4    10.002   1_455     S
Er7     Er6    10.0   1_545     S
Er7     Er5    9.999   1_545     S
Er7     Er8    9.998   .     S
Er8     V14    10.002   .     S
Er8     Er5    10.0   1_545     S
Er8     Er6    9.999   1_545     S
Er9     Er10    9.998   .     S
Er9     Er11    10.0   1_455     S
Er9     Er12    9.999   1_455     S
Er9     V15    10.002   .     S
Er10     Er12    10.0   1_455     S
Er10     Er11    9.999   1_455     S
Er10     V1    10.002   1_565     S
Er11     V2    10.002   1_545     S
Er11     Er10    9.999   1_655     S
Er11     Er9    10.0   1_655     S
Er11     Er12    9.998   .     S
Er12     V13    10.002   .     S
Er12     Er10    10.0   1_655     S
Er12     Er9    9.999   1_655     S
V13     V14    9.999   1_545     S
V13     V15    10.0   1_445     S
V13     V16    9.999   1_455     S
V14     V13    9.999   1_565     S
V14     V15    9.999   1_455     S
V14     V16    10.0   1_465     S
V15     V13    10.0   1_665     S
V15     V14    9.999   1_655     S
V15     V16    9.999   1_565     S
V16     V15    9.999   1_545     S
V16     V13    9.999   1_655     S
V16     V14    10.0   1_645     S
