data_ctnx
_audit_creation_date              2020-02-02
_audit_creation_method            'Pymatgen'
_symmetry_space_group_name_H-M    'P1'
_symmetry_Int_Tables_number       1
loop_
_symmetry_equiv_pos_as_xyz
  x,y,z
_cell_length_a                    23.0939
_cell_length_b                    23.0939
_cell_length_c                    23.0939
_cell_angle_alpha                 90.0
_cell_angle_beta                 90.0
_cell_angle_gamma                 90.0
loop_
_atom_site_label
_atom_site_type_symbol
_atom_site_fract_x
_atom_site_fract_y
_atom_site_fract_z
V1     V     0.4871   0.4871   0.4871
Er2     Er     0.625   0.0   0.75
Er3     Er     0.5   0.25   0.125
Er4     Er     0.75   0.625   0.0
Er5     Er     0.125   0.5   0.25
Er6     Er     0.25   0.875   0.0
Er7     Er     0.875   0.0   0.25
Er8     Er     0.0   0.25   0.875
Er9     Er     0.25   0.125   0.5
Er10     Er     0.0   0.75   0.625
V11     V     0.7629   0.7371   0.2629
Er12     Er     0.5   0.75   0.375
Er13     Er     0.375   0.5   0.75
Er14     Er     0.75   0.375   0.5
V15     V     0.7371   0.2629   0.7629
V16     V     0.0129   0.4871   0.5129
V17     V     0.7629   0.2629   0.2371
V18     V     0.5129   0.9871   0.0129
V19     V     0.2371   0.7629   0.2629
V20     V     0.0129   0.5129   0.9871
V21     V     0.9871   0.0129   0.5129
V22     V     0.2371   0.2371   0.2371
V23     V     0.4871   0.5129   0.0129
V24     V     0.2629   0.7629   0.7371
V25     V     0.7371   0.7371   0.7371
V26     V     0.5129   0.0129   0.4871
V27     V     0.9871   0.9871   0.9871
V28     V     0.2629   0.2371   0.7629
loop_
_geom_bond_atom_site_label_1
_geom_bond_atom_site_label_2
_geom_bond_distance
_geom_bond_site_symmetry_2
_ccdc_geom_bond_type
V1     V22    10.0   .     S
V1     Er5    10.0   .     S
V1     Er9    10.0   .     S
V1     Er3    10.0   .     S
V1     V25    10.0   .     S
Er2     V21    10.0   .     S
Er2     V24    10.0   1_545     S
Er2     V28    10.0   .     S
Er2     V27    10.0   1_545     S
Er3     V15    10.0   1_554     S
Er3     V26    10.0   .     S
Er3     V28    10.0   1_554     S
Er4     V15    10.0   1_554     S
Er4     V18    10.0   .     S
Er4     V17    10.0   .     S
Er4     V27    10.0   1_554     S
Er5     V23    10.0   .     S
Er5     V11    10.0   1_455     S
Er5     V17    10.0   1_455     S
Er6     V23    10.0   .     S
Er6     V20    10.0   1_554     S
Er6     V28    10.0   1_564     S
Er6     V22    10.0   1_565     S
Er7     V18    10.0   1_545     S
Er7     V26    10.0   .     S
Er7     V19    10.0   1_645     S
Er7     V22    10.0   1_655     S
Er8     V16    10.0   .     S
Er8     V21    10.0   1_455     S
Er8     V17    10.0   1_456     S
Er8     V22    10.0   1_556     S
Er9     V16    10.0   .     S
Er9     V24    10.0   1_545     S
Er9     V19    10.0   1_545     S
Er10     V20    10.0   .     S
Er10     V11    10.0   1_455     S
Er10     V27    10.0   1_455     S
Er10     V19    10.0   .     S
V11     V18    10.0   .     S
V11     V16    10.0   1_655     S
V11     Er5    10.0   1_655     S
V11     Er10    10.0   1_655     S
V11     Er14    10.0   .     S
Er12     V23    10.0   .     S
Er12     V18    10.0   .     S
Er12     V25    10.0   .     S
Er12     V24    10.0   .     S
Er13     V16    10.0   .     S
Er13     V15    10.0   .     S
Er13     V20    10.0   .     S
Er13     V25    10.0   .     S
Er14     V26    10.0   .     S
Er14     V21    10.0   .     S
Er14     V25    10.0   .     S
V15     V23    10.0   1_556     S
V15     Er3    10.0   1_556     S
V15     Er4    10.0   1_556     S
V15     V21    10.0   .     S
V16     V28    10.0   .     S
V16     V11    10.0   1_455     S
V17     V26    10.0   .     S
V17     V20    10.0   1_654     S
V17     Er5    10.0   1_655     S
V17     Er8    10.0   1_654     S
V18     Er7    10.0   1_565     S
V18     V28    10.0   1_564     S
V19     V23    10.0   .     S
V19     V21    10.0   1_465     S
V19     Er9    10.0   1_565     S
V19     Er7    10.0   1_465     S
V20     V24    10.0   .     S
V20     Er6    10.0   1_556     S
V20     V17    10.0   1_456     S
V21     Er8    10.0   1_655     S
V21     V19    10.0   1_645     S
V22     V27    10.0   1_444     S
V22     Er8    10.0   1_554     S
V22     Er6    10.0   1_545     S
V22     Er7    10.0   1_455     S
V23     V15    10.0   1_554     S
V24     V26    10.0   1_565     S
V24     Er2    10.0   1_565     S
V24     Er9    10.0   1_565     S
V25     V27    10.0   .     S
V26     V24    10.0   1_545     S
V27     Er10    10.0   1_655     S
V27     Er4    10.0   1_556     S
V27     Er2    10.0   1_565     S
V27     V22    10.0   1_666     S
V28     V18    10.0   1_546     S
V28     Er3    10.0   1_556     S
V28     Er6    10.0   1_546     S
