data_cus
_audit_creation_date              2020-02-02
_audit_creation_method            'Pymatgen'
_symmetry_space_group_name_H-M    'P1'
_symmetry_Int_Tables_number       1
loop_
_symmetry_equiv_pos_as_xyz
  x,y,z
_cell_length_a                    16.8734
_cell_length_b                    41.9553
_cell_length_c                    40.8215
_cell_angle_alpha                 90.0
_cell_angle_beta                 90.0
_cell_angle_gamma                 90.0
loop_
_atom_site_label
_atom_site_type_symbol
_atom_site_fract_x
_atom_site_fract_y
_atom_site_fract_z
Er1     Er     0.0   0.3836   0.9738
V2     V     0.5   0.302   0.6275
V3     V     0.5   0.302   0.8725
Er4     Er     0.0   0.3836   0.5262
Er5     Er     0.0   0.6164   0.4738
V6     V     0.5   0.698   0.1275
V7     V     0.5   0.698   0.3725
Er8     Er     0.0   0.6164   0.0262
Er9     Er     0.5   0.8836   0.9738
V10     V     0.0   0.802   0.6275
V11     V     0.0   0.802   0.8725
Er12     Er     0.5   0.8836   0.5262
Er13     Er     0.5   0.1164   0.4738
V14     V     0.0   0.198   0.1275
V15     V     0.0   0.198   0.3725
Er16     Er     0.5   0.1164   0.0262
loop_
_geom_bond_atom_site_label_1
_geom_bond_atom_site_label_2
_geom_bond_distance
_geom_bond_site_symmetry_2
_ccdc_geom_bond_type
Er1     V14    10.0   1_556     S
Er1     V3    10.0   .     S
Er1     V3    10.0   1_455     S
Er1     Er8    10.0   1_556     S
V2     V3    10.0   .     S
V2     Er4    10.0   .     S
V2     Er4    10.0   1_655     S
V2     Er13    10.0   .     S
V3     Er1    10.0   1_655     S
V3     Er16    10.0   1_556     S
Er4     V15    10.0   .     S
Er4     V2    10.0   1_455     S
Er4     Er5    10.0   .     S
Er5     V10    10.0   .     S
Er5     V7    10.0   .     S
Er5     V7    10.0   1_455     S
V6     V7    10.0   .     S
V6     Er8    10.0   .     S
V6     Er8    10.0   1_655     S
V6     Er9    10.0   1_554     S
V7     Er5    10.0   1_655     S
V7     Er12    10.0   .     S
Er8     V11    10.0   1_554     S
Er8     V6    10.0   1_455     S
Er8     Er1    10.0   1_554     S
Er9     V6    10.0   1_556     S
Er9     V11    10.0   1_655     S
Er9     V11    10.0   .     S
Er9     Er16    10.0   1_566     S
V10     V11    10.0   .     S
V10     Er12    10.0   1_455     S
V10     Er12    10.0   .     S
V11     Er8    10.0   1_556     S
V11     Er9    10.0   1_455     S
Er12     V10    10.0   1_655     S
Er12     Er13    10.0   1_565     S
Er13     V15    10.0   1_655     S
Er13     V15    10.0   .     S
Er13     Er12    10.0   1_545     S
V14     Er1    10.0   1_554     S
V14     V15    10.0   .     S
V14     Er16    10.0   .     S
V14     Er16    10.0   1_455     S
V15     Er13    10.0   1_455     S
Er16     V3    10.0   1_554     S
Er16     V14    10.0   1_655     S
Er16     Er9    10.0   1_544     S
