data_dda
_audit_creation_date              2020-02-02
_audit_creation_method            'Pymatgen'
_symmetry_space_group_name_H-M    'P1'
_symmetry_Int_Tables_number       1
loop_
_symmetry_equiv_pos_as_xyz
  x,y,z
_cell_length_a                    75.6027
_cell_length_b                    75.6027
_cell_length_c                    75.6027
_cell_angle_alpha                 90.0
_cell_angle_beta                 90.0
_cell_angle_gamma                 90.0
loop_
_atom_site_label
_atom_site_type_symbol
_atom_site_fract_x
_atom_site_fract_y
_atom_site_fract_z
V1     V     0.5002   0.5002   0.5934
V2     V     0.5934   0.5002   0.5002
V3     V     0.5002   0.5934   0.5002
V4     V     0.5934   0.7498   0.7498
V5     V     0.5002   0.7498   0.6566
V6     V     0.5002   0.6566   0.7498
V7     V     0.7498   0.6566   0.5002
V8     V     0.6566   0.7498   0.5002
V9     V     0.7498   0.7498   0.5934
V10     V     0.7498   0.5002   0.6566
V11     V     0.6566   0.5002   0.7498
V12     V     0.7498   0.5934   0.7498
Er13     Er     0.5315   0.625   0.625
Er14     Er     0.625   0.625   0.5315
Er15     Er     0.625   0.5315   0.625
Er16     Er     0.625   0.625   0.7185
Er17     Er     0.7185   0.625   0.625
Er18     Er     0.625   0.7185   0.625
V19     V     0.7502   0.8434   0.4998
V20     V     0.8434   0.7502   0.4998
V21     V     0.7502   0.7502   0.4066
V22     V     0.9998   0.8434   0.2502
V23     V     0.9998   0.7502   0.3434
V24     V     0.9066   0.7502   0.2502
V25     V     0.9998   0.9998   0.4066
V26     V     0.9066   0.9998   0.4998
V27     V     0.9998   0.9066   0.4998
V28     V     0.7502   0.9998   0.3434
V29     V     0.7502   0.9066   0.2502
V30     V     0.8434   0.9998   0.2502
Er31     Er     0.9685   0.875   0.375
Er32     Er     0.875   0.9685   0.375
Er33     Er     0.875   0.875   0.4685
Er34     Er     0.875   0.875   0.2815
Er35     Er     0.875   0.7815   0.375
Er36     Er     0.7815   0.875   0.375
V37     V     0.8434   0.4998   0.7502
V38     V     0.7502   0.4066   0.7502
V39     V     0.7502   0.4998   0.8434
V40     V     0.8434   0.2502   0.9998
V41     V     0.7502   0.3434   0.9998
V42     V     0.7502   0.2502   0.9066
V43     V     0.9998   0.2502   0.8434
V44     V     0.9066   0.2502   0.7502
V45     V     0.9998   0.3434   0.7502
V46     V     0.9998   0.4066   0.9998
V47     V     0.9998   0.4998   0.9066
V48     V     0.9066   0.4998   0.9998
Er49     Er     0.875   0.375   0.9685
Er50     Er     0.9685   0.375   0.875
Er51     Er     0.875   0.4685   0.875
Er52     Er     0.875   0.375   0.7815
Er53     Er     0.7815   0.375   0.875
Er54     Er     0.875   0.2815   0.875
V55     V     0.6566   0.2498   0.0002
V56     V     0.7498   0.2498   0.0934
V57     V     0.7498   0.1566   0.0002
V58     V     0.5002   0.0002   0.0934
V59     V     0.5002   0.0934   0.0002
V60     V     0.5934   0.0002   0.0002
V61     V     0.5934   0.2498   0.2498
V62     V     0.5002   0.2498   0.1566
V63     V     0.5002   0.1566   0.2498
V64     V     0.7498   0.0934   0.2498
V65     V     0.7498   0.0002   0.1566
V66     V     0.6566   0.0002   0.2498
Er67     Er     0.625   0.125   0.2185
Er68     Er     0.625   0.0315   0.125
Er69     Er     0.625   0.125   0.0315
Er70     Er     0.625   0.2185   0.125
Er71     Er     0.7185   0.125   0.125
Er72     Er     0.5315   0.125   0.125
V73     V     0.4998   0.4066   0.4998
V74     V     0.4998   0.4998   0.4066
V75     V     0.4066   0.4998   0.4998
V76     V     0.4998   0.2502   0.3434
V77     V     0.4066   0.2502   0.2502
V78     V     0.4998   0.3434   0.2502
V79     V     0.2502   0.4066   0.2502
V80     V     0.3434   0.4998   0.2502
V81     V     0.2502   0.4998   0.3434
V82     V     0.3434   0.2502   0.4998
V83     V     0.2502   0.2502   0.4066
V84     V     0.2502   0.3434   0.4998
Er85     Er     0.2815   0.375   0.375
Er86     Er     0.375   0.375   0.4685
Er87     Er     0.375   0.2815   0.375
Er88     Er     0.4685   0.375   0.375
Er89     Er     0.375   0.375   0.2815
Er90     Er     0.375   0.4685   0.375
V91     V     0.2498   0.7498   0.0934
V92     V     0.2498   0.6566   0.0002
V93     V     0.1566   0.7498   0.0002
V94     V     0.0002   0.5934   0.0002
V95     V     0.0002   0.5002   0.0934
V96     V     0.0934   0.5002   0.0002
V97     V     0.0002   0.7498   0.1566
V98     V     0.0934   0.7498   0.2498
V99     V     0.0002   0.6566   0.2498
V100     V     0.2498   0.5934   0.2498
V101     V     0.1566   0.5002   0.2498
V102     V     0.2498   0.5002   0.1566
Er103     Er     0.125   0.7185   0.125
Er104     Er     0.125   0.625   0.0315
Er105     Er     0.0315   0.625   0.125
Er106     Er     0.2185   0.625   0.125
Er107     Er     0.125   0.625   0.2185
Er108     Er     0.125   0.5315   0.125
V109     V     0.4998   0.8434   0.7502
V110     V     0.4066   0.7502   0.7502
V111     V     0.4998   0.7502   0.8434
V112     V     0.4066   0.9998   0.9998
V113     V     0.4998   0.9998   0.9066
V114     V     0.4998   0.9066   0.9998
V115     V     0.3434   0.7502   0.9998
V116     V     0.2502   0.7502   0.9066
V117     V     0.2502   0.8434   0.9998
V118     V     0.3434   0.9998   0.7502
V119     V     0.2502   0.9998   0.8434
V120     V     0.2502   0.9066   0.7502
Er121     Er     0.375   0.875   0.9685
Er122     Er     0.375   0.9685   0.875
Er123     Er     0.375   0.875   0.7815
Er124     Er     0.375   0.7815   0.875
Er125     Er     0.2815   0.875   0.875
Er126     Er     0.4685   0.875   0.875
V127     V     0.0934   0.2498   0.7498
V128     V     0.0002   0.1566   0.7498
V129     V     0.0002   0.2498   0.6566
V130     V     0.2498   0.0002   0.6566
V131     V     0.1566   0.0002   0.7498
V132     V     0.2498   0.0934   0.7498
V133     V     0.0002   0.0934   0.5002
V134     V     0.0934   0.0002   0.5002
V135     V     0.0002   0.0002   0.5934
V136     V     0.1566   0.2498   0.5002
V137     V     0.2498   0.2498   0.5934
V138     V     0.2498   0.1566   0.5002
Er139     Er     0.125   0.0315   0.625
Er140     Er     0.125   0.125   0.7185
Er141     Er     0.0315   0.125   0.625
Er142     Er     0.2185   0.125   0.625
Er143     Er     0.125   0.125   0.5315
Er144     Er     0.125   0.2185   0.625
loop_
_geom_bond_atom_site_label_1
_geom_bond_atom_site_label_2
_geom_bond_distance
_geom_bond_site_symmetry_2
_ccdc_geom_bond_type
V1     V75    10.014   .     S
V1     V73    10.014   .     S
V1     Er13    10.014   .     S
V1     Er15    10.014   .     S
V1     V2    9.965   .     S
V1     V3    9.965   .     S
V2     V74    10.014   .     S
V2     V73    10.014   .     S
V2     Er14    10.014   .     S
V2     Er15    10.014   .     S
V2     V3    9.965   .     S
V3     V75    10.014   .     S
V3     V74    10.014   .     S
V3     Er14    10.014   .     S
V3     Er13    10.014   .     S
V4     V111    10.014   .     S
V4     V109    10.014   .     S
V4     Er18    10.014   .     S
V4     Er16    10.014   .     S
V4     V6    9.965   .     S
V4     V5    9.965   .     S
V5     V110    10.014   .     S
V5     V109    10.014   .     S
V5     Er18    10.014   .     S
V5     Er13    10.014   .     S
V5     V6    9.965   .     S
V6     V111    10.014   .     S
V6     V110    10.014   .     S
V6     Er13    10.014   .     S
V6     Er16    10.014   .     S
V7     V21    10.014   .     S
V7     V20    10.014   .     S
V7     Er17    10.014   .     S
V7     Er14    10.014   .     S
V7     V8    9.965   .     S
V7     V9    9.965   .     S
V8     V21    10.014   .     S
V8     V19    10.014   .     S
V8     Er18    10.014   .     S
V8     Er14    10.014   .     S
V8     V9    9.965   .     S
V9     V20    10.014   .     S
V9     V19    10.014   .     S
V9     Er17    10.014   .     S
V9     Er18    10.014   .     S
V10     V37    10.014   .     S
V10     V38    10.014   .     S
V10     Er15    10.014   .     S
V10     Er17    10.014   .     S
V10     V11    9.965   .     S
V10     V12    9.965   .     S
V11     V39    10.014   .     S
V11     V38    10.014   .     S
V11     Er15    10.014   .     S
V11     Er16    10.014   .     S
V11     V12    9.965   .     S
V12     V39    10.014   .     S
V12     V37    10.014   .     S
V12     Er16    10.014   .     S
V12     Er17    10.014   .     S
Er13     Er18    9.994   .     S
Er13     Er16    9.994   .     S
Er13     Er14    9.994   .     S
Er13     Er15    9.994   .     S
Er14     Er17    9.994   .     S
Er14     Er18    9.994   .     S
Er14     Er15    9.994   .     S
Er15     Er17    9.994   .     S
Er15     Er16    9.994   .     S
Er16     Er17    9.994   .     S
Er16     Er18    9.994   .     S
Er17     Er18    9.994   .     S
V19     Er33    10.014   .     S
V19     Er36    10.014   .     S
V19     V21    9.965   .     S
V19     V20    9.965   .     S
V20     Er33    10.014   .     S
V20     Er35    10.014   .     S
V20     V21    9.965   .     S
V21     Er35    10.014   .     S
V21     Er36    10.014   .     S
V22     Er31    10.014   .     S
V22     Er34    10.014   .     S
V22     V97    10.014   1_655     S
V22     V98    10.014   1_655     S
V22     V23    9.965   .     S
V22     V24    9.965   .     S
V23     Er35    10.014   .     S
V23     Er31    10.014   .     S
V23     V99    10.014   1_655     S
V23     V98    10.014   1_655     S
V23     V24    9.965   .     S
V24     Er35    10.014   .     S
V24     Er34    10.014   .     S
V24     V97    10.014   1_655     S
V24     V99    10.014   1_655     S
V25     Er32    10.014   .     S
V25     Er31    10.014   .     S
V25     V133    10.014   1_665     S
V25     V134    10.014   1_665     S
V25     V26    9.965   .     S
V25     V27    9.965   .     S
V26     Er33    10.014   .     S
V26     Er32    10.014   .     S
V26     V133    10.014   1_665     S
V26     V135    10.014   1_665     S
V26     V27    9.965   .     S
V27     Er33    10.014   .     S
V27     Er31    10.014   .     S
V27     V135    10.014   1_665     S
V27     V134    10.014   1_665     S
V28     Er32    10.014   .     S
V28     Er36    10.014   .     S
V28     V66    10.014   1_565     S
V28     V64    10.014   1_565     S
V28     V30    9.965   .     S
V28     V29    9.965   .     S
V29     Er34    10.014   .     S
V29     Er36    10.014   .     S
V29     V66    10.014   1_565     S
V29     V65    10.014   1_565     S
V29     V30    9.965   .     S
V30     Er34    10.014   .     S
V30     Er32    10.014   .     S
V30     V65    10.014   1_565     S
V30     V64    10.014   1_565     S
Er31     Er35    9.994   .     S
Er31     Er33    9.994   .     S
Er31     Er34    9.994   .     S
Er31     Er32    9.994   .     S
Er32     Er36    9.994   .     S
Er32     Er34    9.994   .     S
Er32     Er33    9.994   .     S
Er33     Er36    9.994   .     S
Er33     Er35    9.994   .     S
Er34     Er36    9.994   .     S
Er34     Er35    9.994   .     S
Er35     Er36    9.994   .     S
V37     Er52    10.014   .     S
V37     Er51    10.014   .     S
V37     V38    9.965   .     S
V37     V39    9.965   .     S
V38     Er52    10.014   .     S
V38     Er53    10.014   .     S
V38     V39    9.965   .     S
V39     Er53    10.014   .     S
V39     Er51    10.014   .     S
V40     Er49    10.014   .     S
V40     Er54    10.014   .     S
V40     V56    10.014   1_556     S
V40     V57    10.014   1_556     S
V40     V42    9.965   .     S
V40     V41    9.965   .     S
V41     Er53    10.014   .     S
V41     Er49    10.014   .     S
V41     V56    10.014   1_556     S
V41     V55    10.014   1_556     S
V41     V42    9.965   .     S
V42     Er53    10.014   .     S
V42     Er54    10.014   .     S
V42     V55    10.014   1_556     S
V42     V57    10.014   1_556     S
V43     Er54    10.014   .     S
V43     Er50    10.014   .     S
V43     V127    10.014   1_655     S
V43     V128    10.014   1_655     S
V43     V45    9.965   .     S
V43     V44    9.965   .     S
V44     Er54    10.014   .     S
V44     Er52    10.014   .     S
V44     V128    10.014   1_655     S
V44     V129    10.014   1_655     S
V44     V45    9.965   .     S
V45     Er50    10.014   .     S
V45     Er52    10.014   .     S
V45     V127    10.014   1_655     S
V45     V129    10.014   1_655     S
V46     Er49    10.014   .     S
V46     Er50    10.014   .     S
V46     V96    10.014   1_656     S
V46     V95    10.014   1_656     S
V46     V48    9.965   .     S
V46     V47    9.965   .     S
V47     Er51    10.014   .     S
V47     Er50    10.014   .     S
V47     V96    10.014   1_656     S
V47     V94    10.014   1_656     S
V47     V48    9.965   .     S
V48     Er51    10.014   .     S
V48     Er49    10.014   .     S
V48     V94    10.014   1_656     S
V48     V95    10.014   1_656     S
Er49     Er53    9.994   .     S
Er49     Er54    9.994   .     S
Er49     Er51    9.994   .     S
Er49     Er50    9.994   .     S
Er50     Er52    9.994   .     S
Er50     Er54    9.994   .     S
Er50     Er51    9.994   .     S
Er51     Er53    9.994   .     S
Er51     Er52    9.994   .     S
Er52     Er53    9.994   .     S
Er52     Er54    9.994   .     S
Er53     Er54    9.994   .     S
V55     V41    10.014   1_554     S
V55     V42    10.014   1_554     S
V55     Er69    10.014   .     S
V55     Er70    10.014   .     S
V55     V57    9.965   .     S
V55     V56    9.965   .     S
V56     V40    10.014   1_554     S
V56     V41    10.014   1_554     S
V56     Er71    10.014   .     S
V56     Er70    10.014   .     S
V56     V57    9.965   .     S
V57     V42    10.014   1_554     S
V57     V40    10.014   1_554     S
V57     Er71    10.014   .     S
V57     Er69    10.014   .     S
V58     V112    10.014   1_544     S
V58     V114    10.014   1_544     S
V58     Er68    10.014   .     S
V58     Er72    10.014   .     S
V58     V59    9.965   .     S
V58     V60    9.965   .     S
V59     V112    10.014   1_544     S
V59     V113    10.014   1_544     S
V59     Er69    10.014   .     S
V59     Er72    10.014   .     S
V59     V60    9.965   .     S
V60     V113    10.014   1_544     S
V60     V114    10.014   1_544     S
V60     Er68    10.014   .     S
V60     Er69    10.014   .     S
V61     Er67    10.014   .     S
V61     Er70    10.014   .     S
V61     V78    10.014   .     S
V61     V76    10.014   .     S
V61     V62    9.965   .     S
V61     V63    9.965   .     S
V62     Er72    10.014   .     S
V62     Er70    10.014   .     S
V62     V77    10.014   .     S
V62     V78    10.014   .     S
V62     V63    9.965   .     S
V63     Er72    10.014   .     S
V63     Er67    10.014   .     S
V63     V77    10.014   .     S
V63     V76    10.014   .     S
V64     V30    10.014   1_545     S
V64     V28    10.014   1_545     S
V64     Er71    10.014   .     S
V64     Er67    10.014   .     S
V64     V65    9.965   .     S
V64     V66    9.965   .     S
V65     V30    10.014   1_545     S
V65     V29    10.014   1_545     S
V65     Er71    10.014   .     S
V65     Er68    10.014   .     S
V65     V66    9.965   .     S
V66     V29    10.014   1_545     S
V66     V28    10.014   1_545     S
V66     Er67    10.014   .     S
V66     Er68    10.014   .     S
Er67     Er71    9.994   .     S
Er67     Er68    9.994   .     S
Er67     Er70    9.994   .     S
Er67     Er72    9.994   .     S
Er68     Er71    9.994   .     S
Er68     Er69    9.994   .     S
Er68     Er72    9.994   .     S
Er69     Er71    9.994   .     S
Er69     Er70    9.994   .     S
Er69     Er72    9.994   .     S
Er70     Er71    9.994   .     S
Er70     Er72    9.994   .     S
V73     Er86    10.014   .     S
V73     Er88    10.014   .     S
V73     V74    9.965   .     S
V73     V75    9.965   .     S
V74     Er88    10.014   .     S
V74     Er90    10.014   .     S
V74     V75    9.965   .     S
V75     Er86    10.014   .     S
V75     Er90    10.014   .     S
V76     Er87    10.014   .     S
V76     Er88    10.014   .     S
V76     V78    9.965   .     S
V76     V77    9.965   .     S
V77     Er87    10.014   .     S
V77     Er89    10.014   .     S
V77     V78    9.965   .     S
V78     Er89    10.014   .     S
V78     Er88    10.014   .     S
V79     V102    10.014   .     S
V79     V101    10.014   .     S
V79     Er89    10.014   .     S
V79     Er85    10.014   .     S
V79     V81    9.965   .     S
V79     V80    9.965   .     S
V80     V102    10.014   .     S
V80     V100    10.014   .     S
V80     Er89    10.014   .     S
V80     Er90    10.014   .     S
V80     V81    9.965   .     S
V81     V100    10.014   .     S
V81     V101    10.014   .     S
V81     Er85    10.014   .     S
V81     Er90    10.014   .     S
V82     Er86    10.014   .     S
V82     Er87    10.014   .     S
V82     V137    10.014   .     S
V82     V138    10.014   .     S
V82     V84    9.965   .     S
V82     V83    9.965   .     S
V83     Er87    10.014   .     S
V83     Er85    10.014   .     S
V83     V136    10.014   .     S
V83     V138    10.014   .     S
V83     V84    9.965   .     S
V84     Er86    10.014   .     S
V84     Er85    10.014   .     S
V84     V136    10.014   .     S
V84     V137    10.014   .     S
Er85     Er86    9.994   .     S
Er85     Er89    9.994   .     S
Er85     Er90    9.994   .     S
Er85     Er87    9.994   .     S
Er86     Er87    9.994   .     S
Er86     Er88    9.994   .     S
Er86     Er90    9.994   .     S
Er87     Er88    9.994   .     S
Er87     Er89    9.994   .     S
Er88     Er90    9.994   .     S
Er88     Er89    9.994   .     S
Er89     Er90    9.994   .     S
V91     Er103    10.014   .     S
V91     Er106    10.014   .     S
V91     V117    10.014   1_554     S
V91     V115    10.014   1_554     S
V91     V93    9.965   .     S
V91     V92    9.965   .     S
V92     Er106    10.014   .     S
V92     Er104    10.014   .     S
V92     V115    10.014   1_554     S
V92     V116    10.014   1_554     S
V92     V93    9.965   .     S
V93     Er103    10.014   .     S
V93     Er104    10.014   .     S
V93     V117    10.014   1_554     S
V93     V116    10.014   1_554     S
V94     V47    10.014   1_454     S
V94     V48    10.014   1_454     S
V94     Er105    10.014   .     S
V94     Er104    10.014   .     S
V94     V96    9.965   .     S
V94     V95    9.965   .     S
V95     V46    10.014   1_454     S
V95     V48    10.014   1_454     S
V95     Er105    10.014   .     S
V95     Er108    10.014   .     S
V95     V96    9.965   .     S
V96     V46    10.014   1_454     S
V96     V47    10.014   1_454     S
V96     Er104    10.014   .     S
V96     Er108    10.014   .     S
V97     V22    10.014   1_455     S
V97     V24    10.014   1_455     S
V97     Er103    10.014   .     S
V97     Er105    10.014   .     S
V97     V99    9.965   .     S
V97     V98    9.965   .     S
V98     V23    10.014   1_455     S
V98     V22    10.014   1_455     S
V98     Er103    10.014   .     S
V98     Er107    10.014   .     S
V98     V99    9.965   .     S
V99     V23    10.014   1_455     S
V99     V24    10.014   1_455     S
V99     Er107    10.014   .     S
V99     Er105    10.014   .     S
V100     Er106    10.014   .     S
V100     Er107    10.014   .     S
V100     V102    9.965   .     S
V100     V101    9.965   .     S
V101     Er108    10.014   .     S
V101     Er107    10.014   .     S
V101     V102    9.965   .     S
V102     Er108    10.014   .     S
V102     Er106    10.014   .     S
Er103     Er107    9.994   .     S
Er103     Er106    9.994   .     S
Er103     Er104    9.994   .     S
Er103     Er105    9.994   .     S
Er104     Er106    9.994   .     S
Er104     Er105    9.994   .     S
Er104     Er108    9.994   .     S
Er105     Er107    9.994   .     S
Er105     Er108    9.994   .     S
Er106     Er108    9.994   .     S
Er106     Er107    9.994   .     S
Er107     Er108    9.994   .     S
V109     Er123    10.014   .     S
V109     Er126    10.014   .     S
V109     V110    9.965   .     S
V109     V111    9.965   .     S
V110     Er123    10.014   .     S
V110     Er124    10.014   .     S
V110     V111    9.965   .     S
V111     Er126    10.014   .     S
V111     Er124    10.014   .     S
V112     V58    10.014   1_566     S
V112     V59    10.014   1_566     S
V112     Er121    10.014   .     S
V112     Er122    10.014   .     S
V112     V114    9.965   .     S
V112     V113    9.965   .     S
V113     V60    10.014   1_566     S
V113     V59    10.014   1_566     S
V113     Er126    10.014   .     S
V113     Er122    10.014   .     S
V113     V114    9.965   .     S
V114     V58    10.014   1_566     S
V114     V60    10.014   1_566     S
V114     Er126    10.014   .     S
V114     Er121    10.014   .     S
V115     V92    10.014   1_556     S
V115     V91    10.014   1_556     S
V115     Er121    10.014   .     S
V115     Er124    10.014   .     S
V115     V117    9.965   .     S
V115     V116    9.965   .     S
V116     V93    10.014   1_556     S
V116     V92    10.014   1_556     S
V116     Er125    10.014   .     S
V116     Er124    10.014   .     S
V116     V117    9.965   .     S
V117     V93    10.014   1_556     S
V117     V91    10.014   1_556     S
V117     Er121    10.014   .     S
V117     Er125    10.014   .     S
V118     Er123    10.014   .     S
V118     Er122    10.014   .     S
V118     V132    10.014   1_565     S
V118     V130    10.014   1_565     S
V118     V120    9.965   .     S
V118     V119    9.965   .     S
V119     Er122    10.014   .     S
V119     Er125    10.014   .     S
V119     V132    10.014   1_565     S
V119     V131    10.014   1_565     S
V119     V120    9.965   .     S
V120     Er123    10.014   .     S
V120     Er125    10.014   .     S
V120     V131    10.014   1_565     S
V120     V130    10.014   1_565     S
Er121     Er124    9.994   .     S
Er121     Er125    9.994   .     S
Er121     Er126    9.994   .     S
Er121     Er122    9.994   .     S
Er122     Er123    9.994   .     S
Er122     Er125    9.994   .     S
Er122     Er126    9.994   .     S
Er123     Er124    9.994   .     S
Er123     Er125    9.994   .     S
Er123     Er126    9.994   .     S
Er124     Er125    9.994   .     S
Er124     Er126    9.994   .     S
V127     V45    10.014   1_455     S
V127     V43    10.014   1_455     S
V127     Er144    10.014   .     S
V127     Er140    10.014   .     S
V127     V128    9.965   .     S
V127     V129    9.965   .     S
V128     V43    10.014   1_455     S
V128     V44    10.014   1_455     S
V128     Er141    10.014   .     S
V128     Er140    10.014   .     S
V128     V129    9.965   .     S
V129     V44    10.014   1_455     S
V129     V45    10.014   1_455     S
V129     Er141    10.014   .     S
V129     Er144    10.014   .     S
V130     V118    10.014   1_545     S
V130     V120    10.014   1_545     S
V130     Er139    10.014   .     S
V130     Er142    10.014   .     S
V130     V131    9.965   .     S
V130     V132    9.965   .     S
V131     V120    10.014   1_545     S
V131     V119    10.014   1_545     S
V131     Er139    10.014   .     S
V131     Er140    10.014   .     S
V131     V132    9.965   .     S
V132     V118    10.014   1_545     S
V132     V119    10.014   1_545     S
V132     Er142    10.014   .     S
V132     Er140    10.014   .     S
V133     V25    10.014   1_445     S
V133     V26    10.014   1_445     S
V133     Er141    10.014   .     S
V133     Er143    10.014   .     S
V133     V134    9.965   .     S
V133     V135    9.965   .     S
V134     V25    10.014   1_445     S
V134     V27    10.014   1_445     S
V134     Er139    10.014   .     S
V134     Er143    10.014   .     S
V134     V135    9.965   .     S
V135     V26    10.014   1_445     S
V135     V27    10.014   1_445     S
V135     Er141    10.014   .     S
V135     Er139    10.014   .     S
V136     Er143    10.014   .     S
V136     Er144    10.014   .     S
V136     V138    9.965   .     S
V136     V137    9.965   .     S
V137     Er144    10.014   .     S
V137     Er142    10.014   .     S
V137     V138    9.965   .     S
V138     Er143    10.014   .     S
V138     Er142    10.014   .     S
Er139     Er140    9.994   .     S
Er139     Er142    9.994   .     S
Er139     Er141    9.994   .     S
Er139     Er143    9.994   .     S
Er140     Er142    9.994   .     S
Er140     Er144    9.994   .     S
Er140     Er141    9.994   .     S
Er141     Er144    9.994   .     S
Er141     Er143    9.994   .     S
Er142     Er144    9.994   .     S
Er142     Er143    9.994   .     S
Er143     Er144    9.994   .     S
