data_ddc
_audit_creation_date              2020-02-02
_audit_creation_method            'Pymatgen'
_symmetry_space_group_name_H-M    'P1'
_symmetry_Int_Tables_number       1
loop_
_symmetry_equiv_pos_as_xyz
  x,y,z
_cell_length_a                    37.9129
_cell_length_b                    37.9129
_cell_length_c                    37.9129
_cell_angle_alpha                 90.0
_cell_angle_beta                 90.0
_cell_angle_gamma                 90.0
loop_
_atom_site_label
_atom_site_type_symbol
_atom_site_fract_x
_atom_site_fract_y
_atom_site_fract_z
V1     V     0.8333   0.8333   0.1667
Er2     Er     0.1319   0.3681   0.0
Er3     Er     0.8681   0.3681   0.0
Er4     Er     0.8681   0.6319   0.0
Er5     Er     0.1319   0.6319   0.0
V6     V     0.1667   0.8333   0.1667
V7     V     0.8333   0.1667   0.8333
Er8     Er     0.3681   0.0   0.1319
Er9     Er     0.3681   0.0   0.8681
Er10     Er     0.6319   0.0   0.8681
Er11     Er     0.6319   0.0   0.1319
V12     V     0.8333   0.1667   0.1667
V13     V     0.1667   0.8333   0.8333
Er14     Er     0.0   0.1319   0.3681
Er15     Er     0.0   0.8681   0.3681
Er16     Er     0.0   0.8681   0.6319
Er17     Er     0.0   0.1319   0.6319
V18     V     0.1667   0.1667   0.8333
V19     V     0.1667   0.1667   0.1667
V20     V     0.8333   0.8333   0.8333
loop_
_geom_bond_atom_site_label_1
_geom_bond_atom_site_label_2
_geom_bond_distance
_geom_bond_site_symmetry_2
_ccdc_geom_bond_type
V1     Er4    10.0   .     S
V1     Er11    10.0   1_565     S
V1     Er15    10.0   1_655     S
Er2     Er5    10.0   .     S
Er2     Er3    10.0   1_455     S
Er2     V18    10.0   1_554     S
Er2     V19    10.0   .     S
Er3     Er2    10.0   1_655     S
Er3     Er4    10.0   .     S
Er3     V7    10.0   1_554     S
Er3     V12    10.0   .     S
Er4     Er5    10.0   1_655     S
Er4     V20    10.0   1_554     S
Er5     Er4    10.0   1_455     S
Er5     V13    10.0   1_554     S
Er5     V6    10.0   .     S
V6     Er8    10.0   1_565     S
V6     Er15    10.0   .     S
V7     Er3    10.0   1_556     S
V7     Er10    10.0   .     S
V7     Er17    10.0   1_655     S
Er8     Er11    10.0   .     S
Er8     Er9    10.0   1_554     S
Er8     V6    10.0   1_545     S
Er8     V19    10.0   .     S
Er9     Er8    10.0   1_556     S
Er9     Er10    10.0   .     S
Er9     V13    10.0   1_545     S
Er9     V18    10.0   .     S
Er10     Er11    10.0   1_556     S
Er10     V20    10.0   1_545     S
Er11     Er10    10.0   1_554     S
Er11     V1    10.0   1_545     S
Er11     V12    10.0   .     S
V12     Er14    10.0   1_655     S
V13     Er5    10.0   1_556     S
V13     Er9    10.0   1_565     S
V13     Er16    10.0   .     S
Er14     Er17    10.0   .     S
Er14     Er15    10.0   1_545     S
Er14     V12    10.0   1_455     S
Er14     V19    10.0   .     S
Er15     Er14    10.0   1_565     S
Er15     Er16    10.0   .     S
Er15     V1    10.0   1_455     S
Er16     Er17    10.0   1_565     S
Er16     V20    10.0   1_455     S
Er17     Er16    10.0   1_545     S
Er17     V7    10.0   1_455     S
Er17     V18    10.0   .     S
V18     Er2    10.0   1_556     S
V20     Er4    10.0   1_556     S
V20     Er10    10.0   1_565     S
V20     Er16    10.0   1_655     S
