data_ddy
_audit_creation_date              2020-02-02
_audit_creation_method            'Pymatgen'
_symmetry_space_group_name_H-M    'P1'
_symmetry_Int_Tables_number       1
loop_
_symmetry_equiv_pos_as_xyz
  x,y,z
_cell_length_a                    19.6776
_cell_length_b                    19.6776
_cell_length_c                    19.6776
_cell_angle_alpha                 90.0
_cell_angle_beta                 90.0
_cell_angle_gamma                 90.0
loop_
_atom_site_label
_atom_site_type_symbol
_atom_site_fract_x
_atom_site_fract_y
_atom_site_fract_z
Er1     Er     0.25   0.3058   0.0
Er2     Er     0.25   0.3058   0.5
Er3     Er     0.25   0.8058   0.0
Er4     Er     0.25   0.8058   0.5
Er5     Er     0.75   0.3058   0.0
Er6     Er     0.75   0.3058   0.5
Er7     Er     0.75   0.8058   0.0
Er8     Er     0.75   0.8058   0.5
Er9     Er     0.3058   0.25   0.0
Er10     Er     0.3058   0.25   0.5
Er11     Er     0.3058   0.75   0.0
Er12     Er     0.3058   0.75   0.5
Er13     Er     0.8058   0.25   0.0
Er14     Er     0.8058   0.25   0.5
Er15     Er     0.8058   0.75   0.0
Er16     Er     0.8058   0.75   0.5
Er17     Er     0.25   0.1942   0.0
Er18     Er     0.25   0.1942   0.5
Er19     Er     0.25   0.6942   0.0
Er20     Er     0.25   0.6942   0.5
Er21     Er     0.75   0.1942   0.0
Er22     Er     0.75   0.1942   0.5
Er23     Er     0.75   0.6942   0.0
Er24     Er     0.75   0.6942   0.5
Er25     Er     0.1942   0.25   0.0
Er26     Er     0.1942   0.25   0.5
Er27     Er     0.1942   0.75   0.0
Er28     Er     0.1942   0.75   0.5
Er29     Er     0.6942   0.25   0.0
Er30     Er     0.6942   0.25   0.5
Er31     Er     0.6942   0.75   0.0
Er32     Er     0.6942   0.75   0.5
Er33     Er     0.0   0.25   0.3058
Er34     Er     0.0   0.25   0.8058
Er35     Er     0.0   0.75   0.3058
Er36     Er     0.0   0.75   0.8058
Er37     Er     0.5   0.25   0.3058
Er38     Er     0.5   0.25   0.8058
Er39     Er     0.5   0.75   0.3058
Er40     Er     0.5   0.75   0.8058
Er41     Er     0.0   0.3058   0.25
Er42     Er     0.0   0.3058   0.75
Er43     Er     0.0   0.8058   0.25
Er44     Er     0.0   0.8058   0.75
Er45     Er     0.5   0.3058   0.25
Er46     Er     0.5   0.3058   0.75
Er47     Er     0.5   0.8058   0.25
Er48     Er     0.5   0.8058   0.75
Er49     Er     0.0   0.1942   0.25
Er50     Er     0.0   0.1942   0.75
Er51     Er     0.0   0.6942   0.25
Er52     Er     0.0   0.6942   0.75
Er53     Er     0.5   0.1942   0.25
Er54     Er     0.5   0.1942   0.75
Er55     Er     0.5   0.6942   0.25
Er56     Er     0.5   0.6942   0.75
Er57     Er     0.0   0.25   0.1942
Er58     Er     0.0   0.25   0.6942
Er59     Er     0.0   0.75   0.1942
Er60     Er     0.0   0.75   0.6942
Er61     Er     0.5   0.25   0.1942
Er62     Er     0.5   0.25   0.6942
Er63     Er     0.5   0.75   0.1942
Er64     Er     0.5   0.75   0.6942
Er65     Er     0.25   0.0   0.3058
Er66     Er     0.25   0.0   0.8058
Er67     Er     0.25   0.5   0.3058
Er68     Er     0.25   0.5   0.8058
Er69     Er     0.75   0.0   0.3058
Er70     Er     0.75   0.0   0.8058
Er71     Er     0.75   0.5   0.3058
Er72     Er     0.75   0.5   0.8058
Er73     Er     0.3058   0.0   0.25
Er74     Er     0.3058   0.0   0.75
Er75     Er     0.3058   0.5   0.25
Er76     Er     0.3058   0.5   0.75
Er77     Er     0.8058   0.0   0.25
Er78     Er     0.8058   0.0   0.75
Er79     Er     0.8058   0.5   0.25
Er80     Er     0.8058   0.5   0.75
Er81     Er     0.1942   0.0   0.25
Er82     Er     0.1942   0.0   0.75
Er83     Er     0.1942   0.5   0.25
Er84     Er     0.1942   0.5   0.75
Er85     Er     0.6942   0.0   0.25
Er86     Er     0.6942   0.0   0.75
Er87     Er     0.6942   0.5   0.25
Er88     Er     0.6942   0.5   0.75
Er89     Er     0.25   0.0   0.1942
Er90     Er     0.25   0.0   0.6942
Er91     Er     0.25   0.5   0.1942
Er92     Er     0.25   0.5   0.6942
Er93     Er     0.75   0.0   0.1942
Er94     Er     0.75   0.0   0.6942
Er95     Er     0.75   0.5   0.1942
Er96     Er     0.75   0.5   0.6942
V97     V     0.0   0.0   0.25
V98     V     0.0   0.0   0.75
V99     V     0.0   0.5   0.25
V100     V     0.0   0.5   0.75
V101     V     0.5   0.0   0.25
V102     V     0.5   0.0   0.75
V103     V     0.5   0.5   0.25
V104     V     0.5   0.5   0.75
V105     V     0.25   0.0   0.0
V106     V     0.25   0.0   0.5
V107     V     0.25   0.5   0.0
V108     V     0.25   0.5   0.5
V109     V     0.75   0.0   0.0
V110     V     0.75   0.0   0.5
V111     V     0.75   0.5   0.0
V112     V     0.75   0.5   0.5
V113     V     0.0   0.25   0.0
V114     V     0.0   0.25   0.5
V115     V     0.0   0.75   0.0
V116     V     0.0   0.75   0.5
V117     V     0.5   0.25   0.0
V118     V     0.5   0.25   0.5
V119     V     0.5   0.75   0.0
V120     V     0.5   0.75   0.5
Ti121     Ti     0.25   0.25   0.25
Ti122     Ti     0.25   0.25   0.75
Ti123     Ti     0.25   0.75   0.25
Ti124     Ti     0.25   0.75   0.75
Ti125     Ti     0.75   0.25   0.25
Ti126     Ti     0.75   0.25   0.75
Ti127     Ti     0.75   0.75   0.25
Ti128     Ti     0.75   0.75   0.75
loop_
_geom_bond_atom_site_label_1
_geom_bond_atom_site_label_2
_geom_bond_distance
_geom_bond_site_symmetry_2
_ccdc_geom_bond_type
Er1     V105    6.017   .     S
Er1     Ti124    10.031   1_554     S
Er1     Ti123    10.031   .     S
Er2     V106    6.017   .     S
Er2     Ti123    10.031   .     S
Er2     Ti124    10.031   .     S
Er3     V107    6.017   .     S
Er3     Ti122    10.031   1_564     S
Er3     Ti121    10.031   1_565     S
Er4     V108    6.017   .     S
Er4     Ti121    10.031   1_565     S
Er4     Ti122    10.031   1_565     S
Er5     V109    6.017   .     S
Er5     Ti128    10.031   1_554     S
Er5     Ti127    10.031   .     S
Er6     V110    6.017   .     S
Er6     Ti127    10.031   .     S
Er6     Ti128    10.031   .     S
Er7     V111    6.017   .     S
Er7     Ti126    10.031   1_564     S
Er7     Ti125    10.031   1_565     S
Er8     V112    6.017   .     S
Er8     Ti125    10.031   1_565     S
Er8     Ti126    10.031   1_565     S
Er9     V113    6.017   .     S
Er9     Ti126    10.031   1_554     S
Er9     Ti125    10.031   .     S
Er10     V114    6.017   .     S
Er10     Ti125    10.031   .     S
Er10     Ti126    10.031   .     S
Er11     V115    6.017   .     S
Er11     Ti128    10.031   1_554     S
Er11     Ti127    10.031   .     S
Er12     V116    6.017   .     S
Er12     Ti127    10.031   .     S
Er12     Ti128    10.031   .     S
Er13     V117    6.017   .     S
Er13     Ti122    10.031   1_654     S
Er13     Ti121    10.031   1_655     S
Er14     V118    6.017   .     S
Er14     Ti121    10.031   1_655     S
Er14     Ti122    10.031   1_655     S
Er15     V119    6.017   .     S
Er15     Ti124    10.031   1_654     S
Er15     Ti123    10.031   1_655     S
Er16     V120    6.017   .     S
Er16     Ti123    10.031   1_655     S
Er16     Ti124    10.031   1_655     S
Er17     V107    6.017   .     S
Er17     Ti124    10.031   1_544     S
Er17     Ti123    10.031   1_545     S
Er18     V108    6.017   .     S
Er18     Ti123    10.031   1_545     S
Er18     Ti124    10.031   1_545     S
Er19     V105    6.017   1_565     S
Er19     Ti122    10.031   1_554     S
Er19     Ti121    10.031   .     S
Er20     V106    6.017   1_565     S
Er20     Ti121    10.031   .     S
Er20     Ti122    10.031   .     S
Er21     V111    6.017   .     S
Er21     Ti128    10.031   1_544     S
Er21     Ti127    10.031   1_545     S
Er22     V112    6.017   .     S
Er22     Ti127    10.031   1_545     S
Er22     Ti128    10.031   1_545     S
Er23     V109    6.017   1_565     S
Er23     Ti126    10.031   1_554     S
Er23     Ti125    10.031   .     S
Er24     V110    6.017   1_565     S
Er24     Ti125    10.031   .     S
Er24     Ti126    10.031   .     S
Er25     V117    6.017   .     S
Er25     Ti126    10.031   1_454     S
Er25     Ti125    10.031   1_455     S
Er26     V118    6.017   .     S
Er26     Ti125    10.031   1_455     S
Er26     Ti126    10.031   1_455     S
Er27     V119    6.017   .     S
Er27     Ti128    10.031   1_454     S
Er27     Ti127    10.031   1_455     S
Er28     V120    6.017   .     S
Er28     Ti127    10.031   1_455     S
Er28     Ti128    10.031   1_455     S
Er29     V113    6.017   1_655     S
Er29     Ti122    10.031   1_554     S
Er29     Ti121    10.031   .     S
Er30     V114    6.017   1_655     S
Er30     Ti121    10.031   .     S
Er30     Ti122    10.031   .     S
Er31     V115    6.017   1_655     S
Er31     Ti124    10.031   1_554     S
Er31     Ti123    10.031   .     S
Er32     V116    6.017   1_655     S
Er32     Ti123    10.031   .     S
Er32     Ti124    10.031   .     S
Er33     V113    6.017   .     S
Er33     Ti126    10.031   1_455     S
Er33     Ti122    10.031   .     S
Er34     V114    6.017   .     S
Er34     Ti125    10.031   1_456     S
Er34     Ti121    10.031   1_556     S
Er35     V115    6.017   .     S
Er35     Ti128    10.031   1_455     S
Er35     Ti124    10.031   .     S
Er36     V116    6.017   .     S
Er36     Ti127    10.031   1_456     S
Er36     Ti123    10.031   1_556     S
Er37     V117    6.017   .     S
Er37     Ti122    10.031   .     S
Er37     Ti126    10.031   .     S
Er38     V118    6.017   .     S
Er38     Ti121    10.031   1_556     S
Er38     Ti125    10.031   1_556     S
Er39     V119    6.017   .     S
Er39     Ti124    10.031   .     S
Er39     Ti128    10.031   .     S
Er40     V120    6.017   .     S
Er40     Ti123    10.031   1_556     S
Er40     Ti127    10.031   1_556     S
Er41     V97    6.017   .     S
Er41     Ti127    10.031   1_455     S
Er41     Ti123    10.031   .     S
Er42     V98    6.017   .     S
Er42     Ti128    10.031   1_455     S
Er42     Ti124    10.031   .     S
Er43     V99    6.017   .     S
Er43     Ti125    10.031   1_465     S
Er43     Ti121    10.031   1_565     S
Er44     V100    6.017   .     S
Er44     Ti126    10.031   1_465     S
Er44     Ti122    10.031   1_565     S
Er45     V101    6.017   .     S
Er45     Ti123    10.031   .     S
Er45     Ti127    10.031   .     S
Er46     V102    6.017   .     S
Er46     Ti124    10.031   .     S
Er46     Ti128    10.031   .     S
Er47     V103    6.017   .     S
Er47     Ti121    10.031   1_565     S
Er47     Ti125    10.031   1_565     S
Er48     V104    6.017   .     S
Er48     Ti122    10.031   1_565     S
Er48     Ti126    10.031   1_565     S
Er49     V99    6.017   .     S
Er49     Ti127    10.031   1_445     S
Er49     Ti123    10.031   1_545     S
Er50     V100    6.017   .     S
Er50     Ti128    10.031   1_445     S
Er50     Ti124    10.031   1_545     S
Er51     V97    6.017   1_565     S
Er51     Ti125    10.031   1_455     S
Er51     Ti121    10.031   .     S
Er52     V98    6.017   1_565     S
Er52     Ti126    10.031   1_455     S
Er52     Ti122    10.031   .     S
Er53     V103    6.017   .     S
Er53     Ti123    10.031   1_545     S
Er53     Ti127    10.031   1_545     S
Er54     V104    6.017   .     S
Er54     Ti124    10.031   1_545     S
Er54     Ti128    10.031   1_545     S
Er55     V101    6.017   1_565     S
Er55     Ti121    10.031   .     S
Er55     Ti125    10.031   .     S
Er56     V102    6.017   1_565     S
Er56     Ti122    10.031   .     S
Er56     Ti126    10.031   .     S
Er57     V114    6.017   .     S
Er57     Ti126    10.031   1_454     S
Er57     Ti122    10.031   1_554     S
Er58     V113    6.017   1_556     S
Er58     Ti125    10.031   1_455     S
Er58     Ti121    10.031   .     S
Er59     V116    6.017   .     S
Er59     Ti128    10.031   1_454     S
Er59     Ti124    10.031   1_554     S
Er60     V115    6.017   1_556     S
Er60     Ti127    10.031   1_455     S
Er60     Ti123    10.031   .     S
Er61     V118    6.017   .     S
Er61     Ti122    10.031   1_554     S
Er61     Ti126    10.031   1_554     S
Er62     V117    6.017   1_556     S
Er62     Ti121    10.031   .     S
Er62     Ti125    10.031   .     S
Er63     V120    6.017   .     S
Er63     Ti124    10.031   1_554     S
Er63     Ti128    10.031   1_554     S
Er64     V119    6.017   1_556     S
Er64     Ti123    10.031   .     S
Er64     Ti127    10.031   .     S
Er65     V105    6.017   .     S
Er65     Ti124    10.031   1_545     S
Er65     Ti122    10.031   .     S
Er66     V106    6.017   .     S
Er66     Ti123    10.031   1_546     S
Er66     Ti121    10.031   1_556     S
Er67     V107    6.017   .     S
Er67     Ti122    10.031   .     S
Er67     Ti124    10.031   .     S
Er68     V108    6.017   .     S
Er68     Ti121    10.031   1_556     S
Er68     Ti123    10.031   1_556     S
Er69     V109    6.017   .     S
Er69     Ti128    10.031   1_545     S
Er69     Ti126    10.031   .     S
Er70     V110    6.017   .     S
Er70     Ti127    10.031   1_546     S
Er70     Ti125    10.031   1_556     S
Er71     V111    6.017   .     S
Er71     Ti126    10.031   .     S
Er71     Ti128    10.031   .     S
Er72     V112    6.017   .     S
Er72     Ti125    10.031   1_556     S
Er72     Ti127    10.031   1_556     S
Er73     V97    6.017   .     S
Er73     Ti127    10.031   1_545     S
Er73     Ti125    10.031   .     S
Er74     V98    6.017   .     S
Er74     Ti128    10.031   1_545     S
Er74     Ti126    10.031   .     S
Er75     V99    6.017   .     S
Er75     Ti125    10.031   .     S
Er75     Ti127    10.031   .     S
Er76     V100    6.017   .     S
Er76     Ti126    10.031   .     S
Er76     Ti128    10.031   .     S
Er77     V101    6.017   .     S
Er77     Ti123    10.031   1_645     S
Er77     Ti121    10.031   1_655     S
Er78     V102    6.017   .     S
Er78     Ti124    10.031   1_645     S
Er78     Ti122    10.031   1_655     S
Er79     V103    6.017   .     S
Er79     Ti121    10.031   1_655     S
Er79     Ti123    10.031   1_655     S
Er80     V104    6.017   .     S
Er80     Ti122    10.031   1_655     S
Er80     Ti124    10.031   1_655     S
Er81     V101    6.017   .     S
Er81     Ti127    10.031   1_445     S
Er81     Ti125    10.031   1_455     S
Er82     V102    6.017   .     S
Er82     Ti128    10.031   1_445     S
Er82     Ti126    10.031   1_455     S
Er83     V103    6.017   .     S
Er83     Ti125    10.031   1_455     S
Er83     Ti127    10.031   1_455     S
Er84     V104    6.017   .     S
Er84     Ti126    10.031   1_455     S
Er84     Ti128    10.031   1_455     S
Er85     V97    6.017   1_655     S
Er85     Ti123    10.031   1_545     S
Er85     Ti121    10.031   .     S
Er86     V98    6.017   1_655     S
Er86     Ti124    10.031   1_545     S
Er86     Ti122    10.031   .     S
Er87     V99    6.017   1_655     S
Er87     Ti121    10.031   .     S
Er87     Ti123    10.031   .     S
Er88     V100    6.017   1_655     S
Er88     Ti122    10.031   .     S
Er88     Ti124    10.031   .     S
Er89     V106    6.017   .     S
Er89     Ti124    10.031   1_544     S
Er89     Ti122    10.031   1_554     S
Er90     V105    6.017   1_556     S
Er90     Ti123    10.031   1_545     S
Er90     Ti121    10.031   .     S
Er91     V108    6.017   .     S
Er91     Ti122    10.031   1_554     S
Er91     Ti124    10.031   1_554     S
Er92     V107    6.017   1_556     S
Er92     Ti121    10.031   .     S
Er92     Ti123    10.031   .     S
Er93     V110    6.017   .     S
Er93     Ti128    10.031   1_544     S
Er93     Ti126    10.031   1_554     S
Er94     V109    6.017   1_556     S
Er94     Ti127    10.031   1_545     S
Er94     Ti125    10.031   .     S
Er95     V112    6.017   .     S
Er95     Ti126    10.031   1_554     S
Er95     Ti128    10.031   1_554     S
Er96     V111    6.017   1_556     S
Er96     Ti125    10.031   .     S
Er96     Ti127    10.031   .     S
V97     Er51    6.017   1_545     S
V97     Er85    6.017   1_455     S
V98     Er52    6.017   1_545     S
V98     Er86    6.017   1_455     S
V99     Er87    6.017   1_455     S
V100     Er88    6.017   1_455     S
V101     Er55    6.017   1_545     S
V102     Er56    6.017   1_545     S
V105     Er19    6.017   1_545     S
V105     Er90    6.017   1_554     S
V106     Er20    6.017   1_545     S
V107     Er92    6.017   1_554     S
V109     Er23    6.017   1_545     S
V109     Er94    6.017   1_554     S
V110     Er24    6.017   1_545     S
V111     Er96    6.017   1_554     S
V113     Er29    6.017   1_455     S
V113     Er58    6.017   1_554     S
V114     Er30    6.017   1_455     S
V115     Er31    6.017   1_455     S
V115     Er60    6.017   1_554     S
V116     Er32    6.017   1_455     S
V117     Er62    6.017   1_554     S
V119     Er64    6.017   1_554     S
Ti121     Er68    10.031   1_554     S
Ti121     Er38    10.031   1_554     S
Ti121     Er66    10.031   1_554     S
Ti121     Er34    10.031   1_554     S
Ti121     Er14    10.031   1_455     S
Ti121     Er79    10.031   1_455     S
Ti121     Er77    10.031   1_455     S
Ti121     Er13    10.031   1_455     S
Ti121     Er4    10.031   1_545     S
Ti121     Er47    10.031   1_545     S
Ti121     Er43    10.031   1_545     S
Ti121     Er3    10.031   1_545     S
Ti122     Er91    10.031   1_556     S
Ti122     Er61    10.031   1_556     S
Ti122     Er89    10.031   1_556     S
Ti122     Er57    10.031   1_556     S
Ti122     Er13    10.031   1_456     S
Ti122     Er29    10.031   1_556     S
Ti122     Er80    10.031   1_455     S
Ti122     Er78    10.031   1_455     S
Ti122     Er14    10.031   1_455     S
Ti122     Er3    10.031   1_546     S
Ti122     Er19    10.031   1_556     S
Ti122     Er48    10.031   1_545     S
Ti122     Er44    10.031   1_545     S
Ti122     Er4    10.031   1_545     S
Ti123     Er66    10.031   1_564     S
Ti123     Er90    10.031   1_565     S
Ti123     Er40    10.031   1_554     S
Ti123     Er68    10.031   1_554     S
Ti123     Er36    10.031   1_554     S
Ti123     Er16    10.031   1_455     S
Ti123     Er77    10.031   1_465     S
Ti123     Er85    10.031   1_565     S
Ti123     Er79    10.031   1_455     S
Ti123     Er15    10.031   1_455     S
Ti123     Er18    10.031   1_565     S
Ti123     Er53    10.031   1_565     S
Ti123     Er49    10.031   1_565     S
Ti123     Er17    10.031   1_565     S
Ti124     Er65    10.031   1_565     S
Ti124     Er89    10.031   1_566     S
Ti124     Er63    10.031   1_556     S
Ti124     Er91    10.031   1_556     S
Ti124     Er59    10.031   1_556     S
Ti124     Er15    10.031   1_456     S
Ti124     Er31    10.031   1_556     S
Ti124     Er78    10.031   1_465     S
Ti124     Er86    10.031   1_565     S
Ti124     Er80    10.031   1_455     S
Ti124     Er16    10.031   1_455     S
Ti124     Er1    10.031   1_556     S
Ti124     Er17    10.031   1_566     S
Ti124     Er54    10.031   1_565     S
Ti124     Er50    10.031   1_565     S
Ti124     Er18    10.031   1_565     S
Ti125     Er72    10.031   1_554     S
Ti125     Er34    10.031   1_654     S
Ti125     Er58    10.031   1_655     S
Ti125     Er70    10.031   1_554     S
Ti125     Er38    10.031   1_554     S
Ti125     Er26    10.031   1_655     S
Ti125     Er83    10.031   1_655     S
Ti125     Er81    10.031   1_655     S
Ti125     Er25    10.031   1_655     S
Ti125     Er8    10.031   1_545     S
Ti125     Er43    10.031   1_645     S
Ti125     Er51    10.031   1_655     S
Ti125     Er47    10.031   1_545     S
Ti125     Er7    10.031   1_545     S
Ti126     Er95    10.031   1_556     S
Ti126     Er33    10.031   1_655     S
Ti126     Er57    10.031   1_656     S
Ti126     Er93    10.031   1_556     S
Ti126     Er61    10.031   1_556     S
Ti126     Er9    10.031   1_556     S
Ti126     Er25    10.031   1_656     S
Ti126     Er84    10.031   1_655     S
Ti126     Er82    10.031   1_655     S
Ti126     Er26    10.031   1_655     S
Ti126     Er7    10.031   1_546     S
Ti126     Er23    10.031   1_556     S
Ti126     Er44    10.031   1_645     S
Ti126     Er52    10.031   1_655     S
Ti126     Er48    10.031   1_545     S
Ti126     Er8    10.031   1_545     S
Ti127     Er70    10.031   1_564     S
Ti127     Er94    10.031   1_565     S
Ti127     Er36    10.031   1_654     S
Ti127     Er60    10.031   1_655     S
Ti127     Er72    10.031   1_554     S
Ti127     Er40    10.031   1_554     S
Ti127     Er28    10.031   1_655     S
Ti127     Er73    10.031   1_565     S
Ti127     Er81    10.031   1_665     S
Ti127     Er83    10.031   1_655     S
Ti127     Er27    10.031   1_655     S
Ti127     Er22    10.031   1_565     S
Ti127     Er41    10.031   1_655     S
Ti127     Er49    10.031   1_665     S
Ti127     Er53    10.031   1_565     S
Ti127     Er21    10.031   1_565     S
Ti128     Er69    10.031   1_565     S
Ti128     Er93    10.031   1_566     S
Ti128     Er35    10.031   1_655     S
Ti128     Er59    10.031   1_656     S
Ti128     Er95    10.031   1_556     S
Ti128     Er63    10.031   1_556     S
Ti128     Er11    10.031   1_556     S
Ti128     Er27    10.031   1_656     S
Ti128     Er74    10.031   1_565     S
Ti128     Er82    10.031   1_665     S
Ti128     Er84    10.031   1_655     S
Ti128     Er28    10.031   1_655     S
Ti128     Er5    10.031   1_556     S
Ti128     Er21    10.031   1_566     S
Ti128     Er42    10.031   1_655     S
Ti128     Er50    10.031   1_665     S
Ti128     Er54    10.031   1_565     S
Ti128     Er22    10.031   1_565     S
