data_ddya
_audit_creation_date              2020-02-02
_audit_creation_method            'Pymatgen'
_symmetry_space_group_name_H-M    'P1'
_symmetry_Int_Tables_number       1
loop_
_symmetry_equiv_pos_as_xyz
  x,y,z
_cell_length_a                    55.6039
_cell_length_b                    55.6039
_cell_length_c                    55.6039
_cell_angle_alpha                 90.0
_cell_angle_beta                 90.0
_cell_angle_gamma                 90.0
loop_
_atom_site_label
_atom_site_type_symbol
_atom_site_fract_x
_atom_site_fract_y
_atom_site_fract_z
Ti1     Ti     0.5   0.6272   0.0
Er2     Er     0.5   0.807   0.0
Er3     Er     0.807   0.5   0.0
Ti4     Ti     0.6272   0.5   0.0
Ti5     Ti     0.5   0.3728   0.0
Er6     Er     0.5   0.193   0.0
Ti7     Ti     0.3728   0.5   0.0
Er8     Er     0.193   0.5   0.0
Ti9     Ti     0.0   0.5   0.6272
Er10     Er     0.0   0.5   0.807
Er11     Er     0.0   0.807   0.5
Ti12     Ti     0.0   0.6272   0.5
Ti13     Ti     0.0   0.3728   0.5
Er14     Er     0.0   0.193   0.5
Ti15     Ti     0.0   0.5   0.3728
Er16     Er     0.0   0.5   0.193
V17     V     0.5899   0.0   0.0372
V18     V     0.5899   0.9628   0.0
V19     V     0.5899   0.0   0.9628
V20     V     0.5899   0.0372   0.0
V21     V     0.4101   0.0   0.0372
V22     V     0.4101   0.0372   0.0
V23     V     0.4101   0.0   0.9628
V24     V     0.4101   0.9628   0.0
Ce25     Ce     0.2543   0.0   0.8728
Ce26     Ce     0.7457   0.0   0.8728
Ce27     Ce     0.7457   0.8728   0.0
Ce28     Ce     0.2543   0.8728   0.0
Ce29     Ce     0.2543   0.0   0.1272
Ce30     Ce     0.7457   0.0   0.1272
Ce31     Ce     0.2543   0.1272   0.0
Ce32     Ce     0.7457   0.1272   0.0
V33     V     0.0   0.5899   0.0372
V34     V     0.0372   0.5899   0.0
V35     V     0.0   0.5899   0.9628
V36     V     0.9628   0.5899   0.0
V37     V     0.0   0.4101   0.0372
V38     V     0.0372   0.4101   0.0
V39     V     0.0   0.4101   0.9628
V40     V     0.9628   0.4101   0.0
Ce41     Ce     0.0   0.2543   0.8728
Ce42     Ce     0.0   0.7457   0.8728
Ce43     Ce     0.8728   0.2543   0.0
Ce44     Ce     0.8728   0.7457   0.0
Ce45     Ce     0.0   0.2543   0.1272
Ce46     Ce     0.0   0.7457   0.1272
Ce47     Ce     0.1272   0.2543   0.0
Ce48     Ce     0.1272   0.7457   0.0
V49     V     0.0   0.9628   0.5899
V50     V     0.0372   0.0   0.5899
V51     V     0.0   0.0372   0.5899
V52     V     0.9628   0.0   0.5899
V53     V     0.0   0.0372   0.4101
V54     V     0.9628   0.0   0.4101
V55     V     0.0   0.9628   0.4101
V56     V     0.0372   0.0   0.4101
Ce57     Ce     0.8728   0.0   0.2543
Ce58     Ce     0.0   0.8728   0.2543
Ce59     Ce     0.0   0.8728   0.7457
Ce60     Ce     0.8728   0.0   0.7457
Ce61     Ce     0.0   0.1272   0.2543
Ce62     Ce     0.1272   0.0   0.2543
Ce63     Ce     0.1272   0.0   0.7457
Ce64     Ce     0.0   0.1272   0.7457
Ti65     Ti     0.5   0.0   0.6272
Er66     Er     0.5   0.0   0.807
Er67     Er     0.807   0.0   0.5
Ti68     Ti     0.6272   0.0   0.5
Ti69     Ti     0.3728   0.0   0.5
Er70     Er     0.193   0.0   0.5
Ti71     Ti     0.5   0.0   0.3728
Er72     Er     0.5   0.0   0.193
loop_
_geom_bond_atom_site_label_1
_geom_bond_atom_site_label_2
_geom_bond_distance
_geom_bond_site_symmetry_2
_ccdc_geom_bond_type
Ti1     Er2    10.0   .     S
Ti1     Ti4    10.0   .     S
Ti1     Ti7    10.0   .     S
Er2     V18    10.0   .     S
Er2     V24    10.0   .     S
Er3     Ti4    10.0   .     S
Er3     V40    10.0   .     S
Er3     V36    10.0   .     S
Ti4     Ti5    10.0   .     S
Ti5     Er6    10.0   .     S
Ti5     Ti7    10.0   .     S
Er6     V22    10.0   .     S
Er6     V20    10.0   .     S
Ti7     Er8    10.0   .     S
Er8     V38    10.0   .     S
Er8     V34    10.0   .     S
Ti9     Er10    10.0   .     S
Ti9     Ti12    10.0   .     S
Ti9     Ti13    10.0   .     S
Er10     V39    10.0   .     S
Er10     V35    10.0   .     S
Er11     Ti12    10.0   .     S
Er11     V55    10.0   .     S
Er11     V49    10.0   .     S
Ti12     Ti15    10.0   .     S
Ti13     Er14    10.0   .     S
Ti13     Ti15    10.0   .     S
Er14     V53    10.0   .     S
Er14     V51    10.0   .     S
Ti15     Er16    10.0   .     S
Er16     V37    10.0   .     S
Er16     V33    10.0   .     S
V17     Ce30    10.0   .     S
V17     V21    10.0   .     S
V17     Er72    10.0   .     S
V18     V24    10.0   .     S
V18     Ce27    10.0   .     S
V19     V23    10.0   .     S
V19     Ce26    10.0   .     S
V19     Er66    10.0   .     S
V20     Ce32    10.0   .     S
V20     V22    10.0   .     S
V21     Er72    10.0   .     S
V21     Ce29    10.0   .     S
V22     Ce31    10.0   .     S
V23     Ce25    10.0   .     S
V23     Er66    10.0   .     S
V24     Ce28    10.0   .     S
Ce25     Ce31    10.0   1_556     S
Ce25     Ce63    10.0   .     S
Ce25     Ce28    10.0   1_546     S
Ce26     Ce32    10.0   1_556     S
Ce26     Ce27    10.0   1_546     S
Ce26     Ce60    10.0   .     S
Ce27     Ce30    10.0   1_565     S
Ce27     Ce26    10.0   1_564     S
Ce27     Ce44    10.0   .     S
Ce28     Ce29    10.0   1_565     S
Ce28     Ce48    10.0   .     S
Ce28     Ce25    10.0   1_564     S
Ce29     Ce28    10.0   1_545     S
Ce29     Ce62    10.0   .     S
Ce29     Ce31    10.0   .     S
Ce30     Ce27    10.0   1_545     S
Ce30     Ce57    10.0   .     S
Ce30     Ce32    10.0   .     S
Ce31     Ce25    10.0   1_554     S
Ce31     Ce47    10.0   .     S
Ce32     Ce26    10.0   1_554     S
Ce32     Ce43    10.0   .     S
V33     Ce46    10.0   .     S
V33     V37    10.0   .     S
V34     Ce48    10.0   .     S
V34     V38    10.0   .     S
V35     V39    10.0   .     S
V35     Ce42    10.0   .     S
V36     V40    10.0   .     S
V36     Ce44    10.0   .     S
V37     Ce45    10.0   .     S
V38     Ce47    10.0   .     S
V39     Ce41    10.0   .     S
V40     Ce43    10.0   .     S
Ce41     Ce47    10.0   1_556     S
Ce41     Ce64    10.0   .     S
Ce41     Ce43    10.0   1_456     S
Ce42     Ce48    10.0   1_556     S
Ce42     Ce44    10.0   1_456     S
Ce42     Ce59    10.0   .     S
Ce43     Ce45    10.0   1_655     S
Ce43     Ce41    10.0   1_654     S
Ce44     Ce46    10.0   1_655     S
Ce44     Ce42    10.0   1_654     S
Ce45     Ce43    10.0   1_455     S
Ce45     Ce61    10.0   .     S
Ce45     Ce47    10.0   .     S
Ce46     Ce44    10.0   1_455     S
Ce46     Ce48    10.0   .     S
Ce46     Ce58    10.0   .     S
Ce47     Ce41    10.0   1_554     S
Ce48     Ce42    10.0   1_554     S
V49     V55    10.0   .     S
V49     Ce59    10.0   .     S
V50     Ce63    10.0   .     S
V50     V56    10.0   .     S
V50     Er70    10.0   .     S
V51     Ce64    10.0   .     S
V51     V53    10.0   .     S
V52     V54    10.0   .     S
V52     Ce60    10.0   .     S
V52     Er67    10.0   .     S
V53     Ce61    10.0   .     S
V54     Ce57    10.0   .     S
V54     Er67    10.0   .     S
V55     Ce58    10.0   .     S
V56     Er70    10.0   .     S
V56     Ce62    10.0   .     S
Ce57     Ce61    10.0   1_655     S
Ce57     Ce58    10.0   1_645     S
Ce58     Ce62    10.0   1_565     S
Ce58     Ce57    10.0   1_465     S
Ce59     Ce63    10.0   1_565     S
Ce59     Ce60    10.0   1_465     S
Ce60     Ce64    10.0   1_655     S
Ce60     Ce59    10.0   1_645     S
Ce61     Ce57    10.0   1_455     S
Ce61     Ce62    10.0   .     S
Ce62     Ce58    10.0   1_545     S
Ce63     Ce59    10.0   1_545     S
Ce63     Ce64    10.0   .     S
Ce64     Ce60    10.0   1_455     S
Ti65     Er66    10.0   .     S
Ti65     Ti68    10.0   .     S
Ti65     Ti69    10.0   .     S
Er67     Ti68    10.0   .     S
Ti68     Ti71    10.0   .     S
Ti69     Er70    10.0   .     S
Ti69     Ti71    10.0   .     S
Ti71     Er72    10.0   .     S
