data_dei
_audit_creation_date              2020-02-02
_audit_creation_method            'Pymatgen'
_symmetry_space_group_name_H-M    'P1'
_symmetry_Int_Tables_number       1
loop_
_symmetry_equiv_pos_as_xyz
  x,y,z
_cell_length_a                    37.1634
_cell_length_b                    37.1634
_cell_length_c                    60.535
_cell_angle_alpha                 90.0
_cell_angle_beta                 90.0
_cell_angle_gamma                 90.0
loop_
_atom_site_label
_atom_site_type_symbol
_atom_site_fract_x
_atom_site_fract_y
_atom_site_fract_z
V1     V     0.6345   0.1155   0.5424
V2     V     0.6345   0.8845   0.4576
V3     V     0.3655   0.1155   0.5424
V4     V     0.3655   0.8845   0.4576
V5     V     0.3655   0.6155   0.4576
V6     V     0.3655   0.3845   0.5424
V7     V     0.6345   0.6155   0.4576
V8     V     0.6345   0.3845   0.5424
V9     V     0.8655   0.8845   0.2076
V10     V     0.6345   0.8845   0.2924
V11     V     0.3655   0.8845   0.2924
V12     V     0.1345   0.8845   0.2076
V13     V     0.3655   0.6155   0.2924
V14     V     0.1345   0.6155   0.2076
V15     V     0.8655   0.6155   0.2076
V16     V     0.6345   0.6155   0.2924
V17     V     0.3655   0.3845   0.7076
V18     V     0.1345   0.3845   0.7924
V19     V     0.8655   0.3845   0.7924
V20     V     0.6345   0.3845   0.7076
V21     V     0.3655   0.1155   0.7076
V22     V     0.1345   0.1155   0.7924
V23     V     0.8655   0.1155   0.7924
V24     V     0.6345   0.1155   0.7076
V25     V     0.1345   0.1155   0.9576
V26     V     0.1345   0.8845   0.0424
V27     V     0.8655   0.1155   0.9576
V28     V     0.8655   0.8845   0.0424
V29     V     0.1345   0.6155   0.0424
V30     V     0.1345   0.3845   0.9576
V31     V     0.8655   0.6155   0.0424
V32     V     0.8655   0.3845   0.9576
loop_
_geom_bond_atom_site_label_1
_geom_bond_atom_site_label_2
_geom_bond_distance
_geom_bond_site_symmetry_2
_ccdc_geom_bond_type
V1     V2    10.0   1_545     S
V1     V3    10.0   .     S
V1     V8    10.0   .     S
V1     V24    10.0   .     S
V2     V1    10.0   1_565     S
V2     V4    10.0   .     S
V2     V7    10.0   .     S
V2     V10    10.0   .     S
V3     V4    10.0   1_545     S
V3     V6    10.0   .     S
V3     V21    10.0   .     S
V4     V3    10.0   1_565     S
V4     V5    10.0   .     S
V4     V11    10.0   .     S
V5     V6    10.0   .     S
V5     V7    10.0   .     S
V5     V13    10.0   .     S
V6     V8    10.0   .     S
V6     V17    10.0   .     S
V7     V8    10.0   .     S
V7     V16    10.0   .     S
V8     V20    10.0   .     S
V9     V10    10.0   .     S
V9     V15    10.0   .     S
V9     V12    10.0   1_655     S
V9     V28    10.0   .     S
V10     V16    10.0   .     S
V10     V11    10.0   .     S
V11     V12    10.0   .     S
V11     V13    10.0   .     S
V12     V9    10.0   1_455     S
V12     V14    10.0   .     S
V12     V26    10.0   .     S
V13     V14    10.0   .     S
V13     V16    10.0   .     S
V14     V15    10.0   1_455     S
V14     V29    10.0   .     S
V15     V16    10.0   .     S
V15     V14    10.0   1_655     S
V15     V31    10.0   .     S
V17     V18    10.0   .     S
V17     V20    10.0   .     S
V17     V21    10.0   .     S
V18     V19    10.0   1_455     S
V18     V22    10.0   .     S
V18     V30    10.0   .     S
V19     V20    10.0   .     S
V19     V18    10.0   1_655     S
V19     V23    10.0   .     S
V19     V32    10.0   .     S
V20     V24    10.0   .     S
V21     V22    10.0   .     S
V21     V24    10.0   .     S
V22     V23    10.0   1_455     S
V22     V25    10.0   .     S
V23     V24    10.0   .     S
V23     V22    10.0   1_655     S
V23     V27    10.0   .     S
V25     V26    10.0   1_546     S
V25     V27    10.0   1_455     S
V25     V30    10.0   .     S
V26     V25    10.0   1_564     S
V26     V29    10.0   .     S
V26     V28    10.0   1_455     S
V27     V28    10.0   1_546     S
V27     V25    10.0   1_655     S
V27     V32    10.0   .     S
V28     V27    10.0   1_564     S
V28     V26    10.0   1_655     S
V28     V31    10.0   .     S
V29     V30    10.0   1_554     S
V29     V31    10.0   1_455     S
V30     V29    10.0   1_556     S
V30     V32    10.0   1_455     S
V31     V32    10.0   1_554     S
V31     V29    10.0   1_655     S
V32     V31    10.0   1_556     S
V32     V30    10.0   1_655     S
