data_dfte
_audit_creation_date              2020-02-02
_audit_creation_method            'Pymatgen'
_symmetry_space_group_name_H-M    'P1'
_symmetry_Int_Tables_number       1
loop_
_symmetry_equiv_pos_as_xyz
  x,y,z
_cell_length_a                    27.14
_cell_length_b                    27.14
_cell_length_c                    33.9821
_cell_angle_alpha                 90.0
_cell_angle_beta                 90.0
_cell_angle_gamma                 90.0
loop_
_atom_site_label
_atom_site_type_symbol
_atom_site_fract_x
_atom_site_fract_y
_atom_site_fract_z
V1     V     0.0   0.5   0.7867
V2     V     0.5   0.0   0.7133
Er3     Er     0.3158   0.3158   0.75
Er4     Er     0.3158   0.6842   0.75
Er5     Er     0.6842   0.6842   0.75
Er6     Er     0.6842   0.3158   0.75
V7     V     0.5   0.0   0.2867
V8     V     0.0   0.5   0.2133
Er9     Er     0.3158   0.3158   0.25
Er10     Er     0.3158   0.6842   0.25
Er11     Er     0.6842   0.3158   0.25
Er12     Er     0.6842   0.6842   0.25
Ti13     Ti     0.2538   0.5   0.0
Ti14     Ti     0.5   0.2538   0.5
Ti15     Ti     0.7462   0.5   0.0
Ti16     Ti     0.5   0.7462   0.5
loop_
_geom_bond_atom_site_label_1
_geom_bond_atom_site_label_2
_geom_bond_distance
_geom_bond_site_symmetry_2
_ccdc_geom_bond_type
V1     Er6    10.0   1_455     S
V1     Er4    10.0   .     S
V1     Er5    10.0   1_455     S
V1     Er3    10.0   .     S
V1     Ti15    10.0   1_456     S
V1     Ti13    10.0   1_556     S
V2     Er4    10.0   1_545     S
V2     Er6    10.0   .     S
V2     Er5    10.0   1_545     S
V2     Er3    10.0   .     S
V2     Ti16    10.0   1_545     S
V2     Ti14    10.0   .     S
Er3     Ti14    10.0   .     S
Er3     Ti13    10.0   1_556     S
Er3     Er6    10.0   .     S
Er3     Er4    10.0   .     S
Er4     V2    10.0   1_565     S
Er4     Ti16    10.0   .     S
Er4     Ti13    10.0   1_556     S
Er4     Er5    10.0   .     S
Er5     V1    10.0   1_655     S
Er5     V2    10.0   1_565     S
Er5     Ti15    10.0   1_556     S
Er5     Ti16    10.0   .     S
Er5     Er6    10.0   .     S
Er6     V1    10.0   1_655     S
Er6     Ti14    10.0   .     S
Er6     Ti15    10.0   1_556     S
V7     Er12    10.0   1_545     S
V7     Er9    10.0   .     S
V7     Er10    10.0   1_545     S
V7     Er11    10.0   .     S
V7     Ti16    10.0   1_545     S
V7     Ti14    10.0   .     S
V8     Er9    10.0   .     S
V8     Er12    10.0   1_455     S
V8     Er11    10.0   1_455     S
V8     Er10    10.0   .     S
V8     Ti15    10.0   1_455     S
V8     Ti13    10.0   .     S
Er9     Ti13    10.0   .     S
Er9     Ti14    10.0   .     S
Er9     Er10    10.0   .     S
Er9     Er11    10.0   .     S
Er10     V7    10.0   1_565     S
Er10     Ti16    10.0   .     S
Er10     Ti13    10.0   .     S
Er10     Er12    10.0   .     S
Er11     V8    10.0   1_655     S
Er11     Ti15    10.0   .     S
Er11     Ti14    10.0   .     S
Er11     Er12    10.0   .     S
Er12     V7    10.0   1_565     S
Er12     V8    10.0   1_655     S
Er12     Ti15    10.0   .     S
Er12     Ti16    10.0   .     S
Ti13     Er3    10.0   1_554     S
Ti13     Er4    10.0   1_554     S
Ti13     V1    10.0   1_554     S
Ti15     Er5    10.0   1_554     S
Ti15     Er6    10.0   1_554     S
Ti15     V1    10.0   1_654     S
Ti15     V8    10.0   1_655     S
Ti16     V2    10.0   1_565     S
Ti16     V7    10.0   1_565     S
