data_diaa
_audit_creation_date              2020-02-02
_audit_creation_method            'Pymatgen'
_symmetry_space_group_name_H-M    'P1'
_symmetry_Int_Tables_number       1
loop_
_symmetry_equiv_pos_as_xyz
  x,y,z
_cell_length_a                    51.3782
_cell_length_b                    51.3782
_cell_length_c                    51.3782
_cell_angle_alpha                 90.0
_cell_angle_beta                 90.0
_cell_angle_gamma                 90.0
loop_
_atom_site_label
_atom_site_type_symbol
_atom_site_fract_x
_atom_site_fract_y
_atom_site_fract_z
V1     V     0.6938   0.0562   0.1938
V2     V     0.5562   0.1938   0.1938
V3     V     0.5562   0.0562   0.0562
V4     V     0.6938   0.1938   0.0562
V5     V     0.4438   0.8062   0.8062
V6     V     0.3062   0.9438   0.8062
V7     V     0.4438   0.9438   0.9438
V8     V     0.3062   0.8062   0.9438
V9     V     0.6938   0.5562   0.6938
V10     V     0.5562   0.6938   0.6938
V11     V     0.5562   0.5562   0.5562
V12     V     0.6938   0.6938   0.5562
V13     V     0.8062   0.3062   0.9438
V14     V     0.9438   0.3062   0.8062
V15     V     0.9438   0.4438   0.9438
V16     V     0.8062   0.4438   0.8062
V17     V     0.0562   0.5562   0.0562
V18     V     0.1938   0.6938   0.0562
V19     V     0.0562   0.6938   0.1938
V20     V     0.1938   0.5562   0.1938
V21     V     0.1938   0.0562   0.6938
V22     V     0.0562   0.1938   0.6938
V23     V     0.1938   0.1938   0.5562
V24     V     0.0562   0.0562   0.5562
V25     V     0.8062   0.8062   0.4438
V26     V     0.9438   0.8062   0.3062
V27     V     0.9438   0.9438   0.4438
V28     V     0.8062   0.9438   0.3062
V29     V     0.3062   0.4438   0.3062
V30     V     0.4438   0.4438   0.4438
V31     V     0.4438   0.3062   0.3062
V32     V     0.3062   0.3062   0.4438
loop_
_geom_bond_atom_site_label_1
_geom_bond_atom_site_label_2
_geom_bond_distance
_geom_bond_site_symmetry_2
_ccdc_geom_bond_type
V1     V4    9.999   .     S
V1     V2    9.999   .     S
V1     V3    9.999   .     S
V1     V28    10.001   1_545     S
V2     V4    9.999   .     S
V2     V3    9.999   .     S
V2     V31    10.001   .     S
V3     V4    9.999   .     S
V3     V7    10.001   1_544     S
V4     V13    10.001   1_554     S
V5     V6    9.999   .     S
V5     V7    9.999   .     S
V5     V8    9.999   .     S
V5     V10    10.001   .     S
V6     V8    9.999   .     S
V6     V7    9.999   .     S
V6     V21    10.001   1_565     S
V7     V8    9.999   .     S
V7     V3    10.001   1_566     S
V8     V18    10.001   1_556     S
V9     V10    9.999   .     S
V9     V11    9.999   .     S
V9     V12    9.999   .     S
V9     V16    10.001   .     S
V10     V11    9.999   .     S
V10     V12    9.999   .     S
V11     V12    9.999   .     S
V11     V30    10.001   .     S
V12     V25    10.001   .     S
V13     V15    9.999   .     S
V13     V14    9.999   .     S
V13     V16    9.999   .     S
V13     V4    10.001   1_556     S
V14     V16    9.999   .     S
V14     V15    9.999   .     S
V14     V22    10.001   1_655     S
V15     V16    9.999   .     S
V15     V17    10.001   1_656     S
V17     V15    10.001   1_454     S
V17     V20    9.999   .     S
V17     V18    9.999   .     S
V17     V19    9.999   .     S
V18     V8    10.001   1_554     S
V18     V20    9.999   .     S
V18     V19    9.999   .     S
V19     V20    9.999   .     S
V19     V26    10.001   1_455     S
V20     V29    10.001   .     S
V21     V6    10.001   1_545     S
V21     V22    9.999   .     S
V21     V23    9.999   .     S
V21     V24    9.999   .     S
V22     V23    9.999   .     S
V22     V24    9.999   .     S
V22     V14    10.001   1_455     S
V23     V24    9.999   .     S
V23     V32    10.001   .     S
V24     V27    10.001   1_445     S
V25     V26    9.999   .     S
V25     V28    9.999   .     S
V25     V27    9.999   .     S
V26     V27    9.999   .     S
V26     V28    9.999   .     S
V26     V19    10.001   1_655     S
V27     V28    9.999   .     S
V27     V24    10.001   1_665     S
V28     V1    10.001   1_565     S
V29     V32    9.999   .     S
V29     V31    9.999   .     S
V29     V30    9.999   .     S
V30     V31    9.999   .     S
V30     V32    9.999   .     S
V31     V32    9.999   .     S
