data_diaaa
_audit_creation_date              2020-02-02
_audit_creation_method            'Pymatgen'
_symmetry_space_group_name_H-M    'P1'
_symmetry_Int_Tables_number       1
loop_
_symmetry_equiv_pos_as_xyz
  x,y,z
_cell_length_a                    107.9465
_cell_length_b                    107.9465
_cell_length_c                    107.9465
_cell_angle_alpha                 90.0
_cell_angle_beta                 90.0
_cell_angle_gamma                 90.0
loop_
_atom_site_label
_atom_site_type_symbol
_atom_site_fract_x
_atom_site_fract_y
_atom_site_fract_z
Er1     Er     0.5267   0.5923   0.0922
Er2     Er     0.5267   0.6578   0.1578
Er3     Er     0.5267   0.1578   0.6577
Er4     Er     0.5267   0.0922   0.5923
Er5     Er     0.3423   0.9733   0.3423
Er6     Er     0.4078   0.9733   0.4078
Er7     Er     0.4078   0.3422   0.7767
Er8     Er     0.3422   0.4078   0.7767
Er9     Er     0.7767   0.8422   0.9078
Er10     Er     0.7767   0.9078   0.8422
Er11     Er     0.9733   0.3422   0.3422
Er12     Er     0.9733   0.4078   0.4078
Er13     Er     0.7233   0.1578   0.5923
Er14     Er     0.7233   0.0922   0.6577
Er15     Er     0.5923   0.0922   0.5267
Er16     Er     0.6578   0.1577   0.5267
Er17     Er     0.3423   0.7767   0.4077
Er18     Er     0.4078   0.7767   0.3422
Er19     Er     0.1578   0.6577   0.5267
Er20     Er     0.0922   0.5922   0.5267
Er21     Er     0.5923   0.1578   0.7233
Er22     Er     0.6578   0.0922   0.7233
Er23     Er     0.2767   0.8422   0.4077
Er24     Er     0.2767   0.9078   0.3423
Er25     Er     0.1578   0.5923   0.7233
Er26     Er     0.0922   0.6577   0.7233
Er27     Er     0.2767   0.3422   0.9078
Er28     Er     0.2767   0.4078   0.8422
Er29     Er     0.5923   0.5267   0.0922
Er30     Er     0.6577   0.5267   0.1578
Er31     Er     0.2233   0.0922   0.1577
Er32     Er     0.2233   0.1578   0.0922
Er33     Er     0.4733   0.9078   0.4078
Er34     Er     0.4733   0.8422   0.3422
Er35     Er     0.9078   0.8422   0.7767
Er36     Er     0.8422   0.9078   0.7767
V37     V     0.7767   0.9733   0.7767
V38     V     0.7233   0.0267   0.7233
Er39     Er     0.5923   0.0267   0.5923
Er40     Er     0.6577   0.0267   0.6577
V41     V     0.4733   0.9733   0.4733
V42     V     0.5267   0.0267   0.5267
V43     V     0.7233   0.5267   0.2233
V44     V     0.7767   0.4733   0.2767
Er45     Er     0.1577   0.7233   0.5922
Er46     Er     0.0922   0.7233   0.6578
Er47     Er     0.3422   0.8422   0.4733
Er48     Er     0.4078   0.9078   0.4733
Er49     Er     0.0922   0.5267   0.5923
Er50     Er     0.1577   0.5267   0.6578
V51     V     0.2233   0.7233   0.5267
V52     V     0.2767   0.7767   0.4733
Er53     Er     0.2233   0.5923   0.6578
Er54     Er     0.2233   0.6578   0.5922
Er55     Er     0.3423   0.4733   0.8422
Er56     Er     0.4078   0.4733   0.9078
V57     V     0.2767   0.4733   0.7767
V58     V     0.2233   0.5267   0.7233
Er59     Er     0.4733   0.3422   0.8422
Er60     Er     0.4733   0.4078   0.9078
Er61     Er     0.3422   0.3422   0.9733
Er62     Er     0.4078   0.4078   0.9733
Er63     Er     0.7767   0.4078   0.3422
Er64     Er     0.7767   0.3422   0.4078
Er65     Er     0.8422   0.4733   0.3422
Er66     Er     0.9078   0.4733   0.4078
Er67     Er     0.9078   0.4078   0.4733
Er68     Er     0.8422   0.3422   0.4733
V69     V     0.5267   0.2233   0.7233
V70     V     0.4733   0.2767   0.7767
Er71     Er     0.6577   0.2233   0.5923
Er72     Er     0.5923   0.2233   0.6577
V73     V     0.7767   0.2767   0.4733
V74     V     0.7233   0.2233   0.5267
Er75     Er     0.9078   0.3422   0.2767
Er76     Er     0.8422   0.4077   0.2767
Er77     Er     0.4078   0.2767   0.8422
Er78     Er     0.3423   0.2767   0.9078
Er79     Er     0.1577   0.2233   0.0922
Er80     Er     0.0922   0.2233   0.1578
V81     V     0.2767   0.2767   0.9733
V82     V     0.2233   0.2233   0.0267
Er83     Er     0.8422   0.2767   0.4078
Er84     Er     0.9078   0.2767   0.3422
V85     V     0.9733   0.2767   0.2767
V86     V     0.0267   0.2233   0.2233
Er87     Er     0.1578   0.0922   0.2233
Er88     Er     0.0922   0.1578   0.2233
V89     V     0.9733   0.4733   0.4733
V90     V     0.0267   0.5267   0.5267
Er91     Er     0.7233   0.5923   0.1578
Er92     Er     0.7233   0.6577   0.0922
V93     V     0.2767   0.9733   0.2767
V94     V     0.2233   0.0267   0.2233
Er95     Er     0.5923   0.6577   0.2233
Er96     Er     0.6578   0.5923   0.2233
Er97     Er     0.4078   0.8422   0.2767
Er98     Er     0.3422   0.9078   0.2767
V99     V     0.4733   0.7767   0.2767
V100     V     0.5267   0.7233   0.2233
Er101     Er     0.1578   0.1578   0.0267
Er102     Er     0.0922   0.0922   0.0267
Er103     Er     0.1577   0.0267   0.1577
Er104     Er     0.0922   0.0267   0.0922
Er105     Er     0.0267   0.1578   0.1578
Er106     Er     0.0267   0.0922   0.0922
V107     V     0.4733   0.4733   0.9733
V108     V     0.5267   0.5267   0.0267
Er109     Er     0.5923   0.7233   0.1578
Er110     Er     0.6577   0.7233   0.0922
Er111     Er     0.5923   0.5922   0.0267
Er112     Er     0.6578   0.6578   0.0267
V113     V     0.7767   0.7767   0.9733
V114     V     0.7233   0.7233   0.0267
Er115     Er     0.0267   0.5923   0.5923
Er116     Er     0.0267   0.6578   0.6578
V117     V     0.9733   0.7767   0.7767
V118     V     0.0267   0.7233   0.7233
Er119     Er     0.8422   0.7767   0.9078
Er120     Er     0.9078   0.7767   0.8422
Er121     Er     0.9078   0.9078   0.9733
Er122     Er     0.8422   0.8422   0.9733
Er123     Er     0.9733   0.9078   0.9078
Er124     Er     0.9733   0.8422   0.8422
Er125     Er     0.8422   0.9733   0.8422
Er126     Er     0.9078   0.9733   0.9078
V127     V     0.9733   0.9733   0.9733
V128     V     0.0267   0.0267   0.0267
loop_
_geom_bond_atom_site_label_1
_geom_bond_atom_site_label_2
_geom_bond_distance
_geom_bond_site_symmetry_2
_ccdc_geom_bond_type
Er1     Er2    9.999   .     S
Er1     V108    10.001   .     S
Er1     Er111    10.001   .     S
Er1     Er29    10.001   .     S
Er2     Er109    10.001   .     S
Er2     V100    10.001   .     S
Er2     Er95    10.001   .     S
Er3     Er4    9.999   .     S
Er3     V69    10.001   .     S
Er3     Er72    10.001   .     S
Er3     Er21    10.001   .     S
Er4     V42    10.001   .     S
Er4     Er39    10.001   .     S
Er4     Er15    10.001   .     S
Er5     Er6    9.999   .     S
Er5     Er24    10.001   .     S
Er5     V93    10.001   .     S
Er5     Er98    10.001   .     S
Er6     Er33    10.001   .     S
Er6     V41    10.001   .     S
Er6     Er48    10.001   .     S
Er7     Er8    9.999   .     S
Er7     Er59    10.001   .     S
Er7     V70    10.001   .     S
Er7     Er77    10.001   .     S
Er8     Er28    10.001   .     S
Er8     Er55    10.001   .     S
Er8     V57    10.001   .     S
Er9     Er10    9.999   .     S
Er9     V113    10.001   .     S
Er9     Er122    10.001   .     S
Er9     Er119    10.001   .     S
Er10     Er125    10.001   .     S
Er10     V37    10.001   .     S
Er10     Er36    10.001   .     S
Er11     Er12    9.999   .     S
Er11     Er84    10.001   .     S
Er11     V85    10.001   .     S
Er11     Er75    10.001   .     S
Er12     Er66    10.001   .     S
Er12     Er67    10.001   .     S
Er12     V89    10.001   .     S
Er13     Er14    9.999   .     S
Er13     Er16    10.001   .     S
Er13     V74    10.001   .     S
Er13     Er71    10.001   .     S
Er14     Er22    10.001   .     S
Er14     V38    10.001   .     S
Er14     Er40    10.001   .     S
Er15     Er16    9.999   .     S
Er15     V42    10.001   .     S
Er15     Er39    10.001   .     S
Er16     V74    10.001   .     S
Er16     Er71    10.001   .     S
Er17     Er18    9.999   .     S
Er17     Er23    10.001   .     S
Er17     V52    10.001   .     S
Er17     Er47    10.001   .     S
Er18     Er97    10.001   .     S
Er18     Er34    10.001   .     S
Er18     V99    10.001   .     S
Er19     Er20    9.999   .     S
Er19     V51    10.001   .     S
Er19     Er54    10.001   .     S
Er19     Er45    10.001   .     S
Er20     Er49    10.001   .     S
Er20     V90    10.001   .     S
Er20     Er115    10.001   .     S
Er21     Er22    9.999   .     S
Er21     V69    10.001   .     S
Er21     Er72    10.001   .     S
Er22     V38    10.001   .     S
Er22     Er40    10.001   .     S
Er23     Er24    9.999   .     S
Er23     V52    10.001   .     S
Er23     Er47    10.001   .     S
Er24     V93    10.001   .     S
Er24     Er98    10.001   .     S
Er25     Er26    9.999   .     S
Er25     Er50    10.001   .     S
Er25     Er53    10.001   .     S
Er25     V58    10.001   .     S
Er26     Er46    10.001   .     S
Er26     V118    10.001   .     S
Er26     Er116    10.001   .     S
Er27     Er28    9.999   .     S
Er27     Er61    10.001   .     S
Er27     V81    10.001   .     S
Er27     Er78    10.001   .     S
Er28     V57    10.001   .     S
Er28     Er55    10.001   .     S
Er29     Er30    9.999   .     S
Er29     V108    10.001   .     S
Er29     Er111    10.001   .     S
Er30     Er96    10.001   .     S
Er30     V43    10.001   .     S
Er30     Er91    10.001   .     S
Er31     Er32    9.999   .     S
Er31     V94    10.001   .     S
Er31     Er103    10.001   .     S
Er31     Er87    10.001   .     S
Er32     Er101    10.001   .     S
Er32     V82    10.001   .     S
Er32     Er79    10.001   .     S
Er33     Er34    9.999   .     S
Er33     V41    10.001   .     S
Er33     Er48    10.001   .     S
Er34     V99    10.001   .     S
Er34     Er97    10.001   .     S
Er35     Er36    9.999   .     S
Er35     V117    10.001   .     S
Er35     Er120    10.001   .     S
Er35     Er124    10.001   .     S
Er36     V37    10.001   .     S
Er36     Er125    10.001   .     S
V37     V38    9.999   1_565     S
V37     Er125    10.001   .     S
V38     V37    9.999   1_545     S
V38     Er40    10.001   .     S
Er39     Er40    9.999   .     S
Er39     V42    10.001   .     S
V41     Er48    10.001   .     S
V41     V42    9.999   1_565     S
V42     V41    9.999   1_545     S
V43     Er91    10.001   .     S
V43     Er96    10.001   .     S
V43     V44    9.999   .     S
V44     Er63    10.001   .     S
V44     Er65    10.001   .     S
V44     Er76    10.001   .     S
Er45     Er46    9.999   .     S
Er45     V51    10.001   .     S
Er45     Er54    10.001   .     S
Er46     V118    10.001   .     S
Er46     Er116    10.001   .     S
Er47     Er48    9.999   .     S
Er47     V52    10.001   .     S
Er49     Er50    9.999   .     S
Er49     V90    10.001   .     S
Er49     Er115    10.001   .     S
Er50     V58    10.001   .     S
Er50     Er53    10.001   .     S
V51     V52    9.999   .     S
V51     Er54    10.001   .     S
Er53     Er54    9.999   .     S
Er53     V58    10.001   .     S
Er55     Er56    9.999   .     S
Er55     V57    10.001   .     S
Er56     Er62    10.001   .     S
Er56     V107    10.001   .     S
Er56     Er60    10.001   .     S
V57     V58    9.999   .     S
Er59     Er60    9.999   .     S
Er59     V70    10.001   .     S
Er59     Er77    10.001   .     S
Er60     Er62    10.001   .     S
Er60     V107    10.001   .     S
Er61     Er62    9.999   .     S
Er61     Er78    10.001   .     S
Er61     V81    10.001   .     S
Er62     V107    10.001   .     S
Er63     Er65    10.001   .     S
Er63     Er64    9.999   .     S
Er63     Er76    10.001   .     S
Er64     Er68    10.001   .     S
Er64     V73    10.001   .     S
Er64     Er83    10.001   .     S
Er65     Er76    10.001   .     S
Er65     Er66    9.999   .     S
Er66     V89    10.001   .     S
Er66     Er67    10.001   .     S
Er67     Er68    9.999   .     S
Er67     V89    10.001   .     S
Er68     Er83    10.001   .     S
Er68     V73    10.001   .     S
V69     V70    9.999   .     S
V69     Er72    10.001   .     S
V70     Er77    10.001   .     S
Er71     Er72    9.999   .     S
Er71     V74    10.001   .     S
V73     Er83    10.001   .     S
V73     V74    9.999   .     S
Er75     Er76    9.999   .     S
Er75     V85    10.001   .     S
Er75     Er84    10.001   .     S
Er77     Er78    9.999   .     S
Er78     V81    10.001   .     S
Er79     Er80    9.999   .     S
Er79     V82    10.001   .     S
Er79     Er101    10.001   .     S
Er80     Er105    10.001   .     S
Er80     V86    10.001   .     S
Er80     Er88    10.001   .     S
V81     V82    9.999   1_556     S
V82     V81    9.999   1_554     S
V82     Er101    10.001   .     S
Er83     Er84    9.999   .     S
Er84     V85    10.001   .     S
V85     V86    9.999   1_655     S
V86     V85    9.999   1_455     S
V86     Er105    10.001   .     S
V86     Er88    10.001   .     S
Er87     Er88    9.999   .     S
Er87     V94    10.001   .     S
Er87     Er103    10.001   .     S
Er88     Er105    10.001   .     S
V89     V90    9.999   1_655     S
V90     V89    9.999   1_455     S
V90     Er115    10.001   .     S
Er91     Er92    9.999   .     S
Er91     Er96    10.001   .     S
Er92     V114    10.001   .     S
Er92     Er112    10.001   .     S
Er92     Er110    10.001   .     S
V93     Er98    10.001   .     S
V93     V94    9.999   1_565     S
V94     V93    9.999   1_545     S
V94     Er103    10.001   .     S
Er95     Er96    9.999   .     S
Er95     V100    10.001   .     S
Er95     Er109    10.001   .     S
Er97     Er98    9.999   .     S
Er97     V99    10.001   .     S
V99     V100    9.999   .     S
V100     Er109    10.001   .     S
Er101     Er102    9.999   .     S
Er102     V128    10.001   .     S
Er102     Er104    10.001   .     S
Er102     Er106    10.001   .     S
Er103     Er104    9.999   .     S
Er104     V128    10.001   .     S
Er104     Er106    10.001   .     S
Er105     Er106    9.999   .     S
Er106     V128    10.001   .     S
V107     V108    9.999   1_556     S
V108     V107    9.999   1_554     S
V108     Er111    10.001   .     S
Er109     Er110    9.999   .     S
Er110     V114    10.001   .     S
Er110     Er112    10.001   .     S
Er111     Er112    9.999   .     S
Er112     V114    10.001   .     S
V113     V114    9.999   1_556     S
V113     Er122    10.001   .     S
V113     Er119    10.001   .     S
V114     V113    9.999   1_554     S
Er115     Er116    9.999   .     S
Er116     V118    10.001   .     S
V117     V118    9.999   1_655     S
V117     Er124    10.001   .     S
V117     Er120    10.001   .     S
V118     V117    9.999   1_455     S
Er119     Er120    9.999   .     S
Er119     Er122    10.001   .     S
Er120     Er124    10.001   .     S
Er121     Er122    9.999   .     S
Er121     V127    10.001   .     S
Er121     Er123    10.001   .     S
Er121     Er126    10.001   .     S
Er123     Er124    9.999   .     S
Er123     V127    10.001   .     S
Er123     Er126    10.001   .     S
Er125     Er126    9.999   .     S
Er126     V127    10.001   .     S
V127     V128    9.999   1_666     S
V128     V127    9.999   1_444     S
