data_diaj
_audit_creation_date              2020-02-02
_audit_creation_method            'Pymatgen'
_symmetry_space_group_name_H-M    'P1'
_symmetry_Int_Tables_number       1
loop_
_symmetry_equiv_pos_as_xyz
  x,y,z
_cell_length_a                    56.5685
_cell_length_b                    56.5685
_cell_length_c                    56.5685
_cell_angle_alpha                 90.0
_cell_angle_beta                 90.0
_cell_angle_gamma                 90.0
loop_
_atom_site_label
_atom_site_type_symbol
_atom_site_fract_x
_atom_site_fract_y
_atom_site_fract_z
V1     V     0.75   0.625   0.75
V2     V     0.75   0.375   0.75
V3     V     0.75   0.5   0.875
V4     V     0.75   0.875   0.5
V5     V     0.75   0.25   0.875
V6     V     0.75   0.875   0.25
V7     V     0.75   0.0   0.125
V8     V     0.75   0.125   0.25
V9     V     0.75   0.25   0.125
V10     V     0.75   0.125   0.0
V11     V     0.75   0.0   0.375
V12     V     0.75   0.375   0.0
V13     V     0.75   0.625   0.5
V14     V     0.75   0.5   0.625
V15     V     0.75   0.75   0.625
V16     V     0.75   0.75   0.375
V17     V     0.5   0.75   0.625
V18     V     0.625   0.75   0.5
V19     V     0.5   0.625   0.75
V20     V     0.625   0.5   0.75
V21     V     0.625   0.75   0.75
V22     V     0.375   0.75   0.75
V23     V     0.5   0.75   0.875
V24     V     0.875   0.75   0.5
V25     V     0.875   0.75   0.25
V26     V     0.25   0.75   0.875
V27     V     0.25   0.75   0.125
V28     V     0.125   0.75   0.0
V29     V     0.0   0.75   0.125
V30     V     0.125   0.75   0.25
V31     V     0.0   0.75   0.375
V32     V     0.375   0.75   0.0
V33     V     0.0   0.25   0.875
V34     V     0.875   0.25   0.0
V35     V     0.0   0.625   0.0
V36     V     0.875   0.5   0.0
V37     V     0.0   0.5   0.875
V38     V     0.25   0.625   0.25
V39     V     0.25   0.5   0.125
V40     V     0.125   0.5   0.25
V41     V     0.25   0.625   0.0
V42     V     0.125   0.5   0.0
V43     V     0.0   0.5   0.125
V44     V     0.0   0.625   0.25
V45     V     0.25   0.0   0.875
V46     V     0.25   0.875   0.0
V47     V     0.625   0.5   0.5
V48     V     0.5   0.625   0.5
V49     V     0.5   0.5   0.625
V50     V     0.625   0.0   0.0
V51     V     0.5   0.875   0.0
V52     V     0.5   0.0   0.875
V53     V     0.625   0.25   0.25
V54     V     0.5   0.25   0.125
V55     V     0.5   0.125   0.25
V56     V     0.625   0.0   0.25
V57     V     0.5   0.0   0.125
V58     V     0.5   0.125   0.0
V59     V     0.625   0.25   0.0
V60     V     0.0   0.875   0.25
V61     V     0.875   0.0   0.25
V62     V     0.25   0.25   0.625
V63     V     0.0   0.875   0.5
V64     V     0.875   0.0   0.5
V65     V     0.0   0.0   0.625
V66     V     0.125   0.0   0.5
V67     V     0.0   0.125   0.5
V68     V     0.0   0.25   0.625
V69     V     0.125   0.25   0.5
V70     V     0.25   0.125   0.5
V71     V     0.25   0.0   0.625
V72     V     0.0   0.0   0.375
V73     V     0.375   0.25   0.5
V74     V     0.25   0.375   0.5
V75     V     0.25   0.25   0.375
V76     V     0.5   0.25   0.375
V77     V     0.5   0.375   0.5
V78     V     0.375   0.0   0.0
V79     V     0.375   0.25   0.25
V80     V     0.5   0.375   0.25
V81     V     0.375   0.5   0.5
V82     V     0.5   0.5   0.375
V83     V     0.25   0.375   0.25
V84     V     0.0   0.375   0.0
V85     V     0.375   0.5   0.25
V86     V     0.25   0.5   0.375
V87     V     0.875   0.5   0.75
V88     V     0.5   0.875   0.75
V89     V     0.25   0.875   0.75
V90     V     0.875   0.25   0.75
V91     V     0.125   0.25   0.75
V92     V     0.0   0.125   0.75
V93     V     0.25   0.125   0.75
V94     V     0.125   0.0   0.75
V95     V     0.375   0.0   0.75
V96     V     0.0   0.375   0.75
loop_
_geom_bond_atom_site_label_1
_geom_bond_atom_site_label_2
_geom_bond_distance
_geom_bond_site_symmetry_2
_ccdc_geom_bond_type
V1     V15    10.0   .     S
V1     V21    10.0   .     S
V1     V14    10.0   .     S
V1     V20    10.0   .     S
V1     V87    10.0   .     S
V1     V3    10.0   .     S
V2     V5    10.0   .     S
V2     V90    10.0   .     S
V2     V3    10.0   .     S
V2     V87    10.0   .     S
V2     V14    10.0   .     S
V2     V20    10.0   .     S
V3     V87    10.0   .     S
V3     V20    10.0   .     S
V3     V12    10.0   1_556     S
V3     V36    10.0   1_556     S
V4     V11    10.0   1_565     S
V4     V64    10.0   1_565     S
V4     V16    10.0   .     S
V4     V24    10.0   .     S
V4     V18    10.0   .     S
V4     V15    10.0   .     S
V5     V90    10.0   .     S
V5     V12    10.0   1_556     S
V5     V34    10.0   1_556     S
V5     V59    10.0   1_556     S
V5     V10    10.0   1_556     S
V6     V11    10.0   1_565     S
V6     V61    10.0   1_565     S
V6     V56    10.0   1_565     S
V6     V7    10.0   1_565     S
V6     V25    10.0   .     S
V6     V16    10.0   .     S
V7     V56    10.0   .     S
V7     V6    10.0   1_545     S
V7     V61    10.0   .     S
V7     V8    10.0   .     S
V7     V50    10.0   .     S
V7     V10    10.0   .     S
V8     V56    10.0   .     S
V8     V11    10.0   .     S
V8     V61    10.0   .     S
V8     V53    10.0   .     S
V8     V9    10.0   .     S
V9     V59    10.0   .     S
V9     V12    10.0   .     S
V9     V34    10.0   .     S
V9     V53    10.0   .     S
V9     V10    10.0   .     S
V10     V59    10.0   .     S
V10     V5    10.0   1_554     S
V10     V34    10.0   .     S
V10     V50    10.0   .     S
V11     V4    10.0   1_545     S
V11     V64    10.0   .     S
V11     V6    10.0   1_545     S
V11     V61    10.0   .     S
V11     V56    10.0   .     S
V12     V3    10.0   1_554     S
V12     V36    10.0   .     S
V12     V5    10.0   1_554     S
V12     V34    10.0   .     S
V12     V59    10.0   .     S
V13     V14    10.0   .     S
V13     V47    10.0   .     S
V13     V15    10.0   .     S
V13     V18    10.0   .     S
V13     V24    10.0   .     S
V13     V16    10.0   .     S
V14     V20    10.0   .     S
V14     V87    10.0   .     S
V14     V47    10.0   .     S
V15     V21    10.0   .     S
V15     V18    10.0   .     S
V15     V24    10.0   .     S
V16     V25    10.0   .     S
V16     V24    10.0   .     S
V16     V18    10.0   .     S
V17     V18    10.0   .     S
V17     V48    10.0   .     S
V17     V21    10.0   .     S
V17     V19    10.0   .     S
V17     V88    10.0   .     S
V17     V22    10.0   .     S
V18     V48    10.0   .     S
V19     V20    10.0   .     S
V19     V49    10.0   .     S
V19     V21    10.0   .     S
V19     V23    10.0   .     S
V19     V22    10.0   .     S
V20     V49    10.0   .     S
V21     V88    10.0   .     S
V21     V23    10.0   .     S
V22     V89    10.0   .     S
V22     V26    10.0   .     S
V22     V23    10.0   .     S
V22     V88    10.0   .     S
V23     V88    10.0   .     S
V23     V32    10.0   1_556     S
V23     V51    10.0   1_556     S
V24     V31    10.0   1_655     S
V24     V63    10.0   1_655     S
V25     V31    10.0   1_655     S
V25     V60    10.0   1_655     S
V25     V44    10.0   1_655     S
V25     V29    10.0   1_655     S
V26     V89    10.0   .     S
V26     V28    10.0   1_556     S
V26     V32    10.0   1_556     S
V26     V46    10.0   1_556     S
V26     V41    10.0   1_556     S
V27     V41    10.0   .     S
V27     V32    10.0   .     S
V27     V46    10.0   .     S
V27     V28    10.0   .     S
V27     V38    10.0   .     S
V27     V30    10.0   .     S
V28     V41    10.0   .     S
V28     V26    10.0   1_554     S
V28     V46    10.0   .     S
V28     V35    10.0   .     S
V28     V29    10.0   .     S
V29     V44    10.0   .     S
V29     V25    10.0   1_455     S
V29     V60    10.0   .     S
V29     V35    10.0   .     S
V29     V30    10.0   .     S
V30     V44    10.0   .     S
V30     V31    10.0   .     S
V30     V60    10.0   .     S
V30     V38    10.0   .     S
V31     V24    10.0   1_455     S
V31     V63    10.0   .     S
V31     V25    10.0   1_455     S
V31     V60    10.0   .     S
V31     V44    10.0   .     S
V32     V23    10.0   1_554     S
V32     V51    10.0   .     S
V32     V46    10.0   .     S
V32     V26    10.0   1_554     S
V32     V41    10.0   .     S
V33     V84    10.0   1_556     S
V33     V34    10.0   1_456     S
V33     V92    10.0   .     S
V33     V96    10.0   .     S
V33     V90    10.0   1_455     S
V33     V91    10.0   .     S
V34     V5    10.0   1_554     S
V34     V84    10.0   1_655     S
V34     V33    10.0   1_654     S
V35     V43    10.0   .     S
V35     V36    10.0   1_455     S
V35     V37    10.0   1_554     S
V35     V42    10.0   .     S
V36     V3    10.0   1_554     S
V36     V43    10.0   1_655     S
V36     V35    10.0   1_655     S
V36     V84    10.0   1_655     S
V36     V37    10.0   1_654     S
V37     V84    10.0   1_556     S
V37     V36    10.0   1_456     S
V37     V35    10.0   1_556     S
V37     V42    10.0   1_556     S
V37     V96    10.0   .     S
V37     V87    10.0   1_455     S
V38     V40    10.0   .     S
V38     V85    10.0   .     S
V38     V86    10.0   .     S
V38     V39    10.0   .     S
V39     V85    10.0   .     S
V39     V83    10.0   .     S
V39     V40    10.0   .     S
V39     V41    10.0   .     S
V39     V42    10.0   .     S
V40     V86    10.0   .     S
V40     V83    10.0   .     S
V40     V43    10.0   .     S
V40     V44    10.0   .     S
V41     V26    10.0   1_554     S
V41     V42    10.0   .     S
V42     V37    10.0   1_554     S
V42     V84    10.0   .     S
V42     V43    10.0   .     S
V43     V36    10.0   1_455     S
V43     V84    10.0   .     S
V43     V44    10.0   .     S
V44     V25    10.0   1_455     S
V45     V78    10.0   1_556     S
V45     V46    10.0   1_546     S
V45     V94    10.0   .     S
V45     V95    10.0   .     S
V45     V89    10.0   1_545     S
V45     V93    10.0   .     S
V46     V26    10.0   1_554     S
V46     V78    10.0   1_565     S
V46     V45    10.0   1_564     S
V47     V82    10.0   .     S
V47     V48    10.0   .     S
V47     V49    10.0   .     S
V47     V77    10.0   .     S
V48     V49    10.0   .     S
V48     V81    10.0   .     S
V48     V82    10.0   .     S
V49     V81    10.0   .     S
V49     V77    10.0   .     S
V50     V58    10.0   .     S
V50     V51    10.0   1_545     S
V50     V52    10.0   1_554     S
V50     V57    10.0   .     S
V51     V23    10.0   1_554     S
V51     V50    10.0   1_565     S
V51     V78    10.0   1_565     S
V51     V52    10.0   1_564     S
V51     V57    10.0   1_565     S
V52     V58    10.0   1_556     S
V52     V78    10.0   1_556     S
V52     V51    10.0   1_546     S
V52     V50    10.0   1_556     S
V52     V95    10.0   .     S
V52     V88    10.0   1_545     S
V53     V55    10.0   .     S
V53     V80    10.0   .     S
V53     V76    10.0   .     S
V53     V54    10.0   .     S
V54     V80    10.0   .     S
V54     V79    10.0   .     S
V54     V55    10.0   .     S
V54     V59    10.0   .     S
V54     V58    10.0   .     S
V55     V76    10.0   .     S
V55     V79    10.0   .     S
V55     V56    10.0   .     S
V55     V57    10.0   .     S
V56     V6    10.0   1_545     S
V56     V57    10.0   .     S
V57     V51    10.0   1_545     S
V57     V78    10.0   .     S
V57     V58    10.0   .     S
V58     V52    10.0   1_554     S
V58     V78    10.0   .     S
V58     V59    10.0   .     S
V59     V5    10.0   1_554     S
V60     V25    10.0   1_455     S
V60     V72    10.0   1_565     S
V60     V61    10.0   1_465     S
V61     V6    10.0   1_545     S
V61     V72    10.0   1_655     S
V61     V60    10.0   1_645     S
V62     V70    10.0   .     S
V62     V73    10.0   .     S
V62     V74    10.0   .     S
V62     V69    10.0   .     S
V62     V91    10.0   .     S
V62     V93    10.0   .     S
V63     V24    10.0   1_455     S
V63     V72    10.0   1_565     S
V63     V64    10.0   1_465     S
V63     V65    10.0   1_565     S
V63     V66    10.0   1_565     S
V64     V4    10.0   1_545     S
V64     V67    10.0   1_655     S
V64     V72    10.0   1_655     S
V64     V63    10.0   1_645     S
V64     V65    10.0   1_655     S
V65     V67    10.0   .     S
V65     V63    10.0   1_545     S
V65     V64    10.0   1_455     S
V65     V66    10.0   .     S
V65     V92    10.0   .     S
V65     V94    10.0   .     S
V66     V63    10.0   1_545     S
V66     V72    10.0   .     S
V66     V67    10.0   .     S
V66     V71    10.0   .     S
V66     V70    10.0   .     S
V67     V64    10.0   1_455     S
V67     V72    10.0   .     S
V67     V68    10.0   .     S
V67     V69    10.0   .     S
V68     V69    10.0   .     S
V68     V92    10.0   .     S
V68     V96    10.0   .     S
V68     V90    10.0   1_455     S
V68     V91    10.0   .     S
V69     V74    10.0   .     S
V69     V75    10.0   .     S
V69     V70    10.0   .     S
V70     V73    10.0   .     S
V70     V75    10.0   .     S
V70     V71    10.0   .     S
V71     V94    10.0   .     S
V71     V89    10.0   1_545     S
V71     V95    10.0   .     S
V71     V93    10.0   .     S
V72     V60    10.0   1_545     S
V72     V61    10.0   1_455     S
V72     V63    10.0   1_545     S
V72     V64    10.0   1_455     S
V73     V76    10.0   .     S
V73     V77    10.0   .     S
V73     V74    10.0   .     S
V73     V75    10.0   .     S
V74     V86    10.0   .     S
V74     V81    10.0   .     S
V74     V75    10.0   .     S
V75     V79    10.0   .     S
V75     V83    10.0   .     S
V76     V79    10.0   .     S
V76     V80    10.0   .     S
V76     V77    10.0   .     S
V77     V81    10.0   .     S
V77     V82    10.0   .     S
V78     V45    10.0   1_554     S
V78     V46    10.0   1_545     S
V78     V51    10.0   1_545     S
V78     V52    10.0   1_554     S
V79     V83    10.0   .     S
V79     V80    10.0   .     S
V80     V85    10.0   .     S
V80     V82    10.0   .     S
V81     V86    10.0   .     S
V81     V82    10.0   .     S
V82     V85    10.0   .     S
V83     V86    10.0   .     S
V83     V85    10.0   .     S
V84     V33    10.0   1_554     S
V84     V34    10.0   1_455     S
V84     V36    10.0   1_455     S
V84     V37    10.0   1_554     S
V85     V86    10.0   .     S
V87     V37    10.0   1_655     S
V87     V96    10.0   1_655     S
V88     V95    10.0   1_565     S
V88     V52    10.0   1_565     S
V89     V94    10.0   1_565     S
V89     V95    10.0   1_565     S
V89     V45    10.0   1_565     S
V89     V71    10.0   1_565     S
V90     V92    10.0   1_655     S
V90     V33    10.0   1_655     S
V90     V96    10.0   1_655     S
V90     V68    10.0   1_655     S
V91     V96    10.0   .     S
V91     V92    10.0   .     S
V91     V93    10.0   .     S
V92     V90    10.0   1_455     S
V92     V94    10.0   .     S
V93     V95    10.0   .     S
V93     V94    10.0   .     S
V94     V89    10.0   1_545     S
V95     V88    10.0   1_545     S
V95     V89    10.0   1_545     S
V96     V87    10.0   1_455     S
V96     V90    10.0   1_455     S
