data_dme
_audit_creation_date              2020-02-02
_audit_creation_method            'Pymatgen'
_symmetry_space_group_name_H-M    'P1'
_symmetry_Int_Tables_number       1
loop_
_symmetry_equiv_pos_as_xyz
  x,y,z
_cell_length_a                    37.494
_cell_length_b                    24.0006
_cell_length_c                    29.0609
_cell_angle_alpha                 90.0
_cell_angle_beta                 109.08
_cell_angle_gamma                 90.0
loop_
_atom_site_label
_atom_site_type_symbol
_atom_site_fract_x
_atom_site_fract_y
_atom_site_fract_z
Er1     Er     0.4542   0.5   0.318
Er2     Er     0.5458   0.5   0.682
V3     V     0.6118   0.7917   0.9421
V4     V     0.8882   0.7083   0.0579
V5     V     0.6118   0.2083   0.9421
V6     V     0.8882   0.2917   0.0579
Er7     Er     0.9542   0.0   0.318
Er8     Er     0.0458   0.0   0.682
V9     V     0.3882   0.7917   0.0579
V10     V     0.1118   0.7083   0.9421
V11     V     0.3882   0.2083   0.0579
V12     V     0.1118   0.2917   0.9421
loop_
_geom_bond_atom_site_label_1
_geom_bond_atom_site_label_2
_geom_bond_distance
_geom_bond_site_symmetry_2
_ccdc_geom_bond_type
Er1     Er2    10.0   .     S
Er1     V9    10.0   .     S
Er1     V11    10.0   .     S
Er2     V3    10.0   .     S
Er2     V5    10.0   .     S
V3     V4    10.0   1_556     S
V3     V5    10.0   1_565     S
V3     V9    10.0   1_556     S
V4     V3    10.0   1_554     S
V4     Er7    10.0   1_565     S
V4     V6    10.0   .     S
V4     V10    10.0   1_654     S
V5     V6    10.0   1_556     S
V5     V3    10.0   1_545     S
V5     V11    10.0   1_556     S
V6     V5    10.0   1_554     S
V6     Er7    10.0   .     S
V6     V12    10.0   1_654     S
Er7     V4    10.0   1_545     S
Er7     Er8    10.0   1_655     S
Er8     Er7    10.0   1_455     S
Er8     V10    10.0   1_545     S
Er8     V12    10.0   .     S
V9     V10    10.0   1_554     S
V9     V11    10.0   1_565     S
V9     V3    10.0   1_554     S
V10     V9    10.0   1_556     S
V10     Er8    10.0   1_565     S
V10     V12    10.0   .     S
V10     V4    10.0   1_456     S
V11     V12    10.0   1_554     S
V11     V9    10.0   1_545     S
V11     V5    10.0   1_554     S
V12     V11    10.0   1_556     S
V12     V6    10.0   1_456     S
