data_dnc
_audit_creation_date              2020-02-02
_audit_creation_method            'Pymatgen'
_symmetry_space_group_name_H-M    'P1'
_symmetry_Int_Tables_number       1
loop_
_symmetry_equiv_pos_as_xyz
  x,y,z
_cell_length_a                    25.8575
_cell_length_b                    25.8575
_cell_length_c                    25.8575
_cell_angle_alpha                 90.0
_cell_angle_beta                 90.0
_cell_angle_gamma                 90.0
loop_
_atom_site_label
_atom_site_type_symbol
_atom_site_fract_x
_atom_site_fract_y
_atom_site_fract_z
Ti1     Ti     0.3159   0.3159   0.3159
Ti2     Ti     0.3159   0.3159   0.6841
Ti3     Ti     0.6841   0.3159   0.3159
Ti4     Ti     0.3159   0.6841   0.3159
Ti5     Ti     0.6841   0.6841   0.3159
Ti6     Ti     0.6841   0.3159   0.6841
Ti7     Ti     0.3159   0.6841   0.6841
Ti8     Ti     0.6841   0.6841   0.6841
Er9     Er     0.5   0.5   0.5
Ti10     Ti     0.1841   0.3159   0.1841
Ti11     Ti     0.8159   0.3159   0.8159
Ti12     Ti     0.1841   0.3159   0.8159
Ti13     Ti     0.1841   0.6841   0.1841
Ti14     Ti     0.8159   0.3159   0.1841
Ti15     Ti     0.8159   0.6841   0.1841
Ti16     Ti     0.1841   0.6841   0.8159
Ti17     Ti     0.8159   0.6841   0.8159
Er18     Er     0.0   0.5   0.0
Ti19     Ti     0.1841   0.8159   0.3159
Ti20     Ti     0.8159   0.1841   0.3159
Ti21     Ti     0.1841   0.1841   0.3159
Ti22     Ti     0.1841   0.1841   0.6841
Ti23     Ti     0.8159   0.8159   0.3159
Ti24     Ti     0.8159   0.1841   0.6841
Ti25     Ti     0.1841   0.8159   0.6841
Ti26     Ti     0.8159   0.8159   0.6841
Er27     Er     0.0   0.0   0.5
Ti28     Ti     0.3159   0.1841   0.1841
Ti29     Ti     0.6841   0.1841   0.1841
Ti30     Ti     0.3159   0.8159   0.1841
Ti31     Ti     0.3159   0.1841   0.8159
Ti32     Ti     0.3159   0.8159   0.8159
Ti33     Ti     0.6841   0.1841   0.8159
Ti34     Ti     0.6841   0.8159   0.1841
Ti35     Ti     0.6841   0.8159   0.8159
Er36     Er     0.5   0.0   0.0
V37     V     0.0   0.5   0.5
V38     V     0.5   0.0   0.5
V39     V     0.5   0.5   0.0
V40     V     0.0   0.0   0.0
loop_
_geom_bond_atom_site_label_1
_geom_bond_atom_site_label_2
_geom_bond_distance
_geom_bond_site_symmetry_2
_ccdc_geom_bond_type
Ti1     V39    10.585   .     S
Ti1     V38    10.585   .     S
Ti1     V37    10.585   .     S
Ti1     Er9    8.245   .     S
Ti2     V39    10.585   1_556     S
Ti2     V38    10.585   .     S
Ti2     V37    10.585   .     S
Ti2     Er9    8.245   .     S
Ti3     V39    10.585   .     S
Ti3     V38    10.585   .     S
Ti3     V37    10.585   1_655     S
Ti3     Er9    8.245   .     S
Ti4     V39    10.585   .     S
Ti4     V38    10.585   1_565     S
Ti4     V37    10.585   .     S
Ti4     Er9    8.245   .     S
Ti5     V39    10.585   .     S
Ti5     V38    10.585   1_565     S
Ti5     V37    10.585   1_655     S
Ti5     Er9    8.245   .     S
Ti6     V39    10.585   1_556     S
Ti6     V38    10.585   .     S
Ti6     V37    10.585   1_655     S
Ti6     Er9    8.245   .     S
Ti7     V39    10.585   1_556     S
Ti7     V38    10.585   1_565     S
Ti7     V37    10.585   .     S
Ti7     Er9    8.245   .     S
Ti8     V39    10.585   1_556     S
Ti8     V38    10.585   1_565     S
Ti8     V37    10.585   1_655     S
Ti8     Er9    8.245   .     S
Ti10     V39    10.585   .     S
Ti10     V37    10.585   .     S
Ti10     V40    10.585   .     S
Ti10     Er18    8.245   .     S
Ti11     V39    10.585   1_556     S
Ti11     V37    10.585   1_655     S
Ti11     V40    10.585   1_656     S
Ti11     Er18    8.245   1_656     S
Ti12     V39    10.585   1_556     S
Ti12     V37    10.585   .     S
Ti12     V40    10.585   1_556     S
Ti12     Er18    8.245   1_556     S
Ti13     V39    10.585   .     S
Ti13     V37    10.585   .     S
Ti13     V40    10.585   1_565     S
Ti13     Er18    8.245   .     S
Ti14     V39    10.585   .     S
Ti14     V37    10.585   1_655     S
Ti14     V40    10.585   1_655     S
Ti14     Er18    8.245   1_655     S
Ti15     V39    10.585   .     S
Ti15     V37    10.585   1_655     S
Ti15     V40    10.585   1_665     S
Ti15     Er18    8.245   1_655     S
Ti16     V39    10.585   1_556     S
Ti16     V37    10.585   .     S
Ti16     V40    10.585   1_566     S
Ti16     Er18    8.245   1_556     S
Ti17     V39    10.585   1_556     S
Ti17     V37    10.585   1_655     S
Ti17     V40    10.585   1_666     S
Ti17     Er18    8.245   1_656     S
Er18     Ti11    8.245   1_454     S
Er18     Ti12    8.245   1_554     S
Er18     Ti14    8.245   1_455     S
Er18     Ti15    8.245   1_455     S
Er18     Ti16    8.245   1_554     S
Er18     Ti17    8.245   1_454     S
Ti19     V38    10.585   1_565     S
Ti19     V37    10.585   .     S
Ti19     V40    10.585   1_565     S
Ti19     Er27    8.245   1_565     S
Ti20     V38    10.585   .     S
Ti20     V37    10.585   1_655     S
Ti20     V40    10.585   1_655     S
Ti20     Er27    8.245   1_655     S
Ti21     V38    10.585   .     S
Ti21     V37    10.585   .     S
Ti21     V40    10.585   .     S
Ti21     Er27    8.245   .     S
Ti22     V38    10.585   .     S
Ti22     V37    10.585   .     S
Ti22     V40    10.585   1_556     S
Ti22     Er27    8.245   .     S
Ti23     V38    10.585   1_565     S
Ti23     V37    10.585   1_655     S
Ti23     V40    10.585   1_665     S
Ti23     Er27    8.245   1_665     S
Ti24     V38    10.585   .     S
Ti24     V37    10.585   1_655     S
Ti24     V40    10.585   1_656     S
Ti24     Er27    8.245   1_655     S
Ti25     V38    10.585   1_565     S
Ti25     V37    10.585   .     S
Ti25     V40    10.585   1_566     S
Ti25     Er27    8.245   1_565     S
Ti26     V38    10.585   1_565     S
Ti26     V37    10.585   1_655     S
Ti26     V40    10.585   1_666     S
Ti26     Er27    8.245   1_665     S
Er27     Ti19    8.245   1_545     S
Er27     Ti20    8.245   1_455     S
Er27     Ti23    8.245   1_445     S
Er27     Ti24    8.245   1_455     S
Er27     Ti25    8.245   1_545     S
Er27     Ti26    8.245   1_445     S
Ti28     V39    10.585   .     S
Ti28     V38    10.585   .     S
Ti28     V40    10.585   .     S
Ti28     Er36    8.245   .     S
Ti29     V39    10.585   .     S
Ti29     V38    10.585   .     S
Ti29     V40    10.585   1_655     S
Ti29     Er36    8.245   .     S
Ti30     V39    10.585   .     S
Ti30     V38    10.585   1_565     S
Ti30     V40    10.585   1_565     S
Ti30     Er36    8.245   1_565     S
Ti31     V39    10.585   1_556     S
Ti31     V38    10.585   .     S
Ti31     V40    10.585   1_556     S
Ti31     Er36    8.245   1_556     S
Ti32     V39    10.585   1_556     S
Ti32     V38    10.585   1_565     S
Ti32     V40    10.585   1_566     S
Ti32     Er36    8.245   1_566     S
Ti33     V39    10.585   1_556     S
Ti33     V38    10.585   .     S
Ti33     V40    10.585   1_656     S
Ti33     Er36    8.245   1_556     S
Ti34     V39    10.585   .     S
Ti34     V38    10.585   1_565     S
Ti34     V40    10.585   1_665     S
Ti34     Er36    8.245   1_565     S
Ti35     V39    10.585   1_556     S
Ti35     V38    10.585   1_565     S
Ti35     V40    10.585   1_666     S
Ti35     Er36    8.245   1_566     S
Er36     Ti30    8.245   1_545     S
Er36     Ti31    8.245   1_554     S
Er36     Ti32    8.245   1_544     S
Er36     Ti33    8.245   1_554     S
Er36     Ti34    8.245   1_545     S
Er36     Ti35    8.245   1_544     S
V37     Ti11    10.585   1_455     S
V37     Ti24    10.585   1_455     S
V37     Ti6    10.585   1_455     S
V37     Ti17    10.585   1_455     S
V37     Ti26    10.585   1_455     S
V37     Ti8    10.585   1_455     S
V37     Ti15    10.585   1_455     S
V37     Ti5    10.585   1_455     S
V37     Ti23    10.585   1_455     S
V37     Ti14    10.585   1_455     S
V37     Ti20    10.585   1_455     S
V37     Ti3    10.585   1_455     S
V38     Ti32    10.585   1_545     S
V38     Ti25    10.585   1_545     S
V38     Ti7    10.585   1_545     S
V38     Ti35    10.585   1_545     S
V38     Ti8    10.585   1_545     S
V38     Ti26    10.585   1_545     S
V38     Ti34    10.585   1_545     S
V38     Ti23    10.585   1_545     S
V38     Ti5    10.585   1_545     S
V38     Ti30    10.585   1_545     S
V38     Ti19    10.585   1_545     S
V38     Ti4    10.585   1_545     S
V39     Ti11    10.585   1_554     S
V39     Ti33    10.585   1_554     S
V39     Ti6    10.585   1_554     S
V39     Ti31    10.585   1_554     S
V39     Ti12    10.585   1_554     S
V39     Ti2    10.585   1_554     S
V39     Ti8    10.585   1_554     S
V39     Ti35    10.585   1_554     S
V39     Ti17    10.585   1_554     S
V39     Ti7    10.585   1_554     S
V39     Ti16    10.585   1_554     S
V39     Ti32    10.585   1_554     S
V40     Ti26    10.585   1_444     S
V40     Ti17    10.585   1_444     S
V40     Ti35    10.585   1_444     S
V40     Ti24    10.585   1_454     S
V40     Ti11    10.585   1_454     S
V40     Ti33    10.585   1_454     S
V40     Ti12    10.585   1_554     S
V40     Ti31    10.585   1_554     S
V40     Ti22    10.585   1_554     S
V40     Ti25    10.585   1_544     S
V40     Ti32    10.585   1_544     S
V40     Ti16    10.585   1_544     S
V40     Ti19    10.585   1_545     S
V40     Ti30    10.585   1_545     S
V40     Ti13    10.585   1_545     S
V40     Ti23    10.585   1_445     S
V40     Ti34    10.585   1_445     S
V40     Ti15    10.585   1_445     S
V40     Ti20    10.585   1_455     S
V40     Ti14    10.585   1_455     S
V40     Ti29    10.585   1_455     S
