data_dnd
_audit_creation_date              2020-02-02
_audit_creation_method            'Pymatgen'
_symmetry_space_group_name_H-M    'P1'
_symmetry_Int_Tables_number       1
loop_
_symmetry_equiv_pos_as_xyz
  x,y,z
_cell_length_a                    30.0389
_cell_length_b                    30.0389
_cell_length_c                    30.0389
_cell_angle_alpha                 90.0
_cell_angle_beta                 90.0
_cell_angle_gamma                 90.0
loop_
_atom_site_label
_atom_site_type_symbol
_atom_site_fract_x
_atom_site_fract_y
_atom_site_fract_z
Ti1     Ti     0.5   0.3064   0.3064
Ti2     Ti     0.3064   0.3064   0.5
Ti3     Ti     0.3064   0.5   0.3064
Er4     Er     0.5   0.5   0.5
Ti5     Ti     0.3064   0.5   0.6936
Ti6     Ti     0.3064   0.6936   0.5
Ti7     Ti     0.6936   0.5   0.3064
Ti8     Ti     0.5   0.6936   0.3064
Ti9     Ti     0.6936   0.3064   0.5
Ti10     Ti     0.5   0.3064   0.6936
Ti11     Ti     0.6936   0.5   0.6936
Ti12     Ti     0.6936   0.6936   0.5
Ti13     Ti     0.5   0.6936   0.6936
Ti14     Ti     0.8064   0.3064   0.0
Ti15     Ti     0.1936   0.3064   0.0
Ti16     Ti     0.0   0.3064   0.8064
Ti17     Ti     0.0   0.3064   0.1936
Er18     Er     0.0   0.5   0.0
Ti19     Ti     0.0   0.6936   0.8064
Ti20     Ti     0.0   0.6936   0.1936
Ti21     Ti     0.1936   0.6936   0.0
Ti22     Ti     0.8064   0.6936   0.0
Ti23     Ti     0.8064   0.5   0.8064
Ti24     Ti     0.1936   0.5   0.8064
Ti25     Ti     0.1936   0.5   0.1936
Ti26     Ti     0.8064   0.5   0.1936
Ti27     Ti     0.1936   0.0   0.3064
Ti28     Ti     0.0   0.8064   0.3064
Ti29     Ti     0.8064   0.0   0.3064
Ti30     Ti     0.0   0.1936   0.3064
Er31     Er     0.0   0.0   0.5
Ti32     Ti     0.0   0.8064   0.6936
Ti33     Ti     0.1936   0.0   0.6936
Ti34     Ti     0.0   0.1936   0.6936
Ti35     Ti     0.8064   0.0   0.6936
Ti36     Ti     0.1936   0.8064   0.5
Ti37     Ti     0.1936   0.1936   0.5
Ti38     Ti     0.8064   0.8064   0.5
Ti39     Ti     0.8064   0.1936   0.5
Ti40     Ti     0.3064   0.8064   0.0
Ti41     Ti     0.3064   0.1936   0.0
Ti42     Ti     0.3064   0.0   0.8064
Ti43     Ti     0.3064   0.0   0.1936
Er44     Er     0.5   0.0   0.0
Ti45     Ti     0.6936   0.0   0.8064
Ti46     Ti     0.6936   0.0   0.1936
Ti47     Ti     0.6936   0.8064   0.0
Ti48     Ti     0.6936   0.1936   0.0
Ti49     Ti     0.5   0.1936   0.8064
Ti50     Ti     0.5   0.8064   0.8064
Ti51     Ti     0.5   0.8064   0.1936
Ti52     Ti     0.5   0.1936   0.1936
V53     V     0.0   0.5   0.5
V54     V     0.5   0.0   0.5
V55     V     0.5   0.5   0.0
V56     V     0.0   0.0   0.0
loop_
_geom_bond_atom_site_label_1
_geom_bond_atom_site_label_2
_geom_bond_distance
_geom_bond_site_symmetry_2
_ccdc_geom_bond_type
Ti1     V55    10.887   .     S
Ti1     V54    10.887   .     S
Ti1     Er4    8.226   .     S
Ti2     V54    10.887   .     S
Ti2     V53    10.887   .     S
Ti2     Er4    8.226   .     S
Ti3     V55    10.887   .     S
Ti3     V53    10.887   .     S
Ti3     Er4    8.226   .     S
Er4     Ti9    8.226   .     S
Er4     Ti10    8.226   .     S
Er4     Ti7    8.226   .     S
Er4     Ti8    8.226   .     S
Er4     Ti11    8.226   .     S
Er4     Ti12    8.226   .     S
Er4     Ti13    8.226   .     S
Er4     Ti5    8.226   .     S
Er4     Ti6    8.226   .     S
Ti5     V55    10.887   1_556     S
Ti5     V53    10.887   .     S
Ti6     V54    10.887   1_565     S
Ti6     V53    10.887   .     S
Ti7     V55    10.887   .     S
Ti7     V53    10.887   1_655     S
Ti8     V55    10.887   .     S
Ti8     V54    10.887   1_565     S
Ti9     V54    10.887   .     S
Ti9     V53    10.887   1_655     S
Ti10     V55    10.887   1_556     S
Ti10     V54    10.887   .     S
Ti11     V55    10.887   1_556     S
Ti11     V53    10.887   1_655     S
Ti12     V54    10.887   1_565     S
Ti12     V53    10.887   1_655     S
Ti13     V55    10.887   1_556     S
Ti13     V54    10.887   1_565     S
Ti14     V55    10.887   .     S
Ti14     V56    10.887   1_655     S
Ti14     Er18    8.226   1_655     S
Ti15     V55    10.887   .     S
Ti15     V56    10.887   .     S
Ti15     Er18    8.226   .     S
Ti16     V53    10.887   .     S
Ti16     V56    10.887   1_556     S
Ti16     Er18    8.226   1_556     S
Ti17     V53    10.887   .     S
Ti17     V56    10.887   .     S
Ti17     Er18    8.226   .     S
Er18     Ti14    8.226   1_455     S
Er18     Ti16    8.226   1_554     S
Er18     Ti19    8.226   1_554     S
Er18     Ti20    8.226   .     S
Er18     Ti21    8.226   .     S
Er18     Ti22    8.226   1_455     S
Er18     Ti23    8.226   1_454     S
Er18     Ti24    8.226   1_554     S
Er18     Ti25    8.226   .     S
Er18     Ti26    8.226   1_455     S
Ti19     V53    10.887   .     S
Ti19     V56    10.887   1_566     S
Ti19     Er18    8.226   1_556     S
Ti20     V53    10.887   .     S
Ti20     V56    10.887   1_565     S
Ti21     V55    10.887   .     S
Ti21     V56    10.887   1_565     S
Ti22     V55    10.887   .     S
Ti22     V56    10.887   1_665     S
Ti22     Er18    8.226   1_655     S
Ti23     V55    10.887   1_556     S
Ti23     V53    10.887   1_655     S
Ti23     Er18    8.226   1_656     S
Ti24     V55    10.887   1_556     S
Ti24     V53    10.887   .     S
Ti24     Er18    8.226   1_556     S
Ti25     V55    10.887   .     S
Ti25     V53    10.887   .     S
Ti26     V55    10.887   .     S
Ti26     V53    10.887   1_655     S
Ti26     Er18    8.226   1_655     S
Ti27     V54    10.887   .     S
Ti27     V56    10.887   .     S
Ti27     Er31    8.226   .     S
Ti28     V53    10.887   .     S
Ti28     V56    10.887   1_565     S
Ti28     Er31    8.226   1_565     S
Ti29     V54    10.887   .     S
Ti29     V56    10.887   1_655     S
Ti29     Er31    8.226   1_655     S
Ti30     V53    10.887   .     S
Ti30     V56    10.887   .     S
Ti30     Er31    8.226   .     S
Er31     Ti28    8.226   1_545     S
Er31     Ti29    8.226   1_455     S
Er31     Ti32    8.226   1_545     S
Er31     Ti33    8.226   .     S
Er31     Ti34    8.226   .     S
Er31     Ti35    8.226   1_455     S
Er31     Ti36    8.226   1_545     S
Er31     Ti37    8.226   .     S
Er31     Ti38    8.226   1_445     S
Er31     Ti39    8.226   1_455     S
Ti32     V53    10.887   .     S
Ti32     V56    10.887   1_566     S
Ti32     Er31    8.226   1_565     S
Ti33     V54    10.887   .     S
Ti33     V56    10.887   1_556     S
Ti34     V53    10.887   .     S
Ti34     V56    10.887   1_556     S
Ti35     V54    10.887   .     S
Ti35     V56    10.887   1_656     S
Ti35     Er31    8.226   1_655     S
Ti36     V54    10.887   1_565     S
Ti36     V53    10.887   .     S
Ti36     Er31    8.226   1_565     S
Ti37     V54    10.887   .     S
Ti37     V53    10.887   .     S
Ti38     V54    10.887   1_565     S
Ti38     V53    10.887   1_655     S
Ti38     Er31    8.226   1_665     S
Ti39     V54    10.887   .     S
Ti39     V53    10.887   1_655     S
Ti39     Er31    8.226   1_655     S
Ti40     V55    10.887   .     S
Ti40     V56    10.887   1_565     S
Ti40     Er44    8.226   1_565     S
Ti41     V55    10.887   .     S
Ti41     V56    10.887   .     S
Ti41     Er44    8.226   .     S
Ti42     V54    10.887   .     S
Ti42     V56    10.887   1_556     S
Ti42     Er44    8.226   1_556     S
Ti43     V54    10.887   .     S
Ti43     V56    10.887   .     S
Ti43     Er44    8.226   .     S
Er44     Ti40    8.226   1_545     S
Er44     Ti42    8.226   1_554     S
Er44     Ti45    8.226   1_554     S
Er44     Ti46    8.226   .     S
Er44     Ti47    8.226   1_545     S
Er44     Ti48    8.226   .     S
Er44     Ti49    8.226   1_554     S
Er44     Ti50    8.226   1_544     S
Er44     Ti51    8.226   1_545     S
Er44     Ti52    8.226   .     S
Ti45     V54    10.887   .     S
Ti45     V56    10.887   1_656     S
Ti45     Er44    8.226   1_556     S
Ti46     V54    10.887   .     S
Ti46     V56    10.887   1_655     S
Ti47     V55    10.887   .     S
Ti47     V56    10.887   1_665     S
Ti47     Er44    8.226   1_565     S
Ti48     V55    10.887   .     S
Ti48     V56    10.887   1_655     S
Ti49     V55    10.887   1_556     S
Ti49     V54    10.887   .     S
Ti49     Er44    8.226   1_556     S
Ti50     V55    10.887   1_556     S
Ti50     V54    10.887   1_565     S
Ti50     Er44    8.226   1_566     S
Ti51     V55    10.887   .     S
Ti51     V54    10.887   1_565     S
Ti51     Er44    8.226   1_565     S
Ti52     V55    10.887   .     S
Ti52     V54    10.887   .     S
V53     Ti9    10.887   1_455     S
V53     Ti39    10.887   1_455     S
V53     Ti26    10.887   1_455     S
V53     Ti7    10.887   1_455     S
V53     Ti23    10.887   1_455     S
V53     Ti11    10.887   1_455     S
V53     Ti38    10.887   1_455     S
V53     Ti12    10.887   1_455     S
V54     Ti51    10.887   1_545     S
V54     Ti8    10.887   1_545     S
V54     Ti50    10.887   1_545     S
V54     Ti13    10.887   1_545     S
V54     Ti12    10.887   1_545     S
V54     Ti38    10.887   1_545     S
V54     Ti36    10.887   1_545     S
V54     Ti6    10.887   1_545     S
V55     Ti10    10.887   1_554     S
V55     Ti49    10.887   1_554     S
V55     Ti13    10.887   1_554     S
V55     Ti50    10.887   1_554     S
V55     Ti11    10.887   1_554     S
V55     Ti23    10.887   1_554     S
V55     Ti5    10.887   1_554     S
V55     Ti24    10.887   1_554     S
V56     Ti47    10.887   1_445     S
V56     Ti22    10.887   1_445     S
V56     Ti14    10.887   1_455     S
V56     Ti48    10.887   1_455     S
V56     Ti21    10.887   1_545     S
V56     Ti40    10.887   1_545     S
V56     Ti28    10.887   1_545     S
V56     Ti20    10.887   1_545     S
V56     Ti29    10.887   1_455     S
V56     Ti46    10.887   1_455     S
V56     Ti35    10.887   1_454     S
V56     Ti45    10.887   1_454     S
V56     Ti34    10.887   1_554     S
V56     Ti16    10.887   1_554     S
V56     Ti32    10.887   1_544     S
V56     Ti19    10.887   1_544     S
V56     Ti33    10.887   1_554     S
V56     Ti42    10.887   1_554     S
