data_dnia
_audit_creation_date              2020-02-02
_audit_creation_method            'Pymatgen'
_symmetry_space_group_name_H-M    'P1'
_symmetry_Int_Tables_number       1
loop_
_symmetry_equiv_pos_as_xyz
  x,y,z
_cell_length_a                    85.8346
_cell_length_b                    85.8346
_cell_length_c                    85.8346
_cell_angle_alpha                 90.0
_cell_angle_beta                 90.0
_cell_angle_gamma                 90.0
loop_
_atom_site_label
_atom_site_type_symbol
_atom_site_fract_x
_atom_site_fract_y
_atom_site_fract_z
Ti1     Ti     0.808   0.5536   0.9558
V2     V     0.75   0.6202   0.8798
Ti3     Ti     0.692   0.5442   0.9464
Ti4     Ti     0.9558   0.808   0.5536
V5     V     0.8798   0.75   0.6202
Ti6     Ti     0.9464   0.692   0.5442
Ti7     Ti     0.5536   0.9558   0.808
V8     V     0.6202   0.8798   0.75
Ti9     Ti     0.5442   0.9464   0.692
Er10     Er     0.7975   0.75   0.7025
Er11     Er     0.7025   0.7975   0.75
Er12     Er     0.75   0.7025   0.7975
Ce13     Ce     0.9238   0.4511   0.0315
Ce14     Ce     0.9238   0.5489   0.9685
Ce15     Ce     0.0315   0.5489   0.9238
Ce16     Ce     0.9685   0.4511   0.9238
Ce17     Ce     0.0315   0.4511   0.0762
Ce18     Ce     0.9685   0.5489   0.0762
Ce19     Ce     0.0762   0.5489   0.0315
Ce20     Ce     0.0762   0.4511   0.9685
Ce21     Ce     0.5489   0.9238   0.0315
Ce22     Ce     0.4511   0.9238   0.9685
Ce23     Ce     0.4511   0.0315   0.9238
Ce24     Ce     0.5489   0.9685   0.9238
Ce25     Ce     0.5489   0.0315   0.0762
Ce26     Ce     0.4511   0.9685   0.0762
Ce27     Ce     0.4511   0.0762   0.0315
Ce28     Ce     0.5489   0.0762   0.9685
Ce29     Ce     0.9238   0.0315   0.5489
Ce30     Ce     0.9238   0.9685   0.4511
Ce31     Ce     0.0315   0.9238   0.4511
Ce32     Ce     0.9685   0.9238   0.5489
Ce33     Ce     0.0315   0.0762   0.5489
Ce34     Ce     0.9685   0.0762   0.4511
Ce35     Ce     0.0762   0.0315   0.4511
Ce36     Ce     0.0762   0.9685   0.5489
Ti37     Ti     0.4558   0.692   0.9464
Ti38     Ti     0.4464   0.808   0.9558
V39     V     0.3798   0.75   0.8798
Ti40     Ti     0.192   0.9558   0.5536
V41     V     0.25   0.8798   0.6202
Ti42     Ti     0.308   0.9464   0.5442
Ti43     Ti     0.0442   0.5536   0.808
V44     V     0.1202   0.6202   0.75
Ti45     Ti     0.0536   0.5442   0.692
Er46     Er     0.2025   0.7025   0.75
Er47     Er     0.2975   0.75   0.7975
Er48     Er     0.25   0.7975   0.7025
Ti49     Ti     0.9464   0.308   0.4558
Ti50     Ti     0.9558   0.192   0.4464
V51     V     0.8798   0.25   0.3798
Ti52     Ti     0.692   0.4558   0.0536
V53     V     0.75   0.3798   0.1202
Ti54     Ti     0.808   0.4464   0.0442
Ti55     Ti     0.5536   0.0442   0.192
V56     V     0.6202   0.1202   0.25
Ti57     Ti     0.5442   0.0536   0.308
Er58     Er     0.75   0.2975   0.2025
Er59     Er     0.7025   0.2025   0.25
Er60     Er     0.7975   0.25   0.2975
Ti61     Ti     0.9464   0.4558   0.692
Ti62     Ti     0.9558   0.4464   0.808
V63     V     0.8798   0.3798   0.75
Ti64     Ti     0.5536   0.192   0.9558
V65     V     0.6202   0.25   0.8798
Ti66     Ti     0.5442   0.308   0.9464
Ti67     Ti     0.808   0.0442   0.5536
V68     V     0.75   0.1202   0.6202
Ti69     Ti     0.692   0.0536   0.5442
Er70     Er     0.75   0.2025   0.7025
Er71     Er     0.7975   0.2975   0.75
Er72     Er     0.7025   0.25   0.7975
Ti73     Ti     0.308   0.4558   0.9464
Ti74     Ti     0.192   0.4464   0.9558
V75     V     0.25   0.3798   0.8798
Ti76     Ti     0.4558   0.0536   0.692
V77     V     0.3798   0.1202   0.75
Ti78     Ti     0.4464   0.0442   0.808
Ti79     Ti     0.0442   0.192   0.5536
V80     V     0.1202   0.25   0.6202
Ti81     Ti     0.0536   0.308   0.5442
Er82     Er     0.2975   0.2025   0.75
Er83     Er     0.2025   0.25   0.7025
Er84     Er     0.25   0.2975   0.7975
Ti85     Ti     0.4558   0.9464   0.308
Ti86     Ti     0.4464   0.9558   0.192
V87     V     0.3798   0.8798   0.25
Ti88     Ti     0.0536   0.692   0.4558
V89     V     0.1202   0.75   0.3798
Ti90     Ti     0.0442   0.808   0.4464
Ti91     Ti     0.192   0.5536   0.0442
V92     V     0.25   0.6202   0.1202
Ti93     Ti     0.308   0.5442   0.0536
Er94     Er     0.2025   0.75   0.2975
Er95     Er     0.25   0.7025   0.2025
Er96     Er     0.2975   0.7975   0.25
Ti97     Ti     0.692   0.9464   0.4558
Ti98     Ti     0.808   0.9558   0.4464
V99     V     0.75   0.8798   0.3798
Ti100     Ti     0.9558   0.5536   0.192
V101     V     0.8798   0.6202   0.25
Ti102     Ti     0.9464   0.5442   0.308
Ti103     Ti     0.5536   0.808   0.0442
V104     V     0.6202   0.75   0.1202
Ti105     Ti     0.5442   0.692   0.0536
Er106     Er     0.7025   0.75   0.2025
Er107     Er     0.75   0.7975   0.2975
Er108     Er     0.7975   0.7025   0.25
Ce109     Ce     0.5315   0.0489   0.4238
Ce110     Ce     0.4685   0.9511   0.4238
Ce111     Ce     0.4238   0.0489   0.4685
Ce112     Ce     0.4238   0.9511   0.5315
Ce113     Ce     0.4685   0.0489   0.5762
Ce114     Ce     0.5315   0.9511   0.5762
Ce115     Ce     0.5762   0.0489   0.5315
Ce116     Ce     0.5762   0.9511   0.4685
Ce117     Ce     0.4238   0.5315   0.0489
Ce118     Ce     0.4238   0.4685   0.9511
Ce119     Ce     0.4685   0.4238   0.0489
Ce120     Ce     0.5315   0.4238   0.9511
Ce121     Ce     0.5762   0.4685   0.0489
Ce122     Ce     0.5762   0.5315   0.9511
Ce123     Ce     0.5315   0.5762   0.0489
Ce124     Ce     0.4685   0.5762   0.9511
Ce125     Ce     0.0489   0.4238   0.5315
Ce126     Ce     0.9511   0.4238   0.4685
Ce127     Ce     0.0489   0.4685   0.4238
Ce128     Ce     0.9511   0.5315   0.4238
Ce129     Ce     0.0489   0.5762   0.4685
Ce130     Ce     0.9511   0.5762   0.5315
Ce131     Ce     0.0489   0.5315   0.5762
Ce132     Ce     0.9511   0.4685   0.5762
Ti133     Ti     0.4558   0.308   0.0536
V134     V     0.3798   0.25   0.1202
Ti135     Ti     0.4464   0.192   0.0442
Ti136     Ti     0.308   0.0536   0.4558
V137     V     0.25   0.1202   0.3798
Ti138     Ti     0.192   0.0442   0.4464
Ti139     Ti     0.0536   0.4558   0.308
V140     V     0.1202   0.3798   0.25
Ti141     Ti     0.0442   0.4464   0.192
Er142     Er     0.25   0.2025   0.2975
Er143     Er     0.2975   0.25   0.2025
Er144     Er     0.2025   0.2975   0.25
loop_
_geom_bond_atom_site_label_1
_geom_bond_atom_site_label_2
_geom_bond_distance
_geom_bond_site_symmetry_2
_ccdc_geom_bond_type
Ti1     V2    9.992   .     S
Ti1     Ti3    10.015   .     S
Ti1     Ce14    10.014   .     S
V2     Ti3    9.992   .     S
V2     Er12    9.993   .     S
Ti3     Ce122    10.014   .     S
Ti4     V5    9.992   .     S
Ti4     Ti6    10.015   .     S
Ti4     Ce32    10.014   .     S
V5     Ti6    9.992   .     S
V5     Er10    9.993   .     S
Ti6     Ce130    10.014   .     S
Ti7     V8    9.992   .     S
Ti7     Ti9    10.015   .     S
Ti7     Ce24    10.014   .     S
V8     Ti9    9.992   .     S
V8     Er11    9.993   .     S
Ti9     Ce114    10.014   .     S
Er10     Er12    9.991   .     S
Er10     Er11    9.991   .     S
Er11     Er12    9.991   .     S
Ce13     Ce14    9.984   1_554     S
Ce13     Ce18    9.995   .     S
Ce13     Ce17    10.005   1_655     S
Ce13     Ce16    10.005   1_554     S
Ce13     Ti54    10.014   .     S
Ce14     Ce13    9.984   1_556     S
Ce14     Ce18    10.005   1_556     S
Ce14     Ce15    10.005   1_655     S
Ce14     Ce16    9.995   .     S
Ce15     Ce14    10.005   1_455     S
Ce15     Ce19    10.005   1_556     S
Ce15     Ce20    9.995   .     S
Ce15     Ce16    9.984   1_455     S
Ce15     Ti43    10.014   .     S
Ce16     Ce13    10.005   1_556     S
Ce16     Ce20    10.005   1_655     S
Ce16     Ce15    9.984   1_655     S
Ce16     Ti62    10.014   .     S
Ce17     Ce13    10.005   1_455     S
Ce17     Ce18    9.984   1_455     S
Ce17     Ce20    10.005   1_554     S
Ce17     Ce19    9.995   .     S
Ce17     Ti141    10.014   .     S
Ce18     Ce14    10.005   1_554     S
Ce18     Ce17    9.984   1_655     S
Ce18     Ce19    10.005   1_655     S
Ce18     Ti100    10.014   .     S
Ce19     Ce15    10.005   1_554     S
Ce19     Ce20    9.984   1_554     S
Ce19     Ce18    10.005   1_455     S
Ce19     Ti91    10.014   .     S
Ce20     Ce16    10.005   1_455     S
Ce20     Ce19    9.984   1_556     S
Ce20     Ce17    10.005   1_556     S
Ce20     Ti74    10.014   .     S
Ce21     Ce22    9.984   1_554     S
Ce21     Ce26    9.995   .     S
Ce21     Ce25    10.005   1_565     S
Ce21     Ce24    10.005   1_554     S
Ce21     Ti103    10.014   .     S
Ce22     Ce21    9.984   1_556     S
Ce22     Ce26    10.005   1_556     S
Ce22     Ce23    10.005   1_565     S
Ce22     Ce24    9.995   .     S
Ce22     Ti38    10.014   .     S
Ce23     Ce22    10.005   1_545     S
Ce23     Ce27    10.005   1_556     S
Ce23     Ce28    9.995   .     S
Ce23     Ce24    9.984   1_545     S
Ce23     Ti78    10.014   .     S
Ce24     Ce21    10.005   1_556     S
Ce24     Ce28    10.005   1_565     S
Ce24     Ce23    9.984   1_565     S
Ce25     Ce21    10.005   1_545     S
Ce25     Ce26    9.984   1_545     S
Ce25     Ce28    10.005   1_554     S
Ce25     Ce27    9.995   .     S
Ce25     Ti55    10.014   .     S
Ce26     Ce22    10.005   1_554     S
Ce26     Ce25    9.984   1_565     S
Ce26     Ce27    10.005   1_565     S
Ce26     Ti86    10.014   .     S
Ce27     Ce23    10.005   1_554     S
Ce27     Ce28    9.984   1_554     S
Ce27     Ce26    10.005   1_545     S
Ce27     Ti135    10.014   .     S
Ce28     Ce24    10.005   1_545     S
Ce28     Ce27    9.984   1_556     S
Ce28     Ce25    10.005   1_556     S
Ce28     Ti64    10.014   .     S
Ce29     Ce30    9.984   1_545     S
Ce29     Ce34    9.995   .     S
Ce29     Ce33    10.005   1_655     S
Ce29     Ce32    10.005   1_545     S
Ce29     Ti67    10.014   .     S
Ce30     Ce29    9.984   1_565     S
Ce30     Ce34    10.005   1_565     S
Ce30     Ce31    10.005   1_655     S
Ce30     Ce32    9.995   .     S
Ce30     Ti98    10.014   .     S
Ce31     Ce30    10.005   1_455     S
Ce31     Ce35    10.005   1_565     S
Ce31     Ce36    9.995   .     S
Ce31     Ce32    9.984   1_455     S
Ce31     Ti90    10.014   .     S
Ce32     Ce29    10.005   1_565     S
Ce32     Ce36    10.005   1_655     S
Ce32     Ce31    9.984   1_655     S
Ce33     Ce29    10.005   1_455     S
Ce33     Ce34    9.984   1_455     S
Ce33     Ce36    10.005   1_545     S
Ce33     Ce35    9.995   .     S
Ce33     Ti79    10.014   .     S
Ce34     Ce30    10.005   1_545     S
Ce34     Ce33    9.984   1_655     S
Ce34     Ce35    10.005   1_655     S
Ce34     Ti50    10.014   .     S
Ce35     Ce31    10.005   1_545     S
Ce35     Ce36    9.984   1_545     S
Ce35     Ce34    10.005   1_455     S
Ce35     Ti138    10.014   .     S
Ce36     Ce32    10.005   1_455     S
Ce36     Ce35    9.984   1_565     S
Ce36     Ce33    10.005   1_565     S
Ce36     Ti40    10.014   .     S
Ti37     V39    9.992   .     S
Ti37     Ti38    10.015   .     S
Ti37     Ce124    10.014   .     S
Ti38     V39    9.992   .     S
V39     Er47    9.993   .     S
Ti40     V41    9.992   .     S
Ti40     Ti42    10.015   .     S
V41     Ti42    9.992   .     S
V41     Er48    9.993   .     S
Ti42     Ce112    10.014   .     S
Ti43     V44    9.992   .     S
Ti43     Ti45    10.015   .     S
V44     Ti45    9.992   .     S
V44     Er46    9.993   .     S
Ti45     Ce131    10.014   .     S
Er46     Er48    9.991   .     S
Er46     Er47    9.991   .     S
Er47     Er48    9.991   .     S
Ti49     V51    9.992   .     S
Ti49     Ti50    10.015   .     S
Ti49     Ce126    10.014   .     S
Ti50     V51    9.992   .     S
V51     Er60    9.993   .     S
Ti52     V53    9.992   .     S
Ti52     Ti54    10.015   .     S
Ti52     Ce121    10.014   .     S
V53     Ti54    9.992   .     S
V53     Er58    9.993   .     S
Ti55     V56    9.992   .     S
Ti55     Ti57    10.015   .     S
V56     Ti57    9.992   .     S
V56     Er59    9.993   .     S
Ti57     Ce109    10.014   .     S
Er58     Er59    9.991   .     S
Er58     Er60    9.991   .     S
Er59     Er60    9.991   .     S
Ti61     V63    9.992   .     S
Ti61     Ti62    10.015   .     S
Ti61     Ce132    10.014   .     S
Ti62     V63    9.992   .     S
V63     Er71    9.993   .     S
Ti64     V65    9.992   .     S
Ti64     Ti66    10.015   .     S
V65     Ti66    9.992   .     S
V65     Er72    9.993   .     S
Ti66     Ce120    10.014   .     S
Ti67     V68    9.992   .     S
Ti67     Ti69    10.015   .     S
V68     Ti69    9.992   .     S
V68     Er70    9.993   .     S
Ti69     Ce115    10.014   .     S
Er70     Er72    9.991   .     S
Er70     Er71    9.991   .     S
Er71     Er72    9.991   .     S
Ti73     V75    9.992   .     S
Ti73     Ti74    10.015   .     S
Ti73     Ce118    10.014   .     S
Ti74     V75    9.992   .     S
V75     Er84    9.993   .     S
Ti76     V77    9.992   .     S
Ti76     Ti78    10.015   .     S
Ti76     Ce113    10.014   .     S
V77     Ti78    9.992   .     S
V77     Er82    9.993   .     S
Ti79     V80    9.992   .     S
Ti79     Ti81    10.015   .     S
V80     Ti81    9.992   .     S
V80     Er83    9.993   .     S
Ti81     Ce125    10.014   .     S
Er82     Er83    9.991   .     S
Er82     Er84    9.991   .     S
Er83     Er84    9.991   .     S
Ti85     V87    9.992   .     S
Ti85     Ti86    10.015   .     S
Ti85     Ce110    10.014   .     S
Ti86     V87    9.992   .     S
V87     Er96    9.993   .     S
Ti88     V89    9.992   .     S
Ti88     Ti90    10.015   .     S
Ti88     Ce129    10.014   .     S
V89     Ti90    9.992   .     S
V89     Er94    9.993   .     S
Ti91     V92    9.992   .     S
Ti91     Ti93    10.015   .     S
V92     Ti93    9.992   .     S
V92     Er95    9.993   .     S
Ti93     Ce117    10.014   .     S
Er94     Er95    9.991   .     S
Er94     Er96    9.991   .     S
Er95     Er96    9.991   .     S
Ti97     V99    9.992   .     S
Ti97     Ti98    10.015   .     S
Ti97     Ce116    10.014   .     S
Ti98     V99    9.992   .     S
V99     Er107    9.993   .     S
Ti100     V101    9.992   .     S
Ti100     Ti102    10.015   .     S
V101     Ti102    9.992   .     S
V101     Er108    9.993   .     S
Ti102     Ce128    10.014   .     S
Ti103     V104    9.992   .     S
Ti103     Ti105    10.015   .     S
V104     Ti105    9.992   .     S
V104     Er106    9.993   .     S
Ti105     Ce123    10.014   .     S
Er106     Er108    9.991   .     S
Er106     Er107    9.991   .     S
Er107     Er108    9.991   .     S
Ce109     Ce110    9.984   1_545     S
Ce109     Ce111    10.005   .     S
Ce109     Ce115    10.005   .     S
Ce109     Ce116    9.995   1_545     S
Ce110     Ce109    9.984   1_565     S
Ce110     Ce111    9.995   1_565     S
Ce110     Ce112    10.005   .     S
Ce110     Ce116    10.005   .     S
Ce111     Ce110    9.995   1_545     S
Ce111     Ce112    9.984   1_545     S
Ce111     Ce113    10.005   .     S
Ce111     Ti136    10.014   .     S
Ce112     Ce111    9.984   1_565     S
Ce112     Ce113    9.995   1_565     S
Ce112     Ce114    10.005   .     S
Ce113     Ce115    10.005   .     S
Ce113     Ce114    9.984   1_545     S
Ce113     Ce112    9.995   1_545     S
Ce114     Ce115    9.995   1_565     S
Ce114     Ce116    10.005   .     S
Ce114     Ce113    9.984   1_565     S
Ce115     Ce114    9.995   1_545     S
Ce115     Ce116    9.984   1_545     S
Ce116     Ce115    9.984   1_565     S
Ce116     Ce109    9.995   1_565     S
Ce117     Ce118    9.984   1_554     S
Ce117     Ce119    10.005   .     S
Ce117     Ce123    10.005   .     S
Ce117     Ce124    9.995   1_554     S
Ce118     Ce117    9.984   1_556     S
Ce118     Ce119    9.995   1_556     S
Ce118     Ce120    10.005   .     S
Ce118     Ce124    10.005   .     S
Ce119     Ce118    9.995   1_554     S
Ce119     Ce120    9.984   1_554     S
Ce119     Ce121    10.005   .     S
Ce119     Ti133    10.014   .     S
Ce120     Ce119    9.984   1_556     S
Ce120     Ce121    9.995   1_556     S
Ce120     Ce122    10.005   .     S
Ce121     Ce123    10.005   .     S
Ce121     Ce122    9.984   1_554     S
Ce121     Ce120    9.995   1_554     S
Ce122     Ce123    9.995   1_556     S
Ce122     Ce124    10.005   .     S
Ce122     Ce121    9.984   1_556     S
Ce123     Ce122    9.995   1_554     S
Ce123     Ce124    9.984   1_554     S
Ce124     Ce123    9.984   1_556     S
Ce124     Ce117    9.995   1_556     S
Ce125     Ce126    9.984   1_455     S
Ce125     Ce127    10.005   .     S
Ce125     Ce131    10.005   .     S
Ce125     Ce132    9.995   1_455     S
Ce126     Ce125    9.984   1_655     S
Ce126     Ce127    9.995   1_655     S
Ce126     Ce128    10.005   .     S
Ce126     Ce132    10.005   .     S
Ce127     Ce126    9.995   1_455     S
Ce127     Ce128    9.984   1_455     S
Ce127     Ce129    10.005   .     S
Ce127     Ti139    10.014   .     S
Ce128     Ce127    9.984   1_655     S
Ce128     Ce129    9.995   1_655     S
Ce128     Ce130    10.005   .     S
Ce129     Ce131    10.005   .     S
Ce129     Ce130    9.984   1_455     S
Ce129     Ce128    9.995   1_455     S
Ce130     Ce131    9.995   1_655     S
Ce130     Ce132    10.005   .     S
Ce130     Ce129    9.984   1_655     S
Ce131     Ce130    9.995   1_455     S
Ce131     Ce132    9.984   1_455     S
Ce132     Ce131    9.984   1_655     S
Ce132     Ce125    9.995   1_655     S
Ti133     V134    9.992   .     S
Ti133     Ti135    10.015   .     S
V134     Ti135    9.992   .     S
V134     Er143    9.993   .     S
Ti136     V137    9.992   .     S
Ti136     Ti138    10.015   .     S
V137     Ti138    9.992   .     S
V137     Er142    9.993   .     S
Ti139     V140    9.992   .     S
Ti139     Ti141    10.015   .     S
V140     Ti141    9.992   .     S
V140     Er144    9.993   .     S
Er142     Er143    9.991   .     S
Er142     Er144    9.991   .     S
Er143     Er144    9.991   .     S
