data_dnid
_audit_creation_date              2020-02-02
_audit_creation_method            'Pymatgen'
_symmetry_space_group_name_H-M    'P1'
_symmetry_Int_Tables_number       1
loop_
_symmetry_equiv_pos_as_xyz
  x,y,z
_cell_length_a                    22.2096
_cell_length_b                    22.2096
_cell_length_c                    22.2096
_cell_angle_alpha                 90.0
_cell_angle_beta                 90.0
_cell_angle_gamma                 90.0
loop_
_atom_site_label
_atom_site_type_symbol
_atom_site_fract_x
_atom_site_fract_y
_atom_site_fract_z
Er1     Er     0.3456   0.25   0.8456
Er2     Er     0.6544   0.25   0.1544
Er3     Er     0.25   0.6544   0.8456
Er4     Er     0.25   0.3456   0.1544
Er5     Er     0.8456   0.6544   0.75
Er6     Er     0.1544   0.3456   0.75
Er7     Er     0.3456   0.8456   0.75
Er8     Er     0.6544   0.1544   0.75
Er9     Er     0.8456   0.3456   0.25
Er10     Er     0.1544   0.6544   0.25
Er11     Er     0.6544   0.8456   0.25
Er12     Er     0.3456   0.1544   0.25
Er13     Er     0.25   0.8456   0.3456
Er14     Er     0.25   0.1544   0.6544
Er15     Er     0.8456   0.75   0.3456
Er16     Er     0.1544   0.75   0.6544
Er17     Er     0.75   0.8456   0.6544
Er18     Er     0.75   0.1544   0.3456
Er19     Er     0.8456   0.25   0.6544
Er20     Er     0.1544   0.25   0.3456
Er21     Er     0.6544   0.75   0.8456
Er22     Er     0.3456   0.75   0.1544
Er23     Er     0.75   0.3456   0.8456
Er24     Er     0.75   0.6544   0.1544
V25     V     0.0   0.0   0.0
V26     V     0.5   0.5   0.5
loop_
_geom_bond_atom_site_label_1
_geom_bond_atom_site_label_2
_geom_bond_distance
_geom_bond_site_symmetry_2
_ccdc_geom_bond_type
Er1     V26    10.074   .     S
Er1     V25    10.074   1_556     S
Er1     Er2    9.702   1_556     S
Er2     V26    10.074   .     S
Er2     V25    10.074   1_655     S
Er2     Er1    9.702   1_554     S
Er3     V26    10.074   .     S
Er3     V25    10.074   1_566     S
Er3     Er4    9.702   1_556     S
Er4     V26    10.074   .     S
Er4     V25    10.074   .     S
Er4     Er3    9.702   1_554     S
Er5     V26    10.074   .     S
Er5     V25    10.074   1_666     S
Er5     Er6    9.702   1_655     S
Er6     V26    10.074   .     S
Er6     V25    10.074   1_556     S
Er6     Er5    9.702   1_455     S
Er7     V26    10.074   .     S
Er7     V25    10.074   1_566     S
Er7     Er8    9.702   1_565     S
Er8     V26    10.074   .     S
Er8     V25    10.074   1_656     S
Er8     Er7    9.702   1_545     S
Er9     V26    10.074   .     S
Er9     V25    10.074   1_655     S
Er9     Er10    9.702   1_655     S
Er10     V26    10.074   .     S
Er10     V25    10.074   1_565     S
Er10     Er9    9.702   1_455     S
Er11     V26    10.074   .     S
Er11     V25    10.074   1_665     S
Er11     Er12    9.702   1_565     S
Er12     V26    10.074   .     S
Er12     V25    10.074   .     S
Er12     Er11    9.702   1_545     S
Er13     V26    10.074   .     S
Er13     V25    10.074   1_565     S
Er13     Er14    9.702   1_565     S
Er14     V26    10.074   .     S
Er14     V25    10.074   1_556     S
Er14     Er13    9.702   1_545     S
Er15     V26    10.074   .     S
Er15     V25    10.074   1_665     S
Er15     Er16    9.702   1_655     S
Er16     V26    10.074   .     S
Er16     V25    10.074   1_566     S
Er16     Er15    9.702   1_455     S
Er17     V26    10.074   .     S
Er17     V25    10.074   1_666     S
Er17     Er18    9.702   1_565     S
Er18     V26    10.074   .     S
Er18     V25    10.074   1_655     S
Er18     Er17    9.702   1_545     S
Er19     V26    10.074   .     S
Er19     V25    10.074   1_656     S
Er19     Er20    9.702   1_655     S
Er20     V26    10.074   .     S
Er20     V25    10.074   .     S
Er20     Er19    9.702   1_455     S
Er21     V26    10.074   .     S
Er21     V25    10.074   1_666     S
Er21     Er22    9.702   1_556     S
Er22     V26    10.074   .     S
Er22     V25    10.074   1_565     S
Er22     Er21    9.702   1_554     S
Er23     V26    10.074   .     S
Er23     V25    10.074   1_656     S
Er23     Er24    9.702   1_556     S
Er24     V26    10.074   .     S
Er24     V25    10.074   1_665     S
Er24     Er23    9.702   1_554     S
V25     Er13    10.074   1_545     S
V25     Er10    10.074   1_545     S
V25     Er22    10.074   1_545     S
V25     Er14    10.074   1_554     S
V25     Er6    10.074   1_554     S
V25     Er1    10.074   1_554     S
V25     Er18    10.074   1_455     S
V25     Er2    10.074   1_455     S
V25     Er9    10.074   1_455     S
V25     Er11    10.074   1_445     S
V25     Er24    10.074   1_445     S
V25     Er15    10.074   1_445     S
V25     Er19    10.074   1_454     S
V25     Er8    10.074   1_454     S
V25     Er23    10.074   1_454     S
V25     Er17    10.074   1_444     S
V25     Er5    10.074   1_444     S
V25     Er21    10.074   1_444     S
V25     Er16    10.074   1_544     S
V25     Er3    10.074   1_544     S
V25     Er7    10.074   1_544     S
