data_dnj
_audit_creation_date              2020-02-02
_audit_creation_method            'Pymatgen'
_symmetry_space_group_name_H-M    'P1'
_symmetry_Int_Tables_number       1
loop_
_symmetry_equiv_pos_as_xyz
  x,y,z
_cell_length_a                    37.7173
_cell_length_b                    37.7173
_cell_length_c                    37.7173
_cell_angle_alpha                 90.0
_cell_angle_beta                 90.0
_cell_angle_gamma                 90.0
loop_
_atom_site_label
_atom_site_type_symbol
_atom_site_fract_x
_atom_site_fract_y
_atom_site_fract_z
V1     V     0.25   0.75   0.75
V2     V     0.75   0.25   0.75
V3     V     0.75   0.75   0.25
Er4     Er     0.5   0.0   0.0
Ti5     Ti     0.6873   0.0   0.1873
Ti6     Ti     0.6873   0.1873   0.0
Ti7     Ti     0.3127   0.0   0.8127
Ti8     Ti     0.5   0.1873   0.8127
Ti9     Ti     0.5   0.8127   0.1873
Ti10     Ti     0.3127   0.8127   0.0
Er11     Er     0.0   0.5   0.0
Ti12     Ti     0.1873   0.6873   0.0
Ti13     Ti     0.1873   0.5   0.8127
Ti14     Ti     0.0   0.6873   0.1873
Ti15     Ti     0.8127   0.5   0.1873
Ti16     Ti     0.0   0.3127   0.8127
Ti17     Ti     0.8127   0.3127   0.0
Er18     Er     0.5   0.5   0.5
Ti19     Ti     0.5   0.3127   0.6873
Ti20     Ti     0.3127   0.6873   0.5
Ti21     Ti     0.6873   0.5   0.3127
Ti22     Ti     0.5   0.6873   0.3127
Ti23     Ti     0.3127   0.5   0.6873
Ti24     Ti     0.6873   0.3127   0.5
Er25     Er     0.0   0.0   0.5
Ti26     Ti     0.0   0.1873   0.6873
Ti27     Ti     0.1873   0.0   0.6873
Ti28     Ti     0.1873   0.8127   0.5
Ti29     Ti     0.8127   0.1873   0.5
Ti30     Ti     0.8127   0.0   0.3127
Ti31     Ti     0.0   0.8127   0.3127
V32     V     0.25   0.25   0.75
V33     V     0.75   0.25   0.25
V34     V     0.25   0.75   0.25
loop_
_geom_bond_atom_site_label_1
_geom_bond_atom_site_label_2
_geom_bond_distance
_geom_bond_site_symmetry_2
_ccdc_geom_bond_type
V1     Ti13    10.005   .     S
V1     Ti23    10.005   .     S
V1     Ti28    10.005   .     S
V1     Ti20    10.005   .     S
V1     Ti7    10.005   1_565     S
V1     Ti27    10.005   1_565     S
V1     Ti12    10.005   1_556     S
V1     Ti10    10.005   1_556     S
V2     Ti29    10.005   .     S
V2     Ti24    10.005   .     S
V2     Ti19    10.005   .     S
V2     Ti8    10.005   .     S
V2     Ti17    10.005   1_556     S
V2     Ti6    10.005   1_556     S
V2     Ti26    10.005   1_655     S
V2     Ti16    10.005   1_655     S
V3     Ti22    10.005   .     S
V3     Ti9    10.005   .     S
V3     Ti15    10.005   .     S
V3     Ti21    10.005   .     S
V3     Ti31    10.005   1_655     S
V3     Ti14    10.005   1_655     S
V3     Ti5    10.005   1_565     S
V3     Ti30    10.005   1_565     S
Er4     Ti5    9.99   .     S
Er4     Ti9    9.99   1_545     S
Er4     Ti8    9.99   1_554     S
Er4     Ti6    9.99   .     S
Er4     Ti10    9.99   1_545     S
Er4     Ti7    9.99   1_554     S
Ti5     V33    10.005   .     S
Ti5     V3    10.005   1_545     S
Ti6     V33    10.005   .     S
Ti6     V2    10.005   1_554     S
Ti7     V1    10.005   1_545     S
Ti7     Er4    9.99   1_556     S
Ti7     V32    10.005   .     S
Ti8     Er4    9.99   1_556     S
Ti8     V32    10.005   .     S
Ti9     V34    10.005   .     S
Ti9     Er4    9.99   1_565     S
Ti10     V34    10.005   .     S
Ti10     V1    10.005   1_554     S
Ti10     Er4    9.99   1_565     S
Er11     Ti16    9.99   1_554     S
Er11     Ti17    9.99   1_455     S
Er11     Ti15    9.99   1_455     S
Er11     Ti14    9.99   .     S
Er11     Ti12    9.99   .     S
Er11     Ti13    9.99   1_554     S
Ti12     V34    10.005   .     S
Ti12     V1    10.005   1_554     S
Ti13     Er11    9.99   1_556     S
Ti13     V32    10.005   .     S
Ti14     V34    10.005   .     S
Ti14     V3    10.005   1_455     S
Ti15     V33    10.005   .     S
Ti15     Er11    9.99   1_655     S
Ti16     V2    10.005   1_455     S
Ti16     Er11    9.99   1_556     S
Ti16     V32    10.005   .     S
Ti17     V33    10.005   .     S
Ti17     V2    10.005   1_554     S
Ti17     Er11    9.99   1_655     S
Er18     Ti19    9.99   .     S
Er18     Ti24    9.99   .     S
Er18     Ti21    9.99   .     S
Er18     Ti22    9.99   .     S
Er18     Ti23    9.99   .     S
Er18     Ti20    9.99   .     S
Ti19     V32    10.005   .     S
Ti20     V34    10.005   .     S
Ti21     V33    10.005   .     S
Ti22     V34    10.005   .     S
Ti23     V32    10.005   .     S
Ti24     V33    10.005   .     S
Er25     Ti28    9.99   1_545     S
Er25     Ti27    9.99   .     S
Er25     Ti26    9.99   .     S
Er25     Ti29    9.99   1_455     S
Er25     Ti30    9.99   1_455     S
Er25     Ti31    9.99   1_545     S
Ti26     V2    10.005   1_455     S
Ti26     V32    10.005   .     S
Ti27     V1    10.005   1_545     S
Ti27     V32    10.005   .     S
Ti28     V34    10.005   .     S
Ti28     Er25    9.99   1_565     S
Ti29     V33    10.005   .     S
Ti29     Er25    9.99   1_655     S
Ti30     V33    10.005   .     S
Ti30     V3    10.005   1_545     S
Ti30     Er25    9.99   1_655     S
Ti31     V34    10.005   .     S
Ti31     V3    10.005   1_455     S
Ti31     Er25    9.99   1_565     S
