data_dnm
_audit_creation_date              2020-02-02
_audit_creation_method            'Pymatgen'
_symmetry_space_group_name_H-M    'P1'
_symmetry_Int_Tables_number       1
loop_
_symmetry_equiv_pos_as_xyz
  x,y,z
_cell_length_a                    18.4224
_cell_length_b                    18.4224
_cell_length_c                    25.6791
_cell_angle_alpha                 90.0
_cell_angle_beta                 90.0
_cell_angle_gamma                 120.0
loop_
_atom_site_label
_atom_site_type_symbol
_atom_site_fract_x
_atom_site_fract_y
_atom_site_fract_z
Ti1     Ti     0.5468   0.4532   0.8592
Ti2     Ti     0.9063   0.4532   0.8592
Ti3     Ti     0.5468   0.0937   0.8592
Er4     Er     0.6667   0.3333   0.5
Ti5     Ti     0.5468   0.4532   0.1408
Ti6     Ti     0.9063   0.4532   0.1408
Ti7     Ti     0.5468   0.0937   0.1408
V8     V     0.0   0.0   0.0
loop_
_geom_bond_atom_site_label_1
_geom_bond_atom_site_label_2
_geom_bond_distance
_geom_bond_site_symmetry_2
_ccdc_geom_bond_type
Ti1     V8    10.008   1_556     S
Ti1     V8    10.008   1_666     S
Ti1     Er4    9.984   .     S
Ti2     V8    10.008   1_656     S
Ti2     V8    10.008   1_666     S
Ti2     Er4    9.984   .     S
Ti3     V8    10.008   1_656     S
Ti3     V8    10.008   1_556     S
Ti3     Er4    9.984   .     S
Er4     Ti6    9.984   .     S
Er4     Ti5    9.984   .     S
Er4     Ti7    9.984   .     S
Ti5     V8    10.008   .     S
Ti5     V8    10.008   1_665     S
Ti6     V8    10.008   1_655     S
Ti6     V8    10.008   1_665     S
Ti7     V8    10.008   1_655     S
Ti7     V8    10.008   .     S
V8     Ti6    10.008   1_455     S
V8     Ti7    10.008   1_455     S
V8     Ti2    10.008   1_454     S
V8     Ti3    10.008   1_454     S
V8     Ti3    10.008   1_554     S
V8     Ti1    10.008   1_554     S
V8     Ti1    10.008   1_444     S
V8     Ti2    10.008   1_444     S
V8     Ti5    10.008   1_445     S
V8     Ti6    10.008   1_445     S
