data_dnma
_audit_creation_date              2020-02-02
_audit_creation_method            'Pymatgen'
_symmetry_space_group_name_H-M    'P1'
_symmetry_Int_Tables_number       1
loop_
_symmetry_equiv_pos_as_xyz
  x,y,z
_cell_length_a                    48.2716
_cell_length_b                    48.2716
_cell_length_c                    62.4604
_cell_angle_alpha                 90.0
_cell_angle_beta                 90.0
_cell_angle_gamma                 120.0
loop_
_atom_site_label
_atom_site_type_symbol
_atom_site_fract_x
_atom_site_fract_y
_atom_site_fract_z
Er1     Er     0.4444   0.5556   0.73
V2     V     0.5861   0.6211   0.8588
V3     V     0.3789   0.4139   0.8588
Er4     Er     0.4444   0.8887   0.27
V5     V     0.3789   0.965   0.1412
V6     V     0.5861   0.965   0.1412
Er7     Er     0.4444   0.5556   0.27
V8     V     0.5861   0.6211   0.1412
V9     V     0.3789   0.4139   0.1412
Er10     Er     0.4444   0.8887   0.73
V11     V     0.3789   0.965   0.8588
V12     V     0.5861   0.965   0.8588
Er13     Er     0.1113   0.5556   0.73
V14     V     0.035   0.4139   0.8588
V15     V     0.035   0.6211   0.8588
Er16     Er     0.1113   0.5556   0.27
V17     V     0.035   0.4139   0.1412
V18     V     0.035   0.6211   0.1412
Ti19     Ti     0.1954   0.5977   0.4199
Ti20     Ti     0.4023   0.5977   0.4199
Ti21     Ti     0.4023   0.8046   0.4199
Ti22     Ti     0.1954   0.5977   0.5801
Ti23     Ti     0.4023   0.5977   0.5801
Ti24     Ti     0.4023   0.8046   0.5801
Ce25     Ce     0.7928   0.7928   0.08
Ce26     Ce     0.7928   0.7928   0.92
Ce27     Ce     0.7928   1.0   0.08
Ce28     Ce     0.7928   1.0   0.92
Ce29     Ce     0.0   0.2072   0.08
Ce30     Ce     0.0   0.2072   0.92
Ce31     Ce     0.2072   0.2072   0.92
Ce32     Ce     0.2072   0.2072   0.08
Ce33     Ce     0.0   0.7928   0.92
Ce34     Ce     0.0   0.7928   0.08
Ce35     Ce     0.2072   1.0   0.92
Ce36     Ce     0.2072   1.0   0.08
loop_
_geom_bond_atom_site_label_1
_geom_bond_atom_site_label_2
_geom_bond_distance
_geom_bond_site_symmetry_2
_ccdc_geom_bond_type
Er1     V2    9.996   .     S
Er1     V3    9.996   .     S
Er1     Ti23    10.004   .     S
V2     V3    10.001   .     S
V2     Ce26    10.006   .     S
V3     Ce31    10.006   .     S
Er4     V6    9.996   .     S
Er4     V5    9.996   .     S
Er4     Ti21    10.004   .     S
V5     V6    10.001   .     S
V5     Ce36    10.006   .     S
V6     Ce27    10.006   .     S
Er7     V9    9.996   .     S
Er7     V8    9.996   .     S
Er7     Ti20    10.004   .     S
V8     V9    10.001   .     S
V8     Ce25    10.006   .     S
V9     Ce32    10.006   .     S
Er10     V12    9.996   .     S
Er10     V11    9.996   .     S
Er10     Ti24    10.004   .     S
V11     V12    10.001   .     S
V11     Ce35    10.006   .     S
V12     Ce28    10.006   .     S
Er13     V14    9.996   .     S
Er13     V15    9.996   .     S
Er13     Ti22    10.004   .     S
V14     V15    10.001   .     S
V14     Ce30    10.006   .     S
V15     Ce33    10.006   .     S
Er16     V17    9.996   .     S
Er16     V18    9.996   .     S
Er16     Ti19    10.004   .     S
V17     V18    10.001   .     S
V17     Ce29    10.006   .     S
V18     Ce34    10.006   .     S
Ti19     Ti20    9.99   .     S
Ti19     Ti21    9.99   .     S
Ti19     Ti22    10.002   .     S
Ti20     Ti21    9.99   .     S
Ti20     Ti23    10.002   .     S
Ti21     Ti24    10.002   .     S
Ti22     Ti23    9.99   .     S
Ti22     Ti24    9.99   .     S
Ti23     Ti24    9.99   .     S
Ce25     Ce26    9.995   1_554     S
Ce25     Ce27    10.001   .     S
Ce25     Ce34    10.006   1_655     S
Ce26     Ce25    9.995   1_556     S
Ce26     Ce28    10.001   .     S
Ce26     Ce33    10.006   1_655     S
Ce27     Ce28    9.995   1_554     S
Ce27     Ce29    10.006   1_665     S
Ce28     Ce27    9.995   1_556     S
Ce28     Ce30    10.006   1_665     S
Ce29     Ce27    10.006   1_445     S
Ce29     Ce30    9.995   1_554     S
Ce29     Ce32    10.001   .     S
Ce30     Ce28    10.006   1_445     S
Ce30     Ce29    9.995   1_556     S
Ce30     Ce31    10.001   .     S
Ce31     Ce32    9.995   1_556     S
Ce31     Ce35    10.006   1_545     S
Ce32     Ce31    9.995   1_554     S
Ce32     Ce36    10.006   1_545     S
Ce33     Ce26    10.006   1_455     S
Ce33     Ce34    9.995   1_556     S
Ce33     Ce35    10.001   .     S
Ce34     Ce25    10.006   1_455     S
Ce34     Ce33    9.995   1_554     S
Ce34     Ce36    10.001   .     S
Ce35     Ce36    9.995   1_556     S
Ce35     Ce31    10.006   1_565     S
Ce36     Ce35    9.995   1_554     S
Ce36     Ce32    10.006   1_565     S
