data_dnna
_audit_creation_date              2020-02-02
_audit_creation_method            'Pymatgen'
_symmetry_space_group_name_H-M    'P1'
_symmetry_Int_Tables_number       1
loop_
_symmetry_equiv_pos_as_xyz
  x,y,z
_cell_length_a                    48.1965
_cell_length_b                    48.1965
_cell_length_c                    125.2981
_cell_angle_alpha                 90.0
_cell_angle_beta                 90.0
_cell_angle_gamma                 120.0
loop_
_atom_site_label
_atom_site_type_symbol
_atom_site_fract_x
_atom_site_fract_y
_atom_site_fract_z
Ce1     Ce     0.9614   0.377   0.9294
Ce2     Ce     0.9614   0.5844   0.9294
Ti3     Ti     0.8897   0.4448   0.8646
Ce4     Ce     0.9614   0.377   0.5706
Ce5     Ce     0.9614   0.5844   0.5706
Ti6     Ti     0.8897   0.4448   0.6354
Ce7     Ce     0.4156   0.0386   0.9294
Ce8     Ce     0.623   0.0386   0.9294
Ti9     Ti     0.5552   0.1103   0.8646
Ce10     Ce     0.623   0.5844   0.9294
Ce11     Ce     0.4156   0.377   0.9294
Ti12     Ti     0.5552   0.4448   0.8646
Ce13     Ce     0.623   0.5844   0.5706
Ce14     Ce     0.4156   0.377   0.5706
Ti15     Ti     0.5552   0.4448   0.6354
V16     V     0.5976   0.4024   0.7899
V17     V     0.5976   0.1952   0.7899
V18     V     0.8049   0.4024   0.7899
V19     V     0.5976   0.1952   0.7101
V20     V     0.5976   0.4024   0.7101
V21     V     0.8049   0.4024   0.7101
Ce22     Ce     0.4156   0.0386   0.5706
Ce23     Ce     0.623   0.0386   0.5706
Ti24     Ti     0.5552   0.1103   0.6354
Er25     Er     0.7924   0.7924   0.0399
Er26     Er     0.7924   0.7924   0.9601
Er27     Er     0.7924   1.0   0.0399
Er28     Er     0.7924   0.0   0.9601
Er29     Er     0.2076   0.2076   0.0399
Er30     Er     0.2076   0.2076   0.9601
Er31     Er     0.2076   1.0   0.0399
Er32     Er     0.2076   0.0   0.9601
Er33     Er     0.0   0.2076   0.0399
Er34     Er     1.0   0.2076   0.9601
Er35     Er     0.0   0.7924   0.0399
Er36     Er     1.0   0.7924   0.9601
Er37     Er     0.7924   0.0   0.5399
Er38     Er     0.7924   1.0   0.4601
Er39     Er     0.2076   0.2076   0.5399
Er40     Er     0.2076   0.2076   0.4601
Er41     Er     0.2076   0.0   0.5399
Er42     Er     0.2076   1.0   0.4601
Er43     Er     1.0   0.2076   0.5399
Er44     Er     0.0   0.2076   0.4601
Er45     Er     1.0   0.7924   0.5399
Er46     Er     0.0   0.7924   0.4601
Er47     Er     0.7924   0.7924   0.5399
Er48     Er     0.7924   0.7924   0.4601
Ce49     Ce     0.5844   0.623   0.0706
Ce50     Ce     0.377   0.4156   0.0706
Ti51     Ti     0.4448   0.5552   0.1354
Ce52     Ce     0.0386   0.623   0.0706
Ce53     Ce     0.0386   0.4156   0.0706
Ti54     Ti     0.1103   0.5552   0.1354
Ce55     Ce     0.5844   0.9614   0.0706
Ce56     Ce     0.377   0.9614   0.0706
Ti57     Ti     0.4448   0.8897   0.1354
Ce58     Ce     0.377   0.4156   0.4294
Ce59     Ce     0.5844   0.623   0.4294
Ti60     Ti     0.4448   0.5552   0.3646
Ce61     Ce     0.0386   0.623   0.4294
Ce62     Ce     0.0386   0.4156   0.4294
Ti63     Ti     0.1103   0.5552   0.3646
V64     V     0.4024   0.5976   0.2899
V65     V     0.1952   0.5976   0.2899
V66     V     0.4024   0.8049   0.2899
V67     V     0.4024   0.5976   0.2101
V68     V     0.1952   0.5976   0.2101
V69     V     0.4024   0.8049   0.2101
Ce70     Ce     0.5844   0.9614   0.4294
Ce71     Ce     0.377   0.9614   0.4294
Ti72     Ti     0.4448   0.8897   0.3646
loop_
_geom_bond_atom_site_label_1
_geom_bond_atom_site_label_2
_geom_bond_distance
_geom_bond_site_symmetry_2
_ccdc_geom_bond_type
Ce1     Ce2    9.999   .     S
Ce1     Ti3    9.996   .     S
Ce1     Er34    10.006   .     S
Ce2     Ti3    9.996   .     S
Ce2     Er36    10.006   .     S
Ti3     V18    10.003   .     S
Ce4     Ce5    9.999   .     S
Ce4     Ti6    9.996   .     S
Ce4     Er43    10.006   .     S
Ce5     Ti6    9.996   .     S
Ce5     Er45    10.006   .     S
Ti6     V21    10.003   .     S
Ce7     Ce8    9.999   .     S
Ce7     Ti9    9.996   .     S
Ce7     Er32    10.006   .     S
Ce8     Ti9    9.996   .     S
Ce8     Er28    10.006   .     S
Ti9     V17    10.003   .     S
Ce10     Ce11    9.999   .     S
Ce10     Ti12    9.996   .     S
Ce10     Er26    10.006   .     S
Ce11     Ti12    9.996   .     S
Ce11     Er30    10.006   .     S
Ti12     V16    10.003   .     S
Ce13     Ce14    9.999   .     S
Ce13     Ti15    9.996   .     S
Ce13     Er47    10.006   .     S
Ce14     Ti15    9.996   .     S
Ce14     Er39    10.006   .     S
Ti15     V20    10.003   .     S
V16     V17    9.99   .     S
V16     V18    9.99   .     S
V16     V20    10.001   .     S
V17     V18    9.99   .     S
V17     V19    10.001   .     S
V18     V21    10.001   .     S
V19     V21    9.99   .     S
V19     V20    9.99   .     S
V19     Ti24    10.003   .     S
V20     V21    9.99   .     S
Ce22     Ce23    9.999   .     S
Ce22     Ti24    9.996   .     S
Ce22     Er41    10.006   .     S
Ce23     Ti24    9.996   .     S
Ce23     Er37    10.006   .     S
Er25     Er26    9.994   1_554     S
Er25     Er27    10.003   .     S
Er25     Ce49    10.006   .     S
Er25     Er35    10.006   1_655     S
Er26     Er25    9.994   1_556     S
Er26     Er36    10.003   .     S
Er26     Er28    10.006   1_565     S
Er27     Er28    9.994   1_564     S
Er27     Ce55    10.006   .     S
Er27     Er33    10.006   1_665     S
Er28     Er34    10.003   .     S
Er28     Er27    9.994   1_546     S
Er28     Er26    10.006   1_545     S
Er29     Er30    9.994   1_554     S
Er29     Er33    10.003   .     S
Er29     Ce50    10.006   .     S
Er29     Er31    10.006   1_545     S
Er30     Er29    9.994   1_556     S
Er30     Er32    10.003   .     S
Er30     Er34    10.006   1_455     S
Er31     Er32    9.994   1_564     S
Er31     Er35    10.003   .     S
Er31     Ce56    10.006   .     S
Er31     Er29    10.006   1_565     S
Er32     Er31    9.994   1_546     S
Er32     Er36    10.006   1_445     S
Er33     Er34    9.994   1_454     S
Er33     Ce53    10.006   .     S
Er33     Er27    10.006   1_445     S
Er34     Er33    9.994   1_656     S
Er34     Er30    10.006   1_655     S
Er35     Er36    9.994   1_454     S
Er35     Ce52    10.006   .     S
Er35     Er25    10.006   1_455     S
Er36     Er35    9.994   1_656     S
Er36     Er32    10.006   1_665     S
Er37     Er43    10.003   .     S
Er37     Er38    9.994   1_545     S
Er37     Er47    10.006   1_545     S
Er38     Er37    9.994   1_565     S
Er38     Er48    10.003   .     S
Er38     Ce70    10.006   .     S
Er38     Er44    10.006   1_665     S
Er39     Er40    9.994   .     S
Er39     Er41    10.003   .     S
Er39     Er43    10.006   1_455     S
Er40     Er44    10.003   .     S
Er40     Ce58    10.006   .     S
Er40     Er42    10.006   1_545     S
Er41     Er42    9.994   1_545     S
Er41     Er45    10.006   1_445     S
Er42     Er41    9.994   1_565     S
Er42     Er46    10.003   .     S
Er42     Ce71    10.006   .     S
Er42     Er40    10.006   1_565     S
Er43     Er44    9.994   1_655     S
Er43     Er39    10.006   1_655     S
Er44     Er43    9.994   1_455     S
Er44     Ce62    10.006   .     S
Er44     Er38    10.006   1_445     S
Er45     Er46    9.994   1_655     S
Er45     Er47    10.003   .     S
Er45     Er41    10.006   1_665     S
Er46     Er45    9.994   1_455     S
Er46     Ce61    10.006   .     S
Er46     Er48    10.006   1_455     S
Er47     Er48    9.994   .     S
Er47     Er37    10.006   1_565     S
Er48     Ce59    10.006   .     S
Er48     Er46    10.006   1_655     S
Ce49     Ce50    9.999   .     S
Ce49     Ti51    9.996   .     S
Ce50     Ti51    9.996   .     S
Ti51     V67    10.003   .     S
Ce52     Ce53    9.999   .     S
Ce52     Ti54    9.996   .     S
Ce53     Ti54    9.996   .     S
Ti54     V68    10.003   .     S
Ce55     Ce56    9.999   .     S
Ce55     Ti57    9.996   .     S
Ce56     Ti57    9.996   .     S
Ti57     V69    10.003   .     S
Ce58     Ce59    9.999   .     S
Ce58     Ti60    9.996   .     S
Ce59     Ti60    9.996   .     S
Ti60     V64    10.003   .     S
Ce61     Ce62    9.999   .     S
Ce61     Ti63    9.996   .     S
Ce62     Ti63    9.996   .     S
Ti63     V65    10.003   .     S
V64     V65    9.99   .     S
V64     V66    9.99   .     S
V64     V67    10.001   .     S
V65     V66    9.99   .     S
V65     V68    10.001   .     S
V66     V69    10.001   .     S
V66     Ti72    10.003   .     S
V67     V68    9.99   .     S
V67     V69    9.99   .     S
V68     V69    9.99   .     S
Ce70     Ce71    9.999   .     S
Ce70     Ti72    9.996   .     S
Ce71     Ti72    9.996   .     S
