data_dno
_audit_creation_date              2020-02-02
_audit_creation_method            'Pymatgen'
_symmetry_space_group_name_H-M    'P1'
_symmetry_Int_Tables_number       1
loop_
_symmetry_equiv_pos_as_xyz
  x,y,z
_cell_length_a                    18.2788
_cell_length_b                    18.2788
_cell_length_c                    25.7898
_cell_angle_alpha                 90.0
_cell_angle_beta                 90.0
_cell_angle_gamma                 120.0
loop_
_atom_site_label
_atom_site_type_symbol
_atom_site_fract_x
_atom_site_fract_y
_atom_site_fract_z
Ti1     Ti     0.4238   0.5762   0.133
Ti2     Ti     0.5762   0.4238   0.133
Ti3     Ti     0.5762   0.1524   0.133
Ti4     Ti     0.4238   0.8476   0.133
Ti5     Ti     0.1524   0.5762   0.133
Ti6     Ti     0.8476   0.4238   0.133
Er7     Er     0.3333   0.6667   0.5
Ti8     Ti     0.4238   0.8476   0.867
Ti9     Ti     0.5762   0.1524   0.867
Ti10     Ti     0.5762   0.4238   0.867
Ti11     Ti     0.4238   0.5762   0.867
Ti12     Ti     0.1524   0.5762   0.867
Ti13     Ti     0.8476   0.4238   0.867
Er14     Er     0.6667   0.3333   0.5
V15     V     0.0   0.0   0.0
loop_
_geom_bond_atom_site_label_1
_geom_bond_atom_site_label_2
_geom_bond_distance
_geom_bond_site_symmetry_2
_ccdc_geom_bond_type
Ti1     V15    10.055   .     S
Ti1     V15    10.055   1_665     S
Ti1     Er7    9.889   .     S
Ti2     V15    10.055   .     S
Ti2     V15    10.055   1_665     S
Ti2     Er14    9.889   .     S
Ti3     V15    10.055   .     S
Ti3     V15    10.055   1_655     S
Ti3     Er14    9.889   .     S
Ti4     V15    10.055   1_565     S
Ti4     V15    10.055   1_665     S
Ti4     Er7    9.889   .     S
Ti5     V15    10.055   .     S
Ti5     V15    10.055   1_565     S
Ti5     Er7    9.889   .     S
Ti6     V15    10.055   1_655     S
Ti6     V15    10.055   1_665     S
Ti6     Er14    9.889   .     S
Er7     Ti12    9.889   .     S
Er7     Ti11    9.889   .     S
Er7     Ti8    9.889   .     S
Ti8     V15    10.055   1_566     S
Ti8     V15    10.055   1_666     S
Ti9     V15    10.055   1_556     S
Ti9     V15    10.055   1_656     S
Ti9     Er14    9.889   .     S
Ti10     V15    10.055   1_556     S
Ti10     V15    10.055   1_666     S
Ti10     Er14    9.889   .     S
Ti11     V15    10.055   1_556     S
Ti11     V15    10.055   1_666     S
Ti12     V15    10.055   1_556     S
Ti12     V15    10.055   1_566     S
Ti13     V15    10.055   1_656     S
Ti13     V15    10.055   1_666     S
Ti13     Er14    9.889   .     S
V15     Ti8    10.055   1_544     S
V15     Ti9    10.055   1_554     S
V15     Ti12    10.055   1_554     S
V15     Ti13    10.055   1_454     S
V15     Ti10    10.055   1_554     S
V15     Ti11    10.055   1_554     S
V15     Ti13    10.055   1_444     S
V15     Ti12    10.055   1_544     S
V15     Ti11    10.055   1_444     S
V15     Ti10    10.055   1_444     S
V15     Ti9    10.055   1_454     S
V15     Ti8    10.055   1_444     S
V15     Ti4    10.055   1_545     S
V15     Ti6    10.055   1_455     S
V15     Ti4    10.055   1_445     S
V15     Ti3    10.055   1_455     S
V15     Ti2    10.055   1_445     S
V15     Ti1    10.055   1_445     S
V15     Ti5    10.055   1_545     S
V15     Ti6    10.055   1_445     S
