data_dnpa
_audit_creation_date              2020-02-02
_audit_creation_method            'Pymatgen'
_symmetry_space_group_name_H-M    'P1'
_symmetry_Int_Tables_number       1
loop_
_symmetry_equiv_pos_as_xyz
  x,y,z
_cell_length_a                    84.4961
_cell_length_b                    84.4961
_cell_length_c                    61.5738
_cell_angle_alpha                 90.0
_cell_angle_beta                 90.0
_cell_angle_gamma                 120.0
loop_
_atom_site_label
_atom_site_type_symbol
_atom_site_fract_x
_atom_site_fract_y
_atom_site_fract_z
Ce1     Ce     0.5933   0.0683   0.5812
Ce2     Ce     0.5933   0.0683   0.4188
Ce3     Ce     0.475   0.0683   0.4188
Ce4     Ce     0.475   0.0683   0.5812
Ce5     Ce     0.525   0.9316   0.5812
Ce6     Ce     0.4067   0.9316   0.5812
Ce7     Ce     0.525   0.9316   0.4188
Ce8     Ce     0.4067   0.9316   0.4188
Ce9     Ce     0.0683   0.5933   0.4188
Ce10     Ce     0.0683   0.5933   0.5812
Ce11     Ce     0.0683   0.475   0.5812
Ce12     Ce     0.0683   0.475   0.4188
Ce13     Ce     0.9316   0.525   0.5812
Ce14     Ce     0.9316   0.4067   0.5812
Ce15     Ce     0.9316   0.525   0.4188
Ce16     Ce     0.9316   0.4067   0.4188
V17     V     0.7312   0.4624   0.7677
Ti18     Ti     0.6938   0.506   0.637
Ti19     Ti     0.8122   0.506   0.637
V20     V     0.7312   0.2688   0.7677
Ti21     Ti     0.6938   0.1878   0.637
Ti22     Ti     0.8122   0.3062   0.637
V23     V     0.5376   0.2688   0.7677
Ti24     Ti     0.494   0.3062   0.637
Ti25     Ti     0.494   0.1878   0.637
V26     V     0.7312   0.4624   0.2323
Ti27     Ti     0.8122   0.506   0.363
Ti28     Ti     0.6938   0.506   0.363
V29     V     0.7312   0.2688   0.2323
Ti30     Ti     0.6938   0.1878   0.363
Ti31     Ti     0.8122   0.3062   0.363
V32     V     0.5376   0.2688   0.2323
Ti33     Ti     0.494   0.3062   0.363
Ti34     Ti     0.494   0.1878   0.363
Er35     Er     0.7061   0.4122   0.0812
Er36     Er     0.7061   0.2939   0.0812
Er37     Er     0.5878   0.2939   0.0812
Er38     Er     0.7061   0.4122   0.9188
Er39     Er     0.5878   0.2939   0.9188
Er40     Er     0.7061   0.2939   0.9188
Ce41     Ce     0.525   0.5933   0.4188
Ce42     Ce     0.4067   0.475   0.4188
Ce43     Ce     0.525   0.5933   0.5812
Ce44     Ce     0.4067   0.475   0.5812
Ce45     Ce     0.475   0.4067   0.5812
Ce46     Ce     0.5933   0.525   0.5812
Ce47     Ce     0.475   0.4067   0.4188
Ce48     Ce     0.5933   0.525   0.4188
V49     V     0.2688   0.5376   0.7677
Ti50     Ti     0.3062   0.494   0.637
Ti51     Ti     0.1878   0.494   0.637
V52     V     0.4624   0.7312   0.7677
Ti53     Ti     0.506   0.6938   0.637
Ti54     Ti     0.506   0.8122   0.637
V55     V     0.2688   0.7312   0.7677
Ti56     Ti     0.1878   0.6938   0.637
Ti57     Ti     0.3062   0.8122   0.637
V58     V     0.4624   0.7312   0.2323
Ti59     Ti     0.506   0.6938   0.363
Ti60     Ti     0.506   0.8122   0.363
V61     V     0.2688   0.5376   0.2323
Ti62     Ti     0.3062   0.494   0.363
Ti63     Ti     0.1878   0.494   0.363
V64     V     0.2688   0.7312   0.2323
Ti65     Ti     0.1878   0.6938   0.363
Ti66     Ti     0.3062   0.8122   0.363
Er67     Er     0.4122   0.7061   0.0812
Er68     Er     0.2939   0.5878   0.0812
Er69     Er     0.2939   0.7061   0.0812
Er70     Er     0.2939   0.5878   0.9188
Er71     Er     0.2939   0.7061   0.9188
Er72     Er     0.4122   0.7061   0.9188
loop_
_geom_bond_atom_site_label_1
_geom_bond_atom_site_label_2
_geom_bond_distance
_geom_bond_site_symmetry_2
_ccdc_geom_bond_type
Ce1     Ce4    9.997   .     S
Ce1     Ce2    9.997   .     S
Ce1     Ce5    10.003   1_545     S
Ce1     Ti21    10.005   .     S
Ce2     Ce3    9.997   .     S
Ce2     Ce7    10.003   1_545     S
Ce2     Ti30    10.005   .     S
Ce3     Ce4    9.997   .     S
Ce3     Ce8    10.003   1_545     S
Ce3     Ti34    10.005   .     S
Ce4     Ce6    10.003   1_545     S
Ce4     Ti25    10.005   .     S
Ce5     Ce6    9.997   .     S
Ce5     Ce7    9.997   .     S
Ce5     Ce1    10.003   1_565     S
Ce5     Ti54    10.005   .     S
Ce6     Ce8    9.997   .     S
Ce6     Ce4    10.003   1_565     S
Ce6     Ti57    10.005   .     S
Ce7     Ce8    9.997   .     S
Ce7     Ce2    10.003   1_565     S
Ce7     Ti60    10.005   .     S
Ce8     Ce3    10.003   1_565     S
Ce8     Ti66    10.005   .     S
Ce9     Ce12    9.997   .     S
Ce9     Ce10    9.997   .     S
Ce9     Ce15    10.003   1_455     S
Ce9     Ti65    10.005   .     S
Ce10     Ce11    9.997   .     S
Ce10     Ce13    10.003   1_455     S
Ce10     Ti56    10.005   .     S
Ce11     Ce12    9.997   .     S
Ce11     Ce14    10.003   1_455     S
Ce11     Ti51    10.005   .     S
Ce12     Ce16    10.003   1_455     S
Ce12     Ti63    10.005   .     S
Ce13     Ce14    9.997   .     S
Ce13     Ce15    9.997   .     S
Ce13     Ce10    10.003   1_655     S
Ce13     Ti19    10.005   .     S
Ce14     Ce16    9.997   .     S
Ce14     Ce11    10.003   1_655     S
Ce14     Ti22    10.005   .     S
Ce15     Ce16    9.997   .     S
Ce15     Ce9    10.003   1_655     S
Ce15     Ti27    10.005   .     S
Ce16     Ce12    10.003   1_655     S
Ce16     Ti31    10.005   .     S
V17     Ti19    9.998   .     S
V17     Ti18    9.998   .     S
V17     Er38    10.002   .     S
Ti18     Ti19    10.002   .     S
Ti18     Ce46    10.005   .     S
V20     Ti21    9.998   .     S
V20     Ti22    9.998   .     S
V20     Er40    10.002   .     S
Ti21     Ti22    10.002   .     S
V23     Ti24    9.998   .     S
V23     Ti25    9.998   .     S
V23     Er39    10.002   .     S
Ti24     Ti25    10.002   .     S
Ti24     Ce45    10.005   .     S
V26     Ti27    9.998   .     S
V26     Ti28    9.998   .     S
V26     Er35    10.002   .     S
Ti27     Ti28    10.002   .     S
Ti28     Ce48    10.005   .     S
V29     Ti30    9.998   .     S
V29     Ti31    9.998   .     S
V29     Er36    10.002   .     S
Ti30     Ti31    10.002   .     S
V32     Ti34    9.998   .     S
V32     Ti33    9.998   .     S
V32     Er37    10.002   .     S
Ti33     Ti34    10.002   .     S
Ti33     Ce47    10.005   .     S
Er35     Er36    9.994   .     S
Er35     Er37    9.995   .     S
Er35     Er38    10.002   1_554     S
Er36     Er37    9.995   .     S
Er36     Er40    10.002   1_554     S
Er37     Er39    10.002   1_554     S
Er38     Er39    9.994   .     S
Er38     Er40    9.995   .     S
Er38     Er35    10.002   1_556     S
Er39     Er37    10.002   1_556     S
Er39     Er40    9.995   .     S
Er40     Er36    10.002   1_556     S
Ce41     Ce42    9.997   .     S
Ce41     Ce43    9.997   .     S
Ce41     Ce48    10.003   .     S
Ce41     Ti59    10.005   .     S
Ce42     Ce44    9.997   .     S
Ce42     Ce47    10.003   .     S
Ce42     Ti62    10.005   .     S
Ce43     Ce44    9.997   .     S
Ce43     Ce46    10.003   .     S
Ce43     Ti53    10.005   .     S
Ce44     Ce45    10.003   .     S
Ce44     Ti50    10.005   .     S
Ce45     Ce46    9.997   .     S
Ce45     Ce47    9.997   .     S
Ce46     Ce48    9.997   .     S
Ce47     Ce48    9.997   .     S
V49     Ti51    9.998   .     S
V49     Ti50    9.998   .     S
V49     Er70    10.002   .     S
Ti50     Ti51    10.002   .     S
V52     Ti54    9.998   .     S
V52     Ti53    9.998   .     S
V52     Er72    10.002   .     S
Ti53     Ti54    10.002   .     S
V55     Ti57    9.998   .     S
V55     Ti56    9.998   .     S
V55     Er71    10.002   .     S
Ti56     Ti57    10.002   .     S
V58     Ti60    9.998   .     S
V58     Ti59    9.998   .     S
V58     Er67    10.002   .     S
Ti59     Ti60    10.002   .     S
V61     Ti62    9.998   .     S
V61     Ti63    9.998   .     S
V61     Er68    10.002   .     S
Ti62     Ti63    10.002   .     S
V64     Ti66    9.998   .     S
V64     Ti65    9.998   .     S
V64     Er69    10.002   .     S
Ti65     Ti66    10.002   .     S
Er67     Er68    9.994   .     S
Er67     Er69    9.995   .     S
Er67     Er72    10.002   1_554     S
Er68     Er69    9.995   .     S
Er68     Er70    10.002   1_554     S
Er69     Er71    10.002   1_554     S
Er70     Er68    10.002   1_556     S
Er70     Er71    9.995   .     S
Er70     Er72    9.995   .     S
Er71     Er69    10.002   1_556     S
Er71     Er72    9.994   .     S
Er72     Er67    10.002   1_556     S
