data_dnr
_audit_creation_date              2020-02-02
_audit_creation_method            'Pymatgen'
_symmetry_space_group_name_H-M    'P1'
_symmetry_Int_Tables_number       1
loop_
_symmetry_equiv_pos_as_xyz
  x,y,z
_cell_length_a                    66.6327
_cell_length_b                    66.6327
_cell_length_c                    14.9223
_cell_angle_alpha                 90.0
_cell_angle_beta                 90.0
_cell_angle_gamma                 120.0
loop_
_atom_site_label
_atom_site_type_symbol
_atom_site_fract_x
_atom_site_fract_y
_atom_site_fract_z
Er1     Er     0.7498   0.2502   0.5
Ti2     Ti     0.4999   0.8499   0.0
Ti3     Ti     0.35   0.8499   0.0
Ti4     Ti     0.5001   0.1501   0.0
Ti5     Ti     0.65   0.1501   0.0
V6     V     0.5   0.0   0.0
Er7     Er     0.2502   0.5004   0.5
Er8     Er     0.2502   0.7498   0.5
Ti9     Ti     0.1501   0.5001   0.0
Ti10     Ti     0.1501   0.65   0.0
Ti11     Ti     0.8499   0.35   0.0
Ti12     Ti     0.8499   0.4999   0.0
V13     V     0.0   0.5   0.0
Er14     Er     0.5004   0.2502   0.5
Er15     Er     0.7498   0.4996   0.5
Er16     Er     0.4996   0.7498   0.5
Ti17     Ti     0.35   0.5001   0.0
Ti18     Ti     0.4999   0.65   0.0
Ti19     Ti     0.5001   0.35   0.0
Ti20     Ti     0.65   0.4999   0.0
V21     V     0.5   0.5   0.0
loop_
_geom_bond_atom_site_label_1
_geom_bond_atom_site_label_2
_geom_bond_distance
_geom_bond_site_symmetry_2
_ccdc_geom_bond_type
Er1     Ti5    10.0   .     S
Er1     Ti5    10.0   1_556     S
Er1     Ti11    10.0   1_556     S
Er1     Ti11    10.0   .     S
Ti2     V6    10.0   1_565     S
Ti2     Er16    10.0   1_554     S
Ti2     Er16    10.0   .     S
Ti3     V6    10.0   1_565     S
Ti3     Er8    10.0   .     S
Ti3     Er8    10.0   1_554     S
Ti4     V6    10.0   .     S
Ti4     Er14    10.0   1_554     S
Ti4     Er14    10.0   .     S
Ti5     Er1    10.0   1_554     S
Ti5     V6    10.0   .     S
V6     Ti3    10.0   1_545     S
V6     Ti2    10.0   1_545     S
Er7     Ti9    10.0   .     S
Er7     Ti9    10.0   1_556     S
Er7     Ti17    10.0   1_556     S
Er7     Ti17    10.0   .     S
Er8     Ti3    10.0   1_556     S
Er8     Ti10    10.0   1_556     S
Er8     Ti10    10.0   .     S
Ti9     Er7    10.0   1_554     S
Ti9     V13    10.0   .     S
Ti10     Er8    10.0   1_554     S
Ti10     V13    10.0   .     S
Ti11     Er1    10.0   1_554     S
Ti11     V13    10.0   1_655     S
Ti12     V13    10.0   1_655     S
Ti12     Er15    10.0   .     S
Ti12     Er15    10.0   1_554     S
V13     Ti12    10.0   1_455     S
V13     Ti11    10.0   1_455     S
Er14     Ti4    10.0   1_556     S
Er14     Ti19    10.0   .     S
Er14     Ti19    10.0   1_556     S
Er15     Ti20    10.0   1_556     S
Er15     Ti20    10.0   .     S
Er15     Ti12    10.0   1_556     S
Er16     Ti2    10.0   1_556     S
Er16     Ti18    10.0   .     S
Er16     Ti18    10.0   1_556     S
Ti17     Er7    10.0   1_554     S
Ti17     V21    10.0   .     S
Ti18     Er16    10.0   1_554     S
Ti18     V21    10.0   .     S
Ti19     Er14    10.0   1_554     S
Ti19     V21    10.0   .     S
Ti20     Er15    10.0   1_554     S
Ti20     V21    10.0   .     S
