data_dnra
_audit_creation_date              2020-02-02
_audit_creation_method            'Pymatgen'
_symmetry_space_group_name_H-M    'P1'
_symmetry_Int_Tables_number       1
loop_
_symmetry_equiv_pos_as_xyz
  x,y,z
_cell_length_a                    149.0964
_cell_length_b                    149.0964
_cell_length_c                    34.6908
_cell_angle_alpha                 90.0
_cell_angle_beta                 90.0
_cell_angle_gamma                 120.0
loop_
_atom_site_label
_atom_site_type_symbol
_atom_site_fract_x
_atom_site_fract_y
_atom_site_fract_z
Er1     Er     0.3218   0.8363   0.6441
Ti2     Ti     0.3799   0.8943   0.5
Er3     Er     0.3218   0.8363   0.3559
Er4     Er     0.1637   0.6782   0.6441
Ti5     Ti     0.1057   0.6201   0.5
Er6     Er     0.1637   0.6782   0.3559
V7     V     0.2086   0.7243   0.1441
V8     V     0.2757   0.7914   0.1441
V9     V     0.2086   0.7243   0.8559
V10     V     0.2757   0.7914   0.8559
Ce11     Ce     0.0387   0.5529   0.5
Ce12     Ce     0.0387   0.4858   0.5
Ce13     Ce     0.9613   0.4471   0.5
Ce14     Ce     0.9613   0.5142   0.5
Er15     Er     0.1637   0.4855   0.6441
Ti16     Ti     0.1057   0.4856   0.5
Er17     Er     0.1637   0.4855   0.3559
Er18     Er     0.3218   0.4855   0.6441
Ti19     Ti     0.3799   0.4856   0.5
Er20     Er     0.3218   0.4855   0.3559
V21     V     0.2757   0.4843   0.1441
V22     V     0.2086   0.4843   0.1441
V23     V     0.2757   0.4843   0.8559
V24     V     0.2086   0.4843   0.8559
Er25     Er     0.5145   0.6782   0.6441
Ti26     Ti     0.5144   0.6201   0.5
Er27     Er     0.5145   0.6782   0.3559
V28     V     0.5157   0.7243   0.8559
V29     V     0.5157   0.7243   0.1441
Ti30     Ti     0.5144   0.8943   0.5
Er31     Er     0.5145   0.8363   0.6441
Er32     Er     0.5145   0.8363   0.3559
V33     V     0.5157   0.7914   0.1441
V34     V     0.5157   0.7914   0.8559
Ce35     Ce     0.4858   0.4471   0.5
Ce36     Ce     0.5529   0.5142   0.5
Ce37     Ce     0.4471   0.4858   0.5
Ce38     Ce     0.5142   0.5529   0.5
Er39     Er     0.6782   0.5145   0.6441
Ti40     Ti     0.6201   0.5144   0.5
Er41     Er     0.6782   0.5145   0.3559
V42     V     0.7243   0.5157   0.1441
V43     V     0.7243   0.5157   0.8559
Er44     Er     0.8363   0.5145   0.6441
Ti45     Ti     0.8943   0.5144   0.5
Er46     Er     0.8363   0.5145   0.3559
V47     V     0.7914   0.5157   0.8559
V48     V     0.7914   0.5157   0.1441
Er49     Er     0.4855   0.1637   0.6441
Ti50     Ti     0.4856   0.1057   0.5
Er51     Er     0.4855   0.1637   0.3559
Ti52     Ti     0.4856   0.3799   0.5
Er53     Er     0.4855   0.3218   0.6441
Er54     Er     0.4855   0.3218   0.3559
V55     V     0.4843   0.2757   0.1441
V56     V     0.4843   0.2086   0.1441
V57     V     0.4843   0.2757   0.8559
V58     V     0.4843   0.2086   0.8559
Ce59     Ce     0.5142   0.9613   0.5
Ce60     Ce     0.4471   0.9613   0.5
Ce61     Ce     0.5529   0.0387   0.5
Ce62     Ce     0.4858   0.0387   0.5
Er63     Er     0.6782   0.1637   0.6441
Ti64     Ti     0.6201   0.1057   0.5
Er65     Er     0.6782   0.1637   0.3559
Er66     Er     0.8363   0.3218   0.6441
Ti67     Ti     0.8943   0.3799   0.5
Er68     Er     0.8363   0.3218   0.3559
V69     V     0.7243   0.2086   0.1441
V70     V     0.7914   0.2757   0.1441
V71     V     0.7243   0.2086   0.8559
V72     V     0.7914   0.2757   0.8559
loop_
_geom_bond_atom_site_label_1
_geom_bond_atom_site_label_2
_geom_bond_distance
_geom_bond_site_symmetry_2
_ccdc_geom_bond_type
Er1     Ti2    9.999   .     S
Er1     Er3    10.0   .     S
Er1     V10    10.001   .     S
Ti2     Ce60    10.001   .     S
Ti2     Er3    9.999   .     S
Er3     V8    10.001   .     S
Er4     Ti5    9.999   .     S
Er4     Er6    10.0   .     S
Er4     V9    10.001   .     S
Ti5     Ce11    10.001   .     S
Ti5     Er6    9.999   .     S
Er6     V7    10.001   .     S
V7     V8    10.0   .     S
V7     V9    10.0   1_554     S
V8     V10    10.0   1_554     S
V9     V10    10.0   .     S
V9     V7    10.0   1_556     S
V10     V8    10.0   1_556     S
Ce11     Ce12    9.998   .     S
Ce11     Ce14    9.999   1_455     S
Ce12     Ce13    9.999   1_455     S
Ce12     Ti16    10.001   .     S
Ce13     Ce14    9.998   .     S
Ce13     Ce12    9.999   1_655     S
Ce13     Ti67    10.001   .     S
Ce14     Ce11    9.999   1_655     S
Ce14     Ti45    10.001   .     S
Er15     Ti16    9.999   .     S
Er15     Er17    10.0   .     S
Er15     V24    10.001   .     S
Ti16     Er17    9.999   .     S
Er17     V22    10.001   .     S
Er18     Ti19    9.999   .     S
Er18     Er20    10.0   .     S
Er18     V23    10.001   .     S
Ti19     Ce37    10.001   .     S
Ti19     Er20    9.999   .     S
Er20     V21    10.001   .     S
V21     V22    10.0   .     S
V21     V23    10.0   1_554     S
V22     V24    10.0   1_554     S
V23     V24    10.0   .     S
V23     V21    10.0   1_556     S
V24     V22    10.0   1_556     S
Er25     Ti26    9.999   .     S
Er25     Er27    10.0   .     S
Er25     V28    10.001   .     S
Ti26     Ce38    10.001   .     S
Ti26     Er27    9.999   .     S
Er27     V29    10.001   .     S
V28     V34    10.0   .     S
V28     V29    10.0   1_556     S
V29     V28    10.0   1_554     S
V29     V33    10.0   .     S
Ti30     Ce59    10.001   .     S
Ti30     Er31    9.999   .     S
Ti30     Er32    9.999   .     S
Er31     Er32    10.0   .     S
Er31     V34    10.001   .     S
Er32     V33    10.001   .     S
V33     V34    10.0   1_554     S
V34     V33    10.0   1_556     S
Ce35     Ce36    9.998   .     S
Ce35     Ce37    9.999   .     S
Ce35     Ti52    10.001   .     S
Ce36     Ce38    9.999   .     S
Ce36     Ti40    10.001   .     S
Ce37     Ce38    9.998   .     S
Er39     Ti40    9.999   .     S
Er39     Er41    10.0   .     S
Er39     V43    10.001   .     S
Ti40     Er41    9.999   .     S
Er41     V42    10.001   .     S
V42     V48    10.0   .     S
V42     V43    10.0   1_554     S
V43     V42    10.0   1_556     S
V43     V47    10.0   .     S
Er44     Ti45    9.999   .     S
Er44     Er46    10.0   .     S
Er44     V47    10.001   .     S
Ti45     Er46    9.999   .     S
Er46     V48    10.001   .     S
V47     V48    10.0   1_556     S
V48     V47    10.0   1_554     S
Er49     Ti50    9.999   .     S
Er49     Er51    10.0   .     S
Er49     V58    10.001   .     S
Ti50     Ce62    10.001   .     S
Ti50     Er51    9.999   .     S
Er51     V56    10.001   .     S
Ti52     Er53    9.999   .     S
Ti52     Er54    9.999   .     S
Er53     Er54    10.0   .     S
Er53     V57    10.001   .     S
Er54     V55    10.001   .     S
V55     V56    10.0   .     S
V55     V57    10.0   1_554     S
V56     V58    10.0   1_554     S
V57     V58    10.0   .     S
V57     V55    10.0   1_556     S
V58     V56    10.0   1_556     S
Ce59     Ce60    9.998   .     S
Ce59     Ce61    9.999   1_565     S
Ce60     Ce62    9.999   1_565     S
Ce61     Ce62    9.998   .     S
Ce61     Ce59    9.999   1_545     S
Ce61     Ti64    10.001   .     S
Ce62     Ce60    9.999   1_545     S
Er63     Ti64    9.999   .     S
Er63     Er65    10.0   .     S
Er63     V71    10.001   .     S
Ti64     Er65    9.999   .     S
Er65     V69    10.001   .     S
Er66     Ti67    9.999   .     S
Er66     Er68    10.0   .     S
Er66     V72    10.001   .     S
Ti67     Er68    9.999   .     S
Er68     V70    10.001   .     S
V69     V70    10.0   .     S
V69     V71    10.0   1_554     S
V70     V72    10.0   1_554     S
V71     V72    10.0   .     S
V71     V69    10.0   1_556     S
V72     V70    10.0   1_556     S
