data_dnsa
_audit_creation_date              2020-02-02
_audit_creation_method            'Pymatgen'
_symmetry_space_group_name_H-M    'P1'
_symmetry_Int_Tables_number       1
loop_
_symmetry_equiv_pos_as_xyz
  x,y,z
_cell_length_a                    60.6673
_cell_length_b                    60.6673
_cell_length_c                    60.6673
_cell_angle_alpha                 90.0
_cell_angle_beta                 90.0
_cell_angle_gamma                 90.0
loop_
_atom_site_label
_atom_site_type_symbol
_atom_site_fract_x
_atom_site_fract_y
_atom_site_fract_z
Ti1     Ti     0.1294   0.6945   0.8706
Ti2     Ti     0.1294   0.8706   0.6945
Ce3     Ce     0.0583   0.8252   0.9417
Ce4     Ce     0.0583   0.9417   0.8252
Ce5     Ce     0.1748   0.9417   0.9417
Ti6     Ti     0.3055   0.8706   0.8706
Ti7     Ti     0.6945   0.1294   0.8706
Ti8     Ti     0.8706   0.1294   0.6945
Ce9     Ce     0.8252   0.0583   0.9417
Ce10     Ce     0.9417   0.0583   0.8252
Ce11     Ce     0.9417   0.1748   0.9417
Ti12     Ti     0.8706   0.3055   0.8706
Ti13     Ti     0.8706   0.6945   0.1294
Ti14     Ti     0.6945   0.8706   0.1294
Ce15     Ce     0.8252   0.9417   0.0583
Ce16     Ce     0.9417   0.8252   0.0583
Ce17     Ce     0.9417   0.9417   0.1748
Ti18     Ti     0.8706   0.8706   0.3055
Er19     Er     0.7511   0.5811   0.1324
Er20     Er     0.5811   0.7511   0.1324
Er21     Er     0.4189   0.2489   0.1324
Er22     Er     0.2489   0.4189   0.1324
V23     V     0.5   0.6165   0.0824
V24     V     0.6165   0.5   0.0824
V25     V     0.3834   0.5   0.0824
V26     V     0.5   0.3834   0.0824
Er27     Er     0.4189   0.7511   0.8676
Er28     Er     0.7511   0.4189   0.8676
Er29     Er     0.5811   0.2489   0.8676
Er30     Er     0.2489   0.5811   0.8676
V31     V     0.5   0.6165   0.9176
V32     V     0.6165   0.5   0.9176
V33     V     0.3834   0.5   0.9176
V34     V     0.5   0.3834   0.9176
Er35     Er     0.5811   0.1324   0.7511
Er36     Er     0.7511   0.1324   0.5811
Er37     Er     0.4189   0.1324   0.2489
Er38     Er     0.2489   0.1324   0.4189
V39     V     0.5   0.0824   0.6165
V40     V     0.6165   0.0824   0.5
V41     V     0.3834   0.0824   0.5
V42     V     0.5   0.0824   0.3834
Er43     Er     0.4189   0.8676   0.7511
Er44     Er     0.7511   0.8676   0.4189
Er45     Er     0.5811   0.8676   0.2489
Er46     Er     0.2489   0.8676   0.5811
V47     V     0.5   0.9176   0.6165
V48     V     0.6165   0.9176   0.5
V49     V     0.3834   0.9176   0.5
V50     V     0.5   0.9176   0.3834
Er51     Er     0.1324   0.5811   0.7511
Er52     Er     0.1324   0.7511   0.5811
Er53     Er     0.1324   0.4189   0.2489
Er54     Er     0.1324   0.2489   0.4189
V55     V     0.0824   0.5   0.6165
V56     V     0.0824   0.6165   0.5
V57     V     0.0824   0.3834   0.5
V58     V     0.0824   0.5   0.3834
Er59     Er     0.8676   0.4189   0.7511
Er60     Er     0.8676   0.7511   0.4189
Er61     Er     0.8676   0.5811   0.2489
Er62     Er     0.8676   0.2489   0.5811
V63     V     0.9176   0.6165   0.5
V64     V     0.9176   0.5   0.6165
V65     V     0.9176   0.3834   0.5
V66     V     0.9176   0.5   0.3834
Ti67     Ti     0.1294   0.3055   0.1294
Ti68     Ti     0.3055   0.1294   0.1294
Ce69     Ce     0.0583   0.0583   0.1748
Ce70     Ce     0.0583   0.1748   0.0583
Ce71     Ce     0.1748   0.0583   0.0583
Ti72     Ti     0.1294   0.1294   0.3055
loop_
_geom_bond_atom_site_label_1
_geom_bond_atom_site_label_2
_geom_bond_distance
_geom_bond_site_symmetry_2
_ccdc_geom_bond_type
Ti1     Er30    10.0   .     S
Ti1     Er51    10.0   .     S
Ti1     Ce3    10.0   .     S
Ti2     Er46    10.0   .     S
Ti2     Er52    10.0   .     S
Ti2     Ce4    10.0   .     S
Ce3     Ce5    10.0   .     S
Ce3     Ce4    10.0   .     S
Ce3     Ce16    10.0   1_456     S
Ce4     Ce5    10.0   .     S
Ce4     Ce10    10.0   1_465     S
Ce5     Ti6    10.0   .     S
Ce5     Ce71    10.0   1_566     S
Ti6     Er43    10.0   .     S
Ti6     Er27    10.0   .     S
Ti7     Er29    10.0   .     S
Ti7     Er35    10.0   .     S
Ti7     Ce9    10.0   .     S
Ti8     Er62    10.0   .     S
Ti8     Er36    10.0   .     S
Ti8     Ce10    10.0   .     S
Ce9     Ce11    10.0   .     S
Ce9     Ce10    10.0   .     S
Ce9     Ce15    10.0   1_546     S
Ce10     Ce11    10.0   .     S
Ce10     Ce4    10.0   1_645     S
Ce11     Ti12    10.0   .     S
Ce11     Ce70    10.0   1_656     S
Ti12     Er59    10.0   .     S
Ti12     Er28    10.0   .     S
Ti13     Er61    10.0   .     S
Ti13     Er19    10.0   .     S
Ti13     Ce16    10.0   .     S
Ti14     Er45    10.0   .     S
Ti14     Er20    10.0   .     S
Ti14     Ce15    10.0   .     S
Ce15     Ce17    10.0   .     S
Ce15     Ce16    10.0   .     S
Ce15     Ce9    10.0   1_564     S
Ce16     Ce17    10.0   .     S
Ce16     Ce3    10.0   1_654     S
Ce17     Ti18    10.0   .     S
Ce17     Ce69    10.0   1_665     S
Ti18     Er60    10.0   .     S
Ti18     Er44    10.0   .     S
Er19     V24    10.0   .     S
Er19     Er61    10.0   .     S
Er20     V23    10.0   .     S
Er20     Er45    10.0   .     S
Er21     V26    10.0   .     S
Er21     Ti68    10.0   .     S
Er21     Er37    10.0   .     S
Er22     V25    10.0   .     S
Er22     Ti67    10.0   .     S
Er22     Er53    10.0   .     S
V23     V25    10.0   .     S
V23     V24    10.0   .     S
V23     V31    10.0   1_554     S
V24     V26    10.0   .     S
V24     V32    10.0   1_554     S
V25     V26    10.0   .     S
V25     V33    10.0   1_554     S
V26     V34    10.0   1_554     S
Er27     V31    10.0   .     S
Er27     Er43    10.0   .     S
Er28     V32    10.0   .     S
Er28     Er59    10.0   .     S
Er29     V34    10.0   .     S
Er29     Er35    10.0   .     S
Er30     V33    10.0   .     S
Er30     Er51    10.0   .     S
V31     V33    10.0   .     S
V31     V32    10.0   .     S
V31     V23    10.0   1_556     S
V32     V34    10.0   .     S
V32     V24    10.0   1_556     S
V33     V34    10.0   .     S
V33     V25    10.0   1_556     S
V34     V26    10.0   1_556     S
Er35     V39    10.0   .     S
Er36     V40    10.0   .     S
Er36     Er62    10.0   .     S
Er37     V42    10.0   .     S
Er37     Ti68    10.0   .     S
Er38     V41    10.0   .     S
Er38     Ti72    10.0   .     S
Er38     Er54    10.0   .     S
V39     V41    10.0   .     S
V39     V40    10.0   .     S
V39     V47    10.0   1_545     S
V40     V42    10.0   .     S
V40     V48    10.0   1_545     S
V41     V42    10.0   .     S
V41     V49    10.0   1_545     S
V42     V50    10.0   1_545     S
Er43     V47    10.0   .     S
Er44     V48    10.0   .     S
Er44     Er60    10.0   .     S
Er45     V50    10.0   .     S
Er46     V49    10.0   .     S
Er46     Er52    10.0   .     S
V47     V49    10.0   .     S
V47     V48    10.0   .     S
V47     V39    10.0   1_565     S
V48     V50    10.0   .     S
V48     V40    10.0   1_565     S
V49     V50    10.0   .     S
V49     V41    10.0   1_565     S
V50     V42    10.0   1_565     S
Er51     V55    10.0   .     S
Er52     V56    10.0   .     S
Er53     V58    10.0   .     S
Er53     Ti67    10.0   .     S
Er54     V57    10.0   .     S
Er54     Ti72    10.0   .     S
V55     V57    10.0   .     S
V55     V56    10.0   .     S
V55     V64    10.0   1_455     S
V56     V58    10.0   .     S
V56     V63    10.0   1_455     S
V57     V58    10.0   .     S
V57     V65    10.0   1_455     S
V58     V66    10.0   1_455     S
Er59     V64    10.0   .     S
Er60     V63    10.0   .     S
Er61     V66    10.0   .     S
Er62     V65    10.0   .     S
V63     V66    10.0   .     S
V63     V64    10.0   .     S
V63     V56    10.0   1_655     S
V64     V65    10.0   .     S
V64     V55    10.0   1_655     S
V65     V66    10.0   .     S
V65     V57    10.0   1_655     S
V66     V58    10.0   1_655     S
Ti67     Ce70    10.0   .     S
Ti68     Ce71    10.0   .     S
Ce69     Ce70    10.0   .     S
Ce69     Ce71    10.0   .     S
Ce69     Ti72    10.0   .     S
Ce69     Ce17    10.0   1_445     S
Ce70     Ce71    10.0   .     S
Ce70     Ce11    10.0   1_454     S
Ce71     Ce5    10.0   1_544     S
