data_dnw
_audit_creation_date              2020-02-02
_audit_creation_method            'Pymatgen'
_symmetry_space_group_name_H-M    'P1'
_symmetry_Int_Tables_number       1
loop_
_symmetry_equiv_pos_as_xyz
  x,y,z
_cell_length_a                    34.5627
_cell_length_b                    34.5627
_cell_length_c                    34.5627
_cell_angle_alpha                 90.0
_cell_angle_beta                 90.0
_cell_angle_gamma                 90.0
loop_
_atom_site_label
_atom_site_type_symbol
_atom_site_fract_x
_atom_site_fract_y
_atom_site_fract_z
V1     V     0.0   0.6457   0.0
V2     V     0.6457   0.0   0.0
V3     V     0.0   0.0   0.6457
V4     V     0.0   0.3544   0.0
V5     V     0.3544   0.0   0.0
V6     V     0.0   0.0   0.3544
Ti7     Ti     0.1181   0.1181   0.1181
Ti8     Ti     0.1181   0.8819   0.1181
Ti9     Ti     0.8819   0.1181   0.1181
Ti10     Ti     0.8819   0.8819   0.1181
Ti11     Ti     0.1181   0.8819   0.8819
Ti12     Ti     0.1181   0.1181   0.8819
Ti13     Ti     0.8819   0.1181   0.8819
Ti14     Ti     0.8819   0.8819   0.8819
V15     V     0.5   0.8544   0.5
V16     V     0.5   0.5   0.8544
V17     V     0.1456   0.5   0.5
V18     V     0.5   0.5   0.1456
V19     V     0.5   0.1456   0.5
Ti20     Ti     0.6181   0.3819   0.6181
Ti21     Ti     0.3819   0.3819   0.6181
Ti22     Ti     0.6181   0.3819   0.3819
Ti23     Ti     0.3819   0.3819   0.3819
Ti24     Ti     0.6181   0.6181   0.3819
Ti25     Ti     0.3819   0.6181   0.3819
Ti26     Ti     0.3819   0.6181   0.6181
V27     V     0.8544   0.5   0.5
Ti28     Ti     0.6181   0.6181   0.6181
Er29     Er     0.75   0.0   0.5
Er30     Er     0.0   0.75   0.5
Er31     Er     0.5   0.0   0.75
Er32     Er     0.0   0.5   0.75
Er33     Er     0.75   0.5   0.0
Er34     Er     0.5   0.75   0.0
Er35     Er     0.0   0.25   0.5
Er36     Er     0.25   0.0   0.5
Er37     Er     0.5   0.0   0.25
Er38     Er     0.0   0.5   0.25
Er39     Er     0.25   0.5   0.0
Er40     Er     0.5   0.25   0.0
loop_
_geom_bond_atom_site_label_1
_geom_bond_atom_site_label_2
_geom_bond_distance
_geom_bond_site_symmetry_2
_ccdc_geom_bond_type
V1     Ti8    10.0   .     S
V1     Ti11    10.0   1_554     S
V1     Ti14    10.0   1_454     S
V1     Ti10    10.0   1_455     S
V1     Er38    10.0   .     S
V1     Er39    10.0   .     S
V1     Er32    10.0   1_554     S
V1     Er33    10.0   1_455     S
V2     Ti10    10.0   1_545     S
V2     Ti14    10.0   1_544     S
V2     Ti13    10.0   1_554     S
V2     Ti9    10.0   .     S
V2     Er37    10.0   .     S
V2     Er40    10.0   .     S
V2     Er31    10.0   1_554     S
V2     Er34    10.0   1_545     S
V3     Ti11    10.0   1_545     S
V3     Ti12    10.0   .     S
V3     Ti13    10.0   1_455     S
V3     Ti14    10.0   1_445     S
V3     Er36    10.0   .     S
V3     Er35    10.0   .     S
V3     Er30    10.0   1_545     S
V3     Er29    10.0   1_455     S
V4     Ti9    10.0   1_455     S
V4     Ti7    10.0   .     S
V4     Ti12    10.0   1_554     S
V4     Ti13    10.0   1_454     S
V4     Er38    10.0   .     S
V4     Er39    10.0   .     S
V4     Er32    10.0   1_554     S
V4     Er33    10.0   1_455     S
V5     Ti7    10.0   .     S
V5     Ti12    10.0   1_554     S
V5     Ti11    10.0   1_544     S
V5     Ti8    10.0   1_545     S
V5     Er37    10.0   .     S
V5     Er40    10.0   .     S
V5     Er31    10.0   1_554     S
V5     Er34    10.0   1_545     S
V6     Ti7    10.0   .     S
V6     Ti9    10.0   1_455     S
V6     Ti10    10.0   1_445     S
V6     Ti8    10.0   1_545     S
V6     Er35    10.0   .     S
V6     Er36    10.0   .     S
V6     Er29    10.0   1_455     S
V6     Er30    10.0   1_545     S
Ti8     V5    10.0   1_565     S
Ti8     V6    10.0   1_565     S
Ti9     V4    10.0   1_655     S
Ti9     V6    10.0   1_655     S
Ti10     V1    10.0   1_655     S
Ti10     V2    10.0   1_565     S
Ti10     V6    10.0   1_665     S
Ti11     V1    10.0   1_556     S
Ti11     V3    10.0   1_565     S
Ti11     V5    10.0   1_566     S
Ti12     V4    10.0   1_556     S
Ti12     V5    10.0   1_556     S
Ti13     V2    10.0   1_556     S
Ti13     V3    10.0   1_655     S
Ti13     V4    10.0   1_656     S
Ti14     V1    10.0   1_656     S
Ti14     V2    10.0   1_566     S
Ti14     V3    10.0   1_665     S
V15     Ti26    10.0   .     S
V15     Ti28    10.0   .     S
V15     Ti24    10.0   .     S
V15     Ti25    10.0   .     S
V15     Er31    10.0   1_565     S
V15     Er37    10.0   1_565     S
V15     Er29    10.0   1_565     S
V15     Er36    10.0   1_565     S
V16     Ti28    10.0   .     S
V16     Ti26    10.0   .     S
V16     Ti21    10.0   .     S
V16     Ti20    10.0   .     S
V16     Er34    10.0   1_556     S
V16     Er39    10.0   1_556     S
V16     Er40    10.0   1_556     S
V16     Er33    10.0   1_556     S
V17     Ti21    10.0   .     S
V17     Ti23    10.0   .     S
V17     Ti25    10.0   .     S
V17     Ti26    10.0   .     S
V17     Er32    10.0   .     S
V17     Er38    10.0   .     S
V17     Er35    10.0   .     S
V17     Er30    10.0   .     S
V18     Ti22    10.0   .     S
V18     Ti24    10.0   .     S
V18     Ti25    10.0   .     S
V18     Ti23    10.0   .     S
V18     Er40    10.0   .     S
V18     Er33    10.0   .     S
V18     Er34    10.0   .     S
V18     Er39    10.0   .     S
V19     Ti20    10.0   .     S
V19     Ti22    10.0   .     S
V19     Ti23    10.0   .     S
V19     Ti21    10.0   .     S
V19     Er31    10.0   .     S
V19     Er37    10.0   .     S
V19     Er29    10.0   .     S
V19     Er36    10.0   .     S
Ti20     V27    10.0   .     S
Ti22     V27    10.0   .     S
Ti24     V27    10.0   .     S
V27     Ti28    10.0   .     S
V27     Er35    10.0   1_655     S
V27     Er32    10.0   1_655     S
V27     Er38    10.0   1_655     S
V27     Er30    10.0   1_655     S
Er29     V3    10.0   1_655     S
Er29     V6    10.0   1_655     S
Er29     V15    10.0   1_545     S
Er30     V3    10.0   1_565     S
Er30     V6    10.0   1_565     S
Er30     V27    10.0   1_455     S
Er31     V2    10.0   1_556     S
Er31     V5    10.0   1_556     S
Er31     V15    10.0   1_545     S
Er32     V1    10.0   1_556     S
Er32     V4    10.0   1_556     S
Er32     V27    10.0   1_455     S
Er33     V1    10.0   1_655     S
Er33     V4    10.0   1_655     S
Er33     V16    10.0   1_554     S
Er34     V2    10.0   1_565     S
Er34     V5    10.0   1_565     S
Er34     V16    10.0   1_554     S
Er35     V27    10.0   1_455     S
Er36     V15    10.0   1_545     S
Er37     V15    10.0   1_545     S
Er38     V27    10.0   1_455     S
Er39     V16    10.0   1_554     S
Er40     V16    10.0   1_554     S
