data_dnwa
_audit_creation_date              2020-02-02
_audit_creation_method            'Pymatgen'
_symmetry_space_group_name_H-M    'P1'
_symmetry_Int_Tables_number       1
loop_
_symmetry_equiv_pos_as_xyz
  x,y,z
_cell_length_a                    80.9113
_cell_length_b                    80.9113
_cell_length_c                    80.9113
_cell_angle_alpha                 90.0
_cell_angle_beta                 90.0
_cell_angle_gamma                 90.0
loop_
_atom_site_label
_atom_site_type_symbol
_atom_site_fract_x
_atom_site_fract_y
_atom_site_fract_z
Ti1     Ti     0.0618   0.5   0.7063
Ti2     Ti     0.9382   0.5   0.7063
Ti3     Ti     0.0   0.4382   0.7937
Ti4     Ti     0.0   0.5618   0.7937
Ti5     Ti     0.5   0.0618   0.7063
Ti6     Ti     0.5   0.9382   0.7063
Ti7     Ti     0.5618   0.0   0.7937
Ti8     Ti     0.4382   0.0   0.7937
Ti9     Ti     0.7063   0.0618   0.5
Ti10     Ti     0.7063   0.9382   0.5
Ti11     Ti     0.7937   0.0   0.4382
Ti12     Ti     0.7937   0.0   0.5618
Ti13     Ti     0.0618   0.7063   0.5
Ti14     Ti     0.9382   0.7063   0.5
Ti15     Ti     0.0   0.7937   0.5618
Ti16     Ti     0.0   0.7937   0.4382
Ti17     Ti     0.5   0.7063   0.0618
Ti18     Ti     0.5   0.7063   0.9382
Ti19     Ti     0.5618   0.7937   0.0
Ti20     Ti     0.4382   0.7937   0.0
Ti21     Ti     0.7063   0.5   0.0618
Ti22     Ti     0.7063   0.5   0.9382
Ti23     Ti     0.7937   0.4382   0.0
Ti24     Ti     0.7937   0.5618   0.0
Ce25     Ce     0.1996   0.8878   0.1122
Ce26     Ce     0.1996   0.1122   0.8878
Ce27     Ce     0.1996   0.1122   0.1122
Er28     Er     0.3006   0.9382   0.9382
Er29     Er     0.3006   0.0618   0.9382
Er30     Er     0.3006   0.0618   0.0618
Er31     Er     0.3006   0.9382   0.0618
Ce32     Ce     0.1996   0.8878   0.8878
V33     V     0.4045   0.9126   0.0
V34     V     0.4045   0.0   0.9126
V35     V     0.4045   0.0874   0.0
V36     V     0.4045   0.0   0.0874
Ce37     Ce     0.1122   0.1996   0.1122
Ce38     Ce     0.1122   0.1996   0.8878
Ce39     Ce     0.8878   0.1996   0.1122
Er40     Er     0.9382   0.3006   0.9382
Er41     Er     0.0618   0.3006   0.9382
Er42     Er     0.0618   0.3006   0.0618
Er43     Er     0.9382   0.3006   0.0618
Ce44     Ce     0.8878   0.1996   0.8878
V45     V     0.9126   0.4045   0.0
V46     V     0.0   0.4045   0.9126
V47     V     0.0874   0.4045   0.0
V48     V     0.0   0.4045   0.0874
Ce49     Ce     0.1122   0.8878   0.1996
Ce50     Ce     0.8878   0.1122   0.1996
Ce51     Ce     0.1122   0.1122   0.1996
Er52     Er     0.9382   0.9382   0.3006
Er53     Er     0.0618   0.9382   0.3006
Er54     Er     0.0618   0.0618   0.3006
Er55     Er     0.9382   0.0618   0.3006
Ce56     Ce     0.8878   0.8878   0.1996
V57     V     0.9126   0.0   0.4045
V58     V     0.0   0.9126   0.4045
V59     V     0.0874   0.0   0.4045
V60     V     0.0   0.0874   0.4045
Ce61     Ce     0.8878   0.8004   0.1122
Ce62     Ce     0.8878   0.8004   0.8878
Ce63     Ce     0.1122   0.8004   0.1122
Er64     Er     0.9382   0.6994   0.9382
Er65     Er     0.9382   0.6994   0.0618
Er66     Er     0.0618   0.6994   0.0618
Er67     Er     0.0618   0.6994   0.9382
Ce68     Ce     0.1122   0.8004   0.8878
V69     V     0.9126   0.5955   0.0
V70     V     0.0   0.5955   0.9126
V71     V     0.0874   0.5955   0.0
V72     V     0.0   0.5955   0.0874
Ce73     Ce     0.8878   0.1122   0.8004
Ce74     Ce     0.1122   0.1122   0.8004
Ce75     Ce     0.1122   0.8878   0.8004
Er76     Er     0.9382   0.9382   0.6994
Er77     Er     0.0618   0.9382   0.6994
Er78     Er     0.0618   0.0618   0.6994
Er79     Er     0.9382   0.0618   0.6994
Ce80     Ce     0.8878   0.8878   0.8004
V81     V     0.9126   0.0   0.5955
V82     V     0.0   0.9126   0.5955
V83     V     0.0874   0.0   0.5955
V84     V     0.0   0.0874   0.5955
Ce85     Ce     0.8004   0.8878   0.8878
Ce86     Ce     0.8004   0.1122   0.8878
Ce87     Ce     0.8004   0.8878   0.1122
Er88     Er     0.6994   0.9382   0.9382
Er89     Er     0.6994   0.9382   0.0618
Er90     Er     0.6994   0.0618   0.0618
Er91     Er     0.6994   0.0618   0.9382
Ce92     Ce     0.8004   0.1122   0.1122
V93     V     0.5955   0.9126   0.0
V94     V     0.5955   0.0   0.9126
V95     V     0.5955   0.0874   0.0
V96     V     0.5955   0.0   0.0874
Ti97     Ti     0.0   0.4382   0.2063
Ti98     Ti     0.0   0.5618   0.2063
Ti99     Ti     0.0618   0.5   0.2937
Ti100     Ti     0.9382   0.5   0.2937
Ti101     Ti     0.4382   0.0   0.2063
Ti102     Ti     0.5618   0.0   0.2063
Ti103     Ti     0.5   0.0618   0.2937
Ti104     Ti     0.5   0.9382   0.2937
Ti105     Ti     0.0   0.2063   0.4382
Ti106     Ti     0.0   0.2063   0.5618
Ti107     Ti     0.0618   0.2937   0.5
Ti108     Ti     0.9382   0.2937   0.5
Ti109     Ti     0.4382   0.2063   0.0
Ti110     Ti     0.5618   0.2063   0.0
Ti111     Ti     0.5   0.2937   0.0618
Ti112     Ti     0.5   0.2937   0.9382
Ti113     Ti     0.2063   0.4382   0.0
Ti114     Ti     0.2063   0.5618   0.0
Ti115     Ti     0.2937   0.5   0.0618
Ti116     Ti     0.2937   0.5   0.9382
Ti117     Ti     0.2063   0.0   0.4382
Ti118     Ti     0.2063   0.0   0.5618
Ti119     Ti     0.2937   0.0618   0.5
Ti120     Ti     0.2937   0.9382   0.5
Ce121     Ce     0.3878   0.3878   0.3004
Ce122     Ce     0.3878   0.6122   0.3004
Ce123     Ce     0.6122   0.3878   0.3004
Er124     Er     0.5618   0.5618   0.1994
Er125     Er     0.4382   0.5618   0.1994
Er126     Er     0.5618   0.4382   0.1994
Er127     Er     0.4382   0.4382   0.1994
Ce128     Ce     0.6122   0.6122   0.3004
V129     V     0.5874   0.5   0.0955
V130     V     0.5   0.5874   0.0955
V131     V     0.4126   0.5   0.0955
V132     V     0.5   0.4126   0.0955
Ce133     Ce     0.6122   0.3004   0.3878
Ce134     Ce     0.3878   0.3004   0.3878
Ce135     Ce     0.6122   0.3004   0.6122
Er136     Er     0.5618   0.1994   0.5618
Er137     Er     0.4382   0.1994   0.5618
Er138     Er     0.5618   0.1994   0.4382
Er139     Er     0.4382   0.1994   0.4382
Ce140     Ce     0.3878   0.3004   0.6122
V141     V     0.5874   0.0955   0.5
V142     V     0.5   0.0955   0.5874
V143     V     0.4126   0.0955   0.5
V144     V     0.5   0.0955   0.4126
Ce145     Ce     0.6996   0.6122   0.3878
Ce146     Ce     0.6996   0.3878   0.3878
Ce147     Ce     0.6996   0.6122   0.6122
Er148     Er     0.8006   0.5618   0.5618
Er149     Er     0.8006   0.5618   0.4382
Er150     Er     0.8006   0.4382   0.5618
Er151     Er     0.8006   0.4382   0.4382
Ce152     Ce     0.6996   0.3878   0.6122
V153     V     0.9045   0.5874   0.5
V154     V     0.9045   0.5   0.5874
V155     V     0.9045   0.4126   0.5
V156     V     0.9045   0.5   0.4126
Ce157     Ce     0.6122   0.3878   0.6996
Ce158     Ce     0.3878   0.3878   0.6996
Ce159     Ce     0.3878   0.6122   0.6996
Er160     Er     0.5618   0.5618   0.8006
Er161     Er     0.4382   0.5618   0.8006
Er162     Er     0.5618   0.4382   0.8006
Er163     Er     0.4382   0.4382   0.8006
Ce164     Ce     0.6122   0.6122   0.6996
V165     V     0.5874   0.5   0.9045
V166     V     0.5   0.5874   0.9045
V167     V     0.4126   0.5   0.9045
V168     V     0.5   0.4126   0.9045
Ce169     Ce     0.3878   0.6996   0.3878
Ce170     Ce     0.6122   0.6996   0.6122
Ce171     Ce     0.6122   0.6996   0.3878
Er172     Er     0.5618   0.8006   0.5618
Er173     Er     0.5618   0.8006   0.4382
Er174     Er     0.4382   0.8006   0.5618
Er175     Er     0.4382   0.8006   0.4382
Ce176     Ce     0.3878   0.6996   0.6122
V177     V     0.5874   0.9045   0.5
V178     V     0.5   0.9045   0.5874
V179     V     0.4126   0.9045   0.5
V180     V     0.5   0.9045   0.4126
Ce181     Ce     0.3004   0.3878   0.3878
Ce182     Ce     0.3004   0.6122   0.3878
Ce183     Ce     0.3004   0.3878   0.6122
Er184     Er     0.1994   0.5618   0.5618
Er185     Er     0.1994   0.4382   0.5618
Er186     Er     0.1994   0.5618   0.4382
Er187     Er     0.1994   0.4382   0.4382
Ce188     Ce     0.3004   0.6122   0.6122
V189     V     0.0955   0.5874   0.5
V190     V     0.0955   0.5   0.5874
V191     V     0.0955   0.4126   0.5
V192     V     0.0955   0.5   0.4126
loop_
_geom_bond_atom_site_label_1
_geom_bond_atom_site_label_2
_geom_bond_distance
_geom_bond_site_symmetry_2
_ccdc_geom_bond_type
Ti1     Ti2    9.999   1_455     S
Ti1     V190    10.001   .     S
Ti1     Ti3    10.0   .     S
Ti1     Ti4    10.0   .     S
Ti2     Ti1    9.999   1_655     S
Ti2     V154    10.001   .     S
Ti2     Ti4    10.0   1_655     S
Ti2     Ti3    10.0   1_655     S
Ti3     Ti4    9.999   .     S
Ti3     V46    10.001   .     S
Ti3     Ti2    10.0   1_455     S
Ti4     V70    10.001   .     S
Ti4     Ti2    10.0   1_455     S
Ti5     Ti6    9.999   1_545     S
Ti5     V142    10.001   .     S
Ti5     Ti7    10.0   .     S
Ti5     Ti8    10.0   .     S
Ti6     Ti5    9.999   1_565     S
Ti6     V178    10.001   .     S
Ti6     Ti8    10.0   1_565     S
Ti6     Ti7    10.0   1_565     S
Ti7     Ti8    9.999   .     S
Ti7     V94    10.001   .     S
Ti7     Ti6    10.0   1_545     S
Ti8     V34    10.001   .     S
Ti8     Ti6    10.0   1_545     S
Ti9     Ti10    9.999   1_545     S
Ti9     V141    10.001   .     S
Ti9     Ti11    10.0   .     S
Ti9     Ti12    10.0   .     S
Ti10     Ti9    9.999   1_565     S
Ti10     V177    10.001   .     S
Ti10     Ti12    10.0   1_565     S
Ti10     Ti11    10.0   1_565     S
Ti11     Ti12    9.999   .     S
Ti11     V57    10.001   .     S
Ti11     Ti10    10.0   1_545     S
Ti12     V81    10.001   .     S
Ti12     Ti10    10.0   1_545     S
Ti13     Ti14    9.999   1_455     S
Ti13     V189    10.001   .     S
Ti13     Ti15    10.0   .     S
Ti13     Ti16    10.0   .     S
Ti14     Ti13    9.999   1_655     S
Ti14     V153    10.001   .     S
Ti14     Ti16    10.0   1_655     S
Ti14     Ti15    10.0   1_655     S
Ti15     Ti16    9.999   .     S
Ti15     V82    10.001   .     S
Ti15     Ti14    10.0   1_455     S
Ti16     V58    10.001   .     S
Ti16     Ti14    10.0   1_455     S
Ti17     Ti18    9.999   1_554     S
Ti17     V130    10.001   .     S
Ti17     Ti20    10.0   .     S
Ti17     Ti19    10.0   .     S
Ti18     Ti17    9.999   1_556     S
Ti18     V166    10.001   .     S
Ti18     Ti19    10.0   1_556     S
Ti18     Ti20    10.0   1_556     S
Ti19     Ti20    9.999   .     S
Ti19     V93    10.001   .     S
Ti19     Ti18    10.0   1_554     S
Ti20     V33    10.001   .     S
Ti20     Ti18    10.0   1_554     S
Ti21     Ti22    9.999   1_554     S
Ti21     V129    10.001   .     S
Ti21     Ti24    10.0   .     S
Ti21     Ti23    10.0   .     S
Ti22     Ti21    9.999   1_556     S
Ti22     V165    10.001   .     S
Ti22     Ti23    10.0   1_556     S
Ti22     Ti24    10.0   1_556     S
Ti23     Ti24    9.999   .     S
Ti23     V45    10.001   .     S
Ti23     Ti22    10.0   1_554     S
Ti24     V69    10.001   .     S
Ti24     Ti22    10.0   1_554     S
Ce25     Er31    9.999   .     S
Ce25     Ce49    10.001   .     S
Ce25     Ce63    10.001   .     S
Ce26     Er29    9.999   .     S
Ce26     Ce74    10.001   .     S
Ce26     Ce38    10.001   .     S
Ce27     Ce51    10.001   .     S
Ce27     Ce37    10.001   .     S
Ce27     Er30    9.999   .     S
Er28     V33    9.999   1_556     S
Er28     V34    9.999   1_565     S
Er28     Er29    10.001   1_565     S
Er28     Er31    10.001   1_556     S
Er28     Ce32    9.999   .     S
Er29     V34    9.999   .     S
Er29     V35    9.999   1_556     S
Er29     Er28    10.001   1_545     S
Er29     Er30    10.001   1_556     S
Er30     V35    9.999   .     S
Er30     V36    9.999   .     S
Er30     Er31    10.001   1_545     S
Er30     Er29    10.001   1_554     S
Er31     Er30    10.001   1_565     S
Er31     V36    9.999   1_565     S
Er31     V33    9.999   .     S
Er31     Er28    10.001   1_554     S
Ce32     Ce75    10.001   .     S
Ce32     Ce68    10.001   .     S
V33     Er28    9.999   1_554     S
V33     V34    10.0   1_564     S
V33     V36    10.0   1_565     S
V34     Er28    9.999   1_545     S
V34     V33    10.0   1_546     S
V34     V35    10.0   1_556     S
V35     Er29    9.999   1_554     S
V35     V34    10.0   1_554     S
V35     V36    10.0   .     S
V35     Ti109    10.001   .     S
V36     Er31    9.999   1_545     S
V36     V33    10.0   1_545     S
V36     Ti101    10.001   .     S
Ce37     Ce51    10.001   .     S
Ce37     Er42    9.999   .     S
Ce38     Er41    9.999   .     S
Ce38     Ce74    10.001   .     S
Ce39     Er43    9.999   .     S
Ce39     Ce50    10.001   .     S
Ce39     Ce92    10.001   .     S
Er40     V46    9.999   1_655     S
Er40     V45    9.999   1_556     S
Er40     Er41    10.001   1_655     S
Er40     Er43    10.001   1_556     S
Er40     Ce44    9.999   .     S
Er41     V47    9.999   1_556     S
Er41     V46    9.999   .     S
Er41     Er40    10.001   1_455     S
Er41     Er42    10.001   1_556     S
Er42     V48    9.999   .     S
Er42     V47    9.999   .     S
Er42     Er43    10.001   1_455     S
Er42     Er41    10.001   1_554     S
Er43     Er42    10.001   1_655     S
Er43     V45    9.999   .     S
Er43     V48    9.999   1_655     S
Er43     Er40    10.001   1_554     S
Ce44     Ce73    10.001   .     S
Ce44     Ce86    10.001   .     S
V45     Er40    9.999   1_554     S
V45     V46    10.0   1_654     S
V45     V48    10.0   1_655     S
V46     Er40    9.999   1_455     S
V46     V45    10.0   1_456     S
V46     V47    10.0   1_556     S
V47     Er41    9.999   1_554     S
V47     V46    10.0   1_554     S
V47     V48    10.0   .     S
V47     Ti113    10.001   .     S
V48     Er43    9.999   1_455     S
V48     V45    10.0   1_455     S
V48     Ti97    10.001   .     S
Ce49     Er53    9.999   .     S
Ce49     Ce63    10.001   .     S
Ce50     Er55    9.999   .     S
Ce50     Ce92    10.001   .     S
Ce51     Er54    9.999   .     S
Er52     V57    9.999   1_565     S
Er52     V58    9.999   1_655     S
Er52     Er53    10.001   1_655     S
Er52     Er55    10.001   1_565     S
Er52     Ce56    9.999   .     S
Er53     V58    9.999   .     S
Er53     V59    9.999   1_565     S
Er53     Er52    10.001   1_455     S
Er53     Er54    10.001   1_565     S
Er54     V59    9.999   .     S
Er54     V60    9.999   .     S
Er54     Er53    10.001   1_545     S
Er54     Er55    10.001   1_455     S
Er55     Er54    10.001   1_655     S
Er55     V60    9.999   1_655     S
Er55     V57    9.999   .     S
Er55     Er52    10.001   1_545     S
Ce56     Ce61    10.001   .     S
Ce56     Ce87    10.001   .     S
V57     Er52    9.999   1_545     S
V57     V58    10.0   1_645     S
V57     V60    10.0   1_655     S
V58     Er52    9.999   1_455     S
V58     V57    10.0   1_465     S
V58     V59    10.0   1_565     S
V59     Er53    9.999   1_545     S
V59     V58    10.0   1_545     S
V59     V60    10.0   .     S
V59     Ti117    10.001   .     S
V60     Er55    9.999   1_455     S
V60     V57    10.0   1_455     S
V60     Ti105    10.001   .     S
Ce61     Er65    9.999   .     S
Ce61     Ce87    10.001   .     S
Ce62     Er64    9.999   .     S
Ce62     Ce80    10.001   .     S
Ce62     Ce85    10.001   .     S
Ce63     Er66    9.999   .     S
Er64     V69    9.999   1_556     S
Er64     V70    9.999   1_655     S
Er64     Er65    10.001   1_556     S
Er64     Er67    10.001   1_655     S
Er65     V72    9.999   1_655     S
Er65     V69    9.999   .     S
Er65     Er64    10.001   1_554     S
Er65     Er66    10.001   1_655     S
Er66     V71    9.999   .     S
Er66     V72    9.999   .     S
Er66     Er67    10.001   1_554     S
Er66     Er65    10.001   1_455     S
Er67     Er66    10.001   1_556     S
Er67     V70    9.999   .     S
Er67     V71    9.999   1_556     S
Er67     Er64    10.001   1_455     S
Er67     Ce68    9.999   .     S
Ce68     Ce75    10.001   .     S
V69     Er64    9.999   1_554     S
V69     V70    10.0   1_654     S
V69     V72    10.0   1_655     S
V70     Er64    9.999   1_455     S
V70     V69    10.0   1_456     S
V70     V71    10.0   1_556     S
V71     V72    10.0   .     S
V71     Er67    9.999   1_554     S
V71     V70    10.0   1_554     S
V71     Ti114    10.001   .     S
V72     Er65    9.999   1_455     S
V72     V69    10.0   1_455     S
V72     Ti98    10.001   .     S
Ce73     Er79    9.999   .     S
Ce73     Ce86    10.001   .     S
Ce74     Er78    9.999   .     S
Ce75     Er77    9.999   .     S
Er76     V82    9.999   1_655     S
Er76     V81    9.999   1_565     S
Er76     Er77    10.001   1_655     S
Er76     Er79    10.001   1_565     S
Er76     Ce80    9.999   .     S
Er77     V83    9.999   1_565     S
Er77     V82    9.999   .     S
Er77     Er76    10.001   1_455     S
Er77     Er78    10.001   1_565     S
Er78     V84    9.999   .     S
Er78     V83    9.999   .     S
Er78     Er79    10.001   1_455     S
Er78     Er77    10.001   1_545     S
Er79     Er78    10.001   1_655     S
Er79     V81    9.999   .     S
Er79     V84    9.999   1_655     S
Er79     Er76    10.001   1_545     S
Ce80     Ce85    10.001   .     S
V81     Er76    9.999   1_545     S
V81     V82    10.0   1_645     S
V81     V84    10.0   1_655     S
V82     Er76    9.999   1_455     S
V82     V81    10.0   1_465     S
V82     V83    10.0   1_565     S
V83     Er77    9.999   1_545     S
V83     V82    10.0   1_545     S
V83     V84    10.0   .     S
V83     Ti118    10.001   .     S
V84     Er79    9.999   1_455     S
V84     V81    10.0   1_455     S
V84     Ti106    10.001   .     S
Ce85     Er88    9.999   .     S
Ce86     Er91    9.999   .     S
Ce87     Er89    9.999   .     S
Er88     V94    9.999   1_565     S
Er88     V93    9.999   1_556     S
Er88     Er89    10.001   1_556     S
Er88     Er91    10.001   1_565     S
Er89     V93    9.999   .     S
Er89     V96    9.999   1_565     S
Er89     Er88    10.001   1_554     S
Er89     Er90    10.001   1_565     S
Er90     V96    9.999   .     S
Er90     V95    9.999   .     S
Er90     Er91    10.001   1_554     S
Er90     Er89    10.001   1_545     S
Er90     Ce92    9.999   .     S
Er91     Er90    10.001   1_556     S
Er91     V95    9.999   1_556     S
Er91     V94    9.999   .     S
Er91     Er88    10.001   1_545     S
V93     Er88    9.999   1_554     S
V93     V94    10.0   1_564     S
V93     V96    10.0   1_565     S
V94     Er88    9.999   1_545     S
V94     V93    10.0   1_546     S
V94     V95    10.0   1_556     S
V95     V96    10.0   .     S
V95     Er91    9.999   1_554     S
V95     V94    10.0   1_554     S
V95     Ti110    10.001   .     S
V96     Er89    9.999   1_545     S
V96     V93    10.0   1_545     S
V96     Ti102    10.001   .     S
Ti97     Ti98    9.999   .     S
Ti97     Ti99    10.0   .     S
Ti97     Ti100    10.0   1_455     S
Ti98     Ti99    10.0   .     S
Ti98     Ti100    10.0   1_455     S
Ti99     Ti100    9.999   1_455     S
Ti99     V192    10.001   .     S
Ti100     Ti99    9.999   1_655     S
Ti100     V156    10.001   .     S
Ti100     Ti97    10.0   1_655     S
Ti100     Ti98    10.0   1_655     S
Ti101     Ti102    9.999   .     S
Ti101     Ti103    10.0   .     S
Ti101     Ti104    10.0   1_545     S
Ti102     Ti103    10.0   .     S
Ti102     Ti104    10.0   1_545     S
Ti103     Ti104    9.999   1_545     S
Ti103     V144    10.001   .     S
Ti104     Ti103    9.999   1_565     S
Ti104     V180    10.001   .     S
Ti104     Ti102    10.0   1_565     S
Ti104     Ti101    10.0   1_565     S
Ti105     Ti106    9.999   .     S
Ti105     Ti107    10.0   .     S
Ti105     Ti108    10.0   1_455     S
Ti106     Ti108    10.0   1_455     S
Ti106     Ti107    10.0   .     S
Ti107     Ti108    9.999   1_455     S
Ti107     V191    10.001   .     S
Ti108     Ti107    9.999   1_655     S
Ti108     V155    10.001   .     S
Ti108     Ti106    10.0   1_655     S
Ti108     Ti105    10.0   1_655     S
Ti109     Ti110    9.999   .     S
Ti109     Ti111    10.0   .     S
Ti109     Ti112    10.0   1_554     S
Ti110     Ti111    10.0   .     S
Ti110     Ti112    10.0   1_554     S
Ti111     Ti112    9.999   1_554     S
Ti111     V132    10.001   .     S
Ti112     Ti111    9.999   1_556     S
Ti112     V168    10.001   .     S
Ti112     Ti109    10.0   1_556     S
Ti112     Ti110    10.0   1_556     S
Ti113     Ti114    9.999   .     S
Ti113     Ti115    10.0   .     S
Ti113     Ti116    10.0   1_554     S
Ti114     Ti115    10.0   .     S
Ti114     Ti116    10.0   1_554     S
Ti115     Ti116    9.999   1_554     S
Ti115     V131    10.001   .     S
Ti116     Ti115    9.999   1_556     S
Ti116     V167    10.001   .     S
Ti116     Ti114    10.0   1_556     S
Ti116     Ti113    10.0   1_556     S
Ti117     Ti118    9.999   .     S
Ti117     Ti120    10.0   1_545     S
Ti117     Ti119    10.0   .     S
Ti118     Ti119    10.0   .     S
Ti118     Ti120    10.0   1_545     S
Ti119     Ti120    9.999   1_545     S
Ti119     V143    10.001   .     S
Ti120     Ti119    9.999   1_565     S
Ti120     V179    10.001   .     S
Ti120     Ti117    10.0   1_565     S
Ti120     Ti118    10.0   1_565     S
Ce121     Er127    9.999   .     S
Ce121     Ce181    10.001   .     S
Ce121     Ce134    10.001   .     S
Ce122     Er125    9.999   .     S
Ce122     Ce169    10.001   .     S
Ce122     Ce182    10.001   .     S
Ce123     Er126    9.999   .     S
Ce123     Ce146    10.001   .     S
Ce123     Ce133    10.001   .     S
Er124     V130    9.999   .     S
Er124     V129    9.999   .     S
Er124     Er125    10.001   .     S
Er124     Er126    10.001   .     S
Er124     Ce128    9.999   .     S
Er125     V131    9.999   .     S
Er125     V130    9.999   .     S
Er125     Er127    10.001   .     S
Er126     Er127    10.001   .     S
Er126     V129    9.999   .     S
Er126     V132    9.999   .     S
Er127     V132    9.999   .     S
Er127     V131    9.999   .     S
Ce128     Ce145    10.001   .     S
Ce128     Ce171    10.001   .     S
V129     V130    10.0   .     S
V129     V132    10.0   .     S
V130     V131    10.0   .     S
V131     V132    10.0   .     S
Ce133     Er138    9.999   .     S
Ce133     Ce146    10.001   .     S
Ce134     Er139    9.999   .     S
Ce134     Ce181    10.001   .     S
Ce135     Ce157    10.001   .     S
Ce135     Ce152    10.001   .     S
Ce135     Er136    9.999   .     S
Er136     V141    9.999   .     S
Er136     V142    9.999   .     S
Er136     Er137    10.001   .     S
Er136     Er138    10.001   .     S
Er137     V142    9.999   .     S
Er137     V143    9.999   .     S
Er137     Er139    10.001   .     S
Er137     Ce140    9.999   .     S
Er138     V144    9.999   .     S
Er138     V141    9.999   .     S
Er138     Er139    10.001   .     S
Er139     V143    9.999   .     S
Er139     V144    9.999   .     S
Ce140     Ce158    10.001   .     S
Ce140     Ce183    10.001   .     S
V141     V142    10.0   .     S
V141     V144    10.0   .     S
V142     V143    10.0   .     S
V143     V144    10.0   .     S
Ce145     Er149    9.999   .     S
Ce145     Ce171    10.001   .     S
Ce146     Er151    9.999   .     S
Ce147     Er148    9.999   .     S
Ce147     Ce164    10.001   .     S
Ce147     Ce170    10.001   .     S
Er148     V153    9.999   .     S
Er148     V154    9.999   .     S
Er148     Er149    10.001   .     S
Er148     Er150    10.001   .     S
Er149     V156    9.999   .     S
Er149     V153    9.999   .     S
Er149     Er151    10.001   .     S
Er150     Er151    10.001   .     S
Er150     V154    9.999   .     S
Er150     V155    9.999   .     S
Er150     Ce152    9.999   .     S
Er151     V155    9.999   .     S
Er151     V156    9.999   .     S
Ce152     Ce157    10.001   .     S
V153     V154    10.0   .     S
V153     V156    10.0   .     S
V154     V155    10.0   .     S
V155     V156    10.0   .     S
Ce157     Er162    9.999   .     S
Ce158     Er163    9.999   .     S
Ce158     Ce183    10.001   .     S
Ce159     Er161    9.999   .     S
Ce159     Ce176    10.001   .     S
Ce159     Ce188    10.001   .     S
Er160     V165    9.999   .     S
Er160     V166    9.999   .     S
Er160     Er161    10.001   .     S
Er160     Er162    10.001   .     S
Er160     Ce164    9.999   .     S
Er161     V166    9.999   .     S
Er161     V167    9.999   .     S
Er161     Er163    10.001   .     S
Er162     Er163    10.001   .     S
Er162     V168    9.999   .     S
Er162     V165    9.999   .     S
Er163     V167    9.999   .     S
Er163     V168    9.999   .     S
Ce164     Ce170    10.001   .     S
V165     V166    10.0   .     S
V165     V168    10.0   .     S
V166     V167    10.0   .     S
V167     V168    10.0   .     S
Ce169     Er175    9.999   .     S
Ce169     Ce182    10.001   .     S
Ce170     Er172    9.999   .     S
Ce171     Er173    9.999   .     S
Er172     V178    9.999   .     S
Er172     V177    9.999   .     S
Er172     Er173    10.001   .     S
Er172     Er174    10.001   .     S
Er173     V177    9.999   .     S
Er173     V180    9.999   .     S
Er173     Er175    10.001   .     S
Er174     V179    9.999   .     S
Er174     V178    9.999   .     S
Er174     Er175    10.001   .     S
Er174     Ce176    9.999   .     S
Er175     V180    9.999   .     S
Er175     V179    9.999   .     S
Ce176     Ce188    10.001   .     S
V177     V178    10.0   .     S
V177     V180    10.0   .     S
V178     V179    10.0   .     S
V179     V180    10.0   .     S
Ce181     Er187    9.999   .     S
Ce182     Er186    9.999   .     S
Ce183     Er185    9.999   .     S
Er184     V190    9.999   .     S
Er184     V189    9.999   .     S
Er184     Er185    10.001   .     S
Er184     Er186    10.001   .     S
Er184     Ce188    9.999   .     S
Er185     V191    9.999   .     S
Er185     V190    9.999   .     S
Er185     Er187    10.001   .     S
Er186     Er187    10.001   .     S
Er186     V189    9.999   .     S
Er186     V192    9.999   .     S
Er187     V192    9.999   .     S
Er187     V191    9.999   .     S
V189     V190    10.0   .     S
V189     V192    10.0   .     S
V190     V191    10.0   .     S
V191     V192    10.0   .     S
