data_dnx
_audit_creation_date              2020-02-02
_audit_creation_method            'Pymatgen'
_symmetry_space_group_name_H-M    'P1'
_symmetry_Int_Tables_number       1
loop_
_symmetry_equiv_pos_as_xyz
  x,y,z
_cell_length_a                    44.3607
_cell_length_b                    44.3607
_cell_length_c                    44.3607
_cell_angle_alpha                 90.0
_cell_angle_beta                 90.0
_cell_angle_gamma                 90.0
loop_
_atom_site_label
_atom_site_type_symbol
_atom_site_fract_x
_atom_site_fract_y
_atom_site_fract_z
V1     V     0.25   0.5   0.0
Er2     Er     0.2239   0.5   0.7761
V3     V     0.75   0.5   0.0
Er4     Er     0.7761   0.5   0.7761
V5     V     0.0   0.5   0.75
V6     V     0.0   0.5   0.25
Er7     Er     0.7761   0.5   0.2239
Er8     Er     0.2239   0.5   0.2239
V9     V     0.5   0.75   0.0
Er10     Er     0.5   0.7761   0.7761
V11     V     0.5   0.0   0.75
V12     V     0.5   0.25   0.0
Er13     Er     0.5   0.2239   0.7761
V14     V     0.5   0.0   0.25
Er15     Er     0.5   0.7761   0.2239
Er16     Er     0.5   0.2239   0.2239
V17     V     0.25   0.0   0.5
Er18     Er     0.2239   0.7761   0.5
V19     V     0.75   0.0   0.5
Er20     Er     0.7761   0.7761   0.5
V21     V     0.0   0.75   0.5
V22     V     0.0   0.25   0.5
Er23     Er     0.7761   0.2239   0.5
Er24     Er     0.2239   0.2239   0.5
Er25     Er     0.0   0.2761   0.2761
Er26     Er     0.7239   0.0   0.2761
Er27     Er     0.0   0.7239   0.2761
Er28     Er     0.2761   0.0   0.2761
Er29     Er     0.0   0.7239   0.7239
Er30     Er     0.2761   0.0   0.7239
Er31     Er     0.0   0.2761   0.7239
Er32     Er     0.7239   0.0   0.7239
Er33     Er     0.2761   0.2761   0.0
Er34     Er     0.2761   0.7239   0.0
Er35     Er     0.7239   0.2761   0.0
Er36     Er     0.7239   0.7239   0.0
Ti37     Ti     0.8159   0.1841   0.1841
Ti38     Ti     0.1841   0.8159   0.1841
Ti39     Ti     0.1841   0.1841   0.8159
Ti40     Ti     0.8159   0.8159   0.1841
Ti41     Ti     0.1841   0.8159   0.8159
Ti42     Ti     0.8159   0.1841   0.8159
Ti43     Ti     0.8159   0.8159   0.8159
Ti44     Ti     0.1841   0.1841   0.1841
Ti45     Ti     0.3159   0.3159   0.6841
Ti46     Ti     0.6841   0.3159   0.3159
Ti47     Ti     0.3159   0.6841   0.3159
Ti48     Ti     0.3159   0.3159   0.3159
Ti49     Ti     0.3159   0.6841   0.6841
Ti50     Ti     0.6841   0.3159   0.6841
Ti51     Ti     0.6841   0.6841   0.3159
Ti52     Ti     0.6841   0.6841   0.6841
loop_
_geom_bond_atom_site_label_1
_geom_bond_atom_site_label_2
_geom_bond_distance
_geom_bond_site_symmetry_2
_ccdc_geom_bond_type
V1     Er2    9.999   1_554     S
V1     Er33    9.999   .     S
V1     Er34    9.999   .     S
V1     Er8    9.999   .     S
Er2     V1    9.999   1_556     S
Er2     V5    9.999   .     S
Er2     Ti49    10.001   .     S
Er2     Ti45    10.001   .     S
V3     Er35    9.999   .     S
V3     Er36    9.999   .     S
V3     Er4    9.999   1_554     S
V3     Er7    9.999   .     S
Er4     V3    9.999   1_556     S
Er4     V5    9.999   1_655     S
Er4     Ti52    10.001   .     S
Er4     Ti50    10.001   .     S
V5     Er4    9.999   1_455     S
V5     Er31    9.999   .     S
V5     Er29    9.999   .     S
V6     Er7    9.999   1_455     S
V6     Er25    9.999   .     S
V6     Er27    9.999   .     S
V6     Er8    9.999   .     S
Er7     V6    9.999   1_655     S
Er7     Ti51    10.001   .     S
Er7     Ti46    10.001   .     S
Er8     Ti47    10.001   .     S
Er8     Ti48    10.001   .     S
V9     Er36    9.999   .     S
V9     Er34    9.999   .     S
V9     Er10    9.999   1_554     S
V9     Er15    9.999   .     S
Er10     V9    9.999   1_556     S
Er10     V11    9.999   1_565     S
Er10     Ti52    10.001   .     S
Er10     Ti49    10.001   .     S
V11     Er10    9.999   1_545     S
V11     Er30    9.999   .     S
V11     Er32    9.999   .     S
V11     Er13    9.999   .     S
V12     Er13    9.999   1_554     S
V12     Er33    9.999   .     S
V12     Er35    9.999   .     S
V12     Er16    9.999   .     S
Er13     V12    9.999   1_556     S
Er13     Ti50    10.001   .     S
Er13     Ti45    10.001   .     S
V14     Er15    9.999   1_545     S
V14     Er28    9.999   .     S
V14     Er26    9.999   .     S
V14     Er16    9.999   .     S
Er15     V14    9.999   1_565     S
Er15     Ti51    10.001   .     S
Er15     Ti47    10.001   .     S
Er16     Ti46    10.001   .     S
Er16     Ti48    10.001   .     S
V17     Er18    9.999   1_545     S
V17     Er28    9.999   .     S
V17     Er30    9.999   .     S
V17     Er24    9.999   .     S
Er18     V17    9.999   1_565     S
Er18     V21    9.999   .     S
Er18     Ti49    10.001   .     S
Er18     Ti47    10.001   .     S
V19     Er26    9.999   .     S
V19     Er32    9.999   .     S
V19     Er20    9.999   1_545     S
V19     Er23    9.999   .     S
Er20     V19    9.999   1_565     S
Er20     V21    9.999   1_655     S
Er20     Ti52    10.001   .     S
Er20     Ti51    10.001   .     S
V21     Er20    9.999   1_455     S
V21     Er27    9.999   .     S
V21     Er29    9.999   .     S
V22     Er23    9.999   1_455     S
V22     Er25    9.999   .     S
V22     Er31    9.999   .     S
V22     Er24    9.999   .     S
Er23     V22    9.999   1_655     S
Er23     Ti50    10.001   .     S
Er23     Ti46    10.001   .     S
Er24     Ti45    10.001   .     S
Er24     Ti48    10.001   .     S
Er25     Ti44    10.001   .     S
Er25     Ti37    10.001   1_455     S
Er26     Ti37    10.001   .     S
Er26     Ti40    10.001   1_545     S
Er27     Ti38    10.001   .     S
Er27     Ti40    10.001   1_455     S
Er28     Ti44    10.001   .     S
Er28     Ti38    10.001   1_545     S
Er29     Ti41    10.001   .     S
Er29     Ti43    10.001   1_455     S
Er30     Ti39    10.001   .     S
Er30     Ti41    10.001   1_545     S
Er31     Ti39    10.001   .     S
Er31     Ti42    10.001   1_455     S
Er32     Ti42    10.001   .     S
Er32     Ti43    10.001   1_545     S
Er33     Ti44    10.001   .     S
Er33     Ti39    10.001   1_554     S
Er34     Ti38    10.001   .     S
Er34     Ti41    10.001   1_554     S
Er35     Ti37    10.001   .     S
Er35     Ti42    10.001   1_554     S
Er36     Ti40    10.001   .     S
Er36     Ti43    10.001   1_554     S
Ti37     Er25    10.001   1_655     S
Ti38     Er28    10.001   1_565     S
Ti39     Er33    10.001   1_556     S
Ti40     Er27    10.001   1_655     S
Ti40     Er26    10.001   1_565     S
Ti41     Er30    10.001   1_565     S
Ti41     Er34    10.001   1_556     S
Ti42     Er31    10.001   1_655     S
Ti42     Er35    10.001   1_556     S
Ti43     Er32    10.001   1_565     S
Ti43     Er29    10.001   1_655     S
Ti43     Er36    10.001   1_556     S
