data_dnxa
_audit_creation_date              2020-02-02
_audit_creation_method            'Pymatgen'
_symmetry_space_group_name_H-M    'P1'
_symmetry_Int_Tables_number       1
loop_
_symmetry_equiv_pos_as_xyz
  x,y,z
_cell_length_a                    99.8108
_cell_length_b                    99.8108
_cell_length_c                    99.8108
_cell_angle_alpha                 90.0
_cell_angle_beta                 90.0
_cell_angle_gamma                 90.0
loop_
_atom_site_label
_atom_site_type_symbol
_atom_site_fract_x
_atom_site_fract_y
_atom_site_fract_z
Ce1     Ce     0.6315   0.7023   0.7023
Ce2     Ce     0.7023   0.6315   0.7023
Ce3     Ce     0.7023   0.7023   0.6315
Ce4     Ce     0.7023   0.7023   0.3685
Ce5     Ce     0.7023   0.6315   0.2977
Ce6     Ce     0.6315   0.7023   0.2977
Ce7     Ce     0.3685   0.7023   0.7023
Ce8     Ce     0.2977   0.6315   0.7023
Ce9     Ce     0.2977   0.7023   0.6315
Ce10     Ce     0.7023   0.3685   0.7023
Ce11     Ce     0.6315   0.2977   0.7023
Ce12     Ce     0.7023   0.2977   0.6315
Ce13     Ce     0.7977   0.8685   0.7977
Ce14     Ce     0.8685   0.7977   0.7977
Ce15     Ce     0.7977   0.7977   0.8685
Ce16     Ce     0.1315   0.2023   0.2023
Ce17     Ce     0.2023   0.1315   0.2023
Ce18     Ce     0.2023   0.2023   0.1315
Ce19     Ce     0.2023   0.8685   0.7977
Ce20     Ce     0.2023   0.7977   0.8685
Ce21     Ce     0.1315   0.7977   0.7977
Ce22     Ce     0.8685   0.2023   0.7977
Ce23     Ce     0.7977   0.2023   0.8685
Ce24     Ce     0.7977   0.1315   0.7977
Ce25     Ce     0.8685   0.7977   0.2023
Ce26     Ce     0.7977   0.8685   0.2023
Ce27     Ce     0.7977   0.7977   0.1315
Ce28     Ce     0.7023   0.2977   0.3685
Ce29     Ce     0.7023   0.3685   0.2977
Ce30     Ce     0.6315   0.2977   0.2977
Ce31     Ce     0.2977   0.7023   0.3685
Ce32     Ce     0.3685   0.7023   0.2977
Ce33     Ce     0.2977   0.6315   0.2977
Ce34     Ce     0.2977   0.3685   0.7023
Ce35     Ce     0.3685   0.2977   0.7023
Ce36     Ce     0.2977   0.2977   0.6315
Ce37     Ce     0.2023   0.2023   0.8685
Ce38     Ce     0.2023   0.1315   0.7977
Ce39     Ce     0.1315   0.2023   0.7977
Ce40     Ce     0.8685   0.2023   0.2023
Ce41     Ce     0.7977   0.1315   0.2023
Ce42     Ce     0.7977   0.2023   0.1315
Ce43     Ce     0.2023   0.8685   0.2023
Ce44     Ce     0.1315   0.7977   0.2023
Ce45     Ce     0.2023   0.7977   0.1315
Ce46     Ce     0.2977   0.3685   0.2977
Ce47     Ce     0.3685   0.2977   0.2977
Ce48     Ce     0.2977   0.2977   0.3685
V49     V     0.6708   0.7416   0.0
V50     V     0.7416   0.6708   0.0
Er51     Er     0.7563   0.7563   0.9499
Er52     Er     0.7563   0.7563   0.0501
V53     V     0.7416   0.0   0.6708
V54     V     0.6708   0.0   0.7416
Er55     Er     0.7563   0.9499   0.7563
Er56     Er     0.7563   0.0501   0.7563
V57     V     0.0   0.7416   0.6708
V58     V     0.0   0.6708   0.7416
Er59     Er     0.0501   0.7563   0.7563
Er60     Er     0.9499   0.7563   0.7563
V61     V     0.7584   0.8292   0.5
V62     V     0.8292   0.7584   0.5
Er63     Er     0.7437   0.7437   0.5501
Er64     Er     0.7437   0.7437   0.4499
V65     V     0.7584   0.5   0.8292
V66     V     0.8292   0.5   0.7584
Er67     Er     0.7437   0.4499   0.7437
Er68     Er     0.7437   0.5501   0.7437
V69     V     0.5   0.7584   0.8292
V70     V     0.5   0.8292   0.7584
Er71     Er     0.5501   0.7437   0.7437
Er72     Er     0.4499   0.7437   0.7437
V73     V     0.2584   0.6708   0.0
V74     V     0.3292   0.7416   0.0
Er75     Er     0.2437   0.7563   0.9499
Er76     Er     0.2437   0.7563   0.0501
V77     V     0.6708   0.2584   0.0
V78     V     0.7416   0.3292   0.0
Er79     Er     0.7563   0.2437   0.9499
Er80     Er     0.7563   0.2437   0.0501
V81     V     0.0   0.2584   0.6708
V82     V     0.0   0.3292   0.7416
Er83     Er     0.9499   0.2437   0.7563
Er84     Er     0.0501   0.2437   0.7563
V85     V     0.2584   0.0   0.6708
V86     V     0.3292   0.0   0.7416
Er87     Er     0.2437   0.9499   0.7563
Er88     Er     0.2437   0.0501   0.7563
V89     V     0.0   0.6708   0.2584
V90     V     0.0   0.7416   0.3292
Er91     Er     0.9499   0.7563   0.2437
Er92     Er     0.0501   0.7563   0.2437
V93     V     0.6708   0.0   0.2584
V94     V     0.7416   0.0   0.3292
Er95     Er     0.7563   0.9499   0.2437
Er96     Er     0.7563   0.0501   0.2437
Ti97     Ti     0.7478   0.0   0.5708
Ti98     Ti     0.7522   0.9292   0.5
Ti99     Ti     0.7522   0.0708   0.5
Ti100     Ti     0.7478   0.0   0.4292
V101     V     0.8292   0.2416   0.5
V102     V     0.7584   0.1708   0.5
Er103     Er     0.7437   0.2563   0.4499
Er104     Er     0.7437   0.2563   0.5501
Ti105     Ti     0.0   0.7478   0.5708
Ti106     Ti     0.9292   0.7522   0.5
Ti107     Ti     0.0708   0.7522   0.5
Ti108     Ti     0.0   0.7478   0.4292
V109     V     0.2416   0.8292   0.5
V110     V     0.1708   0.7584   0.5
Er111     Er     0.2563   0.7437   0.4499
Er112     Er     0.2563   0.7437   0.5501
Ti113     Ti     0.5708   0.7478   0.0
Ti114     Ti     0.5   0.7522   0.9292
Ti115     Ti     0.5   0.7522   0.0708
Ti116     Ti     0.4292   0.7478   0.0
V117     V     0.5   0.8292   0.2416
V118     V     0.5   0.7584   0.1708
Er119     Er     0.4499   0.7437   0.2563
Er120     Er     0.5501   0.7437   0.2563
Ti121     Ti     0.7478   0.5708   0.0
Ti122     Ti     0.7522   0.5   0.9292
Ti123     Ti     0.7522   0.5   0.0708
Ti124     Ti     0.7478   0.4292   0.0
V125     V     0.8292   0.5   0.2416
V126     V     0.7584   0.5   0.1708
Er127     Er     0.7437   0.5501   0.2563
Er128     Er     0.7437   0.4499   0.2563
Ti129     Ti     0.5708   0.0   0.7478
Ti130     Ti     0.5   0.9292   0.7522
Ti131     Ti     0.5   0.0708   0.7522
Ti132     Ti     0.4292   0.0   0.7478
V133     V     0.5   0.2416   0.8292
V134     V     0.5   0.1708   0.7584
Er135     Er     0.4499   0.2563   0.7437
Er136     Er     0.5501   0.2563   0.7437
Ti137     Ti     0.0   0.5708   0.7478
Ti138     Ti     0.9292   0.5   0.7522
Ti139     Ti     0.0708   0.5   0.7522
Ti140     Ti     0.0   0.4292   0.7478
V141     V     0.2416   0.5   0.8292
V142     V     0.1708   0.5   0.7584
Er143     Er     0.2563   0.5501   0.7437
Er144     Er     0.2563   0.4499   0.7437
Ti145     Ti     0.2522   0.5708   0.0
Ti146     Ti     0.2478   0.5   0.9292
Ti147     Ti     0.2478   0.5   0.0708
Ti148     Ti     0.2522   0.4292   0.0
Ti149     Ti     0.0708   0.5   0.2478
Ti150     Ti     0.0   0.5708   0.2522
Ti151     Ti     0.9292   0.5   0.2478
Ti152     Ti     0.0   0.4292   0.2522
V153     V     0.1708   0.5   0.2416
V154     V     0.2416   0.5   0.1708
Er155     Er     0.2563   0.4499   0.2563
Er156     Er     0.2563   0.5501   0.2563
V157     V     0.3292   0.2584   0.0
V158     V     0.2584   0.3292   0.0
Er159     Er     0.2437   0.2437   0.9499
Er160     Er     0.2437   0.2437   0.0501
Ti161     Ti     0.5708   0.2522   0.0
Ti162     Ti     0.5   0.2478   0.9292
Ti163     Ti     0.5   0.2478   0.0708
Ti164     Ti     0.4292   0.2522   0.0
Ti165     Ti     0.5708   0.0   0.2522
Ti166     Ti     0.5   0.9292   0.2478
Ti167     Ti     0.5   0.0708   0.2478
Ti168     Ti     0.4292   0.0   0.2522
V169     V     0.5   0.1708   0.2416
V170     V     0.5   0.2416   0.1708
Er171     Er     0.5501   0.2563   0.2563
Er172     Er     0.4499   0.2563   0.2563
V173     V     0.2584   0.0   0.3292
V174     V     0.3292   0.0   0.2584
Er175     Er     0.2437   0.9499   0.2437
Er176     Er     0.2437   0.0501   0.2437
V177     V     0.0   0.2584   0.3292
V178     V     0.0   0.3292   0.2584
Er179     Er     0.9499   0.2437   0.2437
Er180     Er     0.0501   0.2437   0.2437
Ti181     Ti     0.2522   0.0   0.5708
Ti182     Ti     0.2478   0.9292   0.5
Ti183     Ti     0.2478   0.0708   0.5
Ti184     Ti     0.2522   0.0   0.4292
Ti185     Ti     0.0   0.2522   0.5708
Ti186     Ti     0.9292   0.2478   0.5
Ti187     Ti     0.0708   0.2478   0.5
Ti188     Ti     0.0   0.2522   0.4292
V189     V     0.1708   0.2416   0.5
V190     V     0.2416   0.1708   0.5
Er191     Er     0.2563   0.2563   0.4499
Er192     Er     0.2563   0.2563   0.5501
loop_
_geom_bond_atom_site_label_1
_geom_bond_atom_site_label_2
_geom_bond_distance
_geom_bond_site_symmetry_2
_ccdc_geom_bond_type
Ce1     Ce2    9.999   .     S
Ce1     Ce3    9.999   .     S
Ce1     Er71    10.005   .     S
Ce2     Ce3    9.999   .     S
Ce2     Er68    10.005   .     S
Ce3     Er63    10.005   .     S
Ce4     Ce6    9.999   .     S
Ce4     Ce5    9.999   .     S
Ce4     Er64    10.005   .     S
Ce5     Ce6    9.999   .     S
Ce5     Er127    10.005   .     S
Ce6     Er120    10.005   .     S
Ce7     Ce8    9.999   .     S
Ce7     Ce9    9.999   .     S
Ce7     Er72    10.005   .     S
Ce8     Ce9    9.999   .     S
Ce8     Er143    10.005   .     S
Ce9     Er112    10.005   .     S
Ce10     Ce11    9.999   .     S
Ce10     Ce12    9.999   .     S
Ce10     Er67    10.005   .     S
Ce11     Ce12    9.999   .     S
Ce11     Er136    10.005   .     S
Ce12     Er104    10.005   .     S
Ce13     Ce14    9.999   .     S
Ce13     Ce15    9.999   .     S
Ce13     Er55    10.005   .     S
Ce14     Ce15    9.999   .     S
Ce14     Er60    10.005   .     S
Ce15     Er51    10.005   .     S
Ce16     Ce17    9.999   .     S
Ce16     Ce18    9.999   .     S
Ce16     Er180    10.005   .     S
Ce17     Ce18    9.999   .     S
Ce17     Er176    10.005   .     S
Ce18     Er160    10.005   .     S
Ce19     Ce21    9.999   .     S
Ce19     Ce20    9.999   .     S
Ce19     Er87    10.005   .     S
Ce20     Ce21    9.999   .     S
Ce20     Er75    10.005   .     S
Ce21     Er59    10.005   .     S
Ce22     Ce24    9.999   .     S
Ce22     Ce23    9.999   .     S
Ce22     Er83    10.005   .     S
Ce23     Ce24    9.999   .     S
Ce23     Er79    10.005   .     S
Ce24     Er56    10.005   .     S
Ce25     Ce26    9.999   .     S
Ce25     Ce27    9.999   .     S
Ce25     Er91    10.005   .     S
Ce26     Ce27    9.999   .     S
Ce26     Er95    10.005   .     S
Ce27     Er52    10.005   .     S
Ce28     Ce30    9.999   .     S
Ce28     Ce29    9.999   .     S
Ce28     Er103    10.005   .     S
Ce29     Ce30    9.999   .     S
Ce29     Er128    10.005   .     S
Ce30     Er171    10.005   .     S
Ce31     Ce33    9.999   .     S
Ce31     Ce32    9.999   .     S
Ce31     Er111    10.005   .     S
Ce32     Ce33    9.999   .     S
Ce32     Er119    10.005   .     S
Ce33     Er156    10.005   .     S
Ce34     Ce36    9.999   .     S
Ce34     Ce35    9.999   .     S
Ce34     Er144    10.005   .     S
Ce35     Ce36    9.999   .     S
Ce35     Er135    10.005   .     S
Ce36     Er192    10.005   .     S
Ce37     Ce39    9.999   .     S
Ce37     Ce38    9.999   .     S
Ce37     Er159    10.005   .     S
Ce38     Ce39    9.999   .     S
Ce38     Er88    10.005   .     S
Ce39     Er84    10.005   .     S
Ce40     Ce41    9.999   .     S
Ce40     Ce42    9.999   .     S
Ce40     Er179    10.005   .     S
Ce41     Ce42    9.999   .     S
Ce41     Er96    10.005   .     S
Ce42     Er80    10.005   .     S
Ce43     Ce44    9.999   .     S
Ce43     Ce45    9.999   .     S
Ce43     Er175    10.005   .     S
Ce44     Ce45    9.999   .     S
Ce44     Er92    10.005   .     S
Ce45     Er76    10.005   .     S
Ce46     Ce47    9.999   .     S
Ce46     Ce48    9.999   .     S
Ce46     Er155    10.005   .     S
Ce47     Ce48    9.999   .     S
Ce47     Er172    10.005   .     S
Ce48     Er191    10.005   .     S
V49     V50    9.995   .     S
V49     Er51    9.998   1_554     S
V49     Er52    9.998   .     S
V49     Ti113    10.004   .     S
V50     Er51    9.998   1_554     S
V50     Er52    9.998   .     S
V50     Ti121    10.004   .     S
Er51     V49    9.998   1_556     S
Er51     V50    9.998   1_556     S
Er51     Er52    9.999   1_556     S
Er52     Er51    9.999   1_554     S
V53     V54    9.995   .     S
V53     Er55    9.998   1_545     S
V53     Er56    9.998   .     S
V53     Ti97    10.004   .     S
V54     Er55    9.998   1_545     S
V54     Er56    9.998   .     S
V54     Ti129    10.004   .     S
Er55     V53    9.998   1_565     S
Er55     V54    9.998   1_565     S
Er55     Er56    9.999   1_565     S
Er56     Er55    9.999   1_545     S
V57     V58    9.995   .     S
V57     Er60    9.998   1_455     S
V57     Er59    9.998   .     S
V57     Ti105    10.004   .     S
V58     Er60    9.998   1_455     S
V58     Er59    9.998   .     S
V58     Ti137    10.004   .     S
Er59     Er60    9.999   1_455     S
Er60     V58    9.998   1_655     S
Er60     V57    9.998   1_655     S
Er60     Er59    9.999   1_655     S
V61     V62    9.995   .     S
V61     Er63    9.998   .     S
V61     Er64    9.998   .     S
V61     Ti98    10.004   .     S
V62     Er63    9.998   .     S
V62     Er64    9.998   .     S
V62     Ti106    10.004   .     S
Er63     Er64    9.999   .     S
V65     V66    9.995   .     S
V65     Er68    9.998   .     S
V65     Er67    9.998   .     S
V65     Ti122    10.004   .     S
V66     Er68    9.998   .     S
V66     Er67    9.998   .     S
V66     Ti138    10.004   .     S
Er67     Er68    9.999   .     S
V69     V70    9.995   .     S
V69     Er71    9.998   .     S
V69     Er72    9.998   .     S
V69     Ti114    10.004   .     S
V70     Er71    9.998   .     S
V70     Er72    9.998   .     S
V70     Ti130    10.004   .     S
Er71     Er72    9.999   .     S
V73     V74    9.995   .     S
V73     Er75    9.998   1_554     S
V73     Er76    9.998   .     S
V73     Ti145    10.004   .     S
V74     Er75    9.998   1_554     S
V74     Er76    9.998   .     S
V74     Ti116    10.004   .     S
Er75     V74    9.998   1_556     S
Er75     V73    9.998   1_556     S
Er75     Er76    9.999   1_556     S
Er76     Er75    9.999   1_554     S
V77     V78    9.995   .     S
V77     Er79    9.998   1_554     S
V77     Er80    9.998   .     S
V77     Ti161    10.004   .     S
V78     Er79    9.998   1_554     S
V78     Er80    9.998   .     S
V78     Ti124    10.004   .     S
Er79     V78    9.998   1_556     S
Er79     V77    9.998   1_556     S
Er79     Er80    9.999   1_556     S
Er80     Er79    9.999   1_554     S
V81     V82    9.995   .     S
V81     Er83    9.998   1_455     S
V81     Er84    9.998   .     S
V81     Ti185    10.004   .     S
V82     Er83    9.998   1_455     S
V82     Er84    9.998   .     S
V82     Ti140    10.004   .     S
Er83     V82    9.998   1_655     S
Er83     V81    9.998   1_655     S
Er83     Er84    9.999   1_655     S
Er84     Er83    9.999   1_455     S
V85     V86    9.995   .     S
V85     Er87    9.998   1_545     S
V85     Er88    9.998   .     S
V85     Ti181    10.004   .     S
V86     Er87    9.998   1_545     S
V86     Er88    9.998   .     S
V86     Ti132    10.004   .     S
Er87     V86    9.998   1_565     S
Er87     V85    9.998   1_565     S
Er87     Er88    9.999   1_565     S
Er88     Er87    9.999   1_545     S
V89     V90    9.995   .     S
V89     Er91    9.998   1_455     S
V89     Er92    9.998   .     S
V89     Ti150    10.004   .     S
V90     Er91    9.998   1_455     S
V90     Er92    9.998   .     S
V90     Ti108    10.004   .     S
Er91     V90    9.998   1_655     S
Er91     V89    9.998   1_655     S
Er91     Er92    9.999   1_655     S
Er92     Er91    9.999   1_455     S
V93     V94    9.995   .     S
V93     Er95    9.998   1_545     S
V93     Er96    9.998   .     S
V93     Ti165    10.004   .     S
V94     Er95    9.998   1_545     S
V94     Er96    9.998   .     S
V94     Ti100    10.004   .     S
Er95     V94    9.998   1_565     S
Er95     V93    9.998   1_565     S
Er95     Er96    9.999   1_565     S
Er96     Er95    9.999   1_545     S
Ti97     Ti98    9.999   1_545     S
Ti97     Ti99    9.999   .     S
Ti98     Ti97    9.999   1_565     S
Ti98     Ti100    9.999   1_565     S
Ti99     Ti100    9.999   .     S
Ti99     V102    10.004   .     S
Ti100     Ti98    9.999   1_545     S
V101     V102    9.995   .     S
V101     Er104    9.998   .     S
V101     Er103    9.998   .     S
V101     Ti186    10.004   .     S
V102     Er104    9.998   .     S
V102     Er103    9.998   .     S
Er103     Er104    9.999   .     S
Ti105     Ti106    9.999   1_455     S
Ti105     Ti107    9.999   .     S
Ti106     Ti105    9.999   1_655     S
Ti106     Ti108    9.999   1_655     S
Ti107     Ti108    9.999   .     S
Ti107     V110    10.004   .     S
Ti108     Ti106    9.999   1_455     S
V109     V110    9.995   .     S
V109     Er112    9.998   .     S
V109     Er111    9.998   .     S
V109     Ti182    10.004   .     S
V110     Er112    9.998   .     S
V110     Er111    9.998   .     S
Er111     Er112    9.999   .     S
Ti113     Ti114    9.999   1_554     S
Ti113     Ti115    9.999   .     S
Ti114     Ti113    9.999   1_556     S
Ti114     Ti116    9.999   1_556     S
Ti115     Ti116    9.999   .     S
Ti115     V118    10.004   .     S
Ti116     Ti114    9.999   1_554     S
V117     V118    9.995   .     S
V117     Er120    9.998   .     S
V117     Er119    9.998   .     S
V117     Ti166    10.004   .     S
V118     Er120    9.998   .     S
V118     Er119    9.998   .     S
Er119     Er120    9.999   .     S
Ti121     Ti122    9.999   1_554     S
Ti121     Ti123    9.999   .     S
Ti122     Ti121    9.999   1_556     S
Ti122     Ti124    9.999   1_556     S
Ti123     Ti124    9.999   .     S
Ti123     V126    10.004   .     S
Ti124     Ti122    9.999   1_554     S
V125     V126    9.995   .     S
V125     Er127    9.998   .     S
V125     Er128    9.998   .     S
V125     Ti151    10.004   .     S
V126     Er127    9.998   .     S
V126     Er128    9.998   .     S
Er127     Er128    9.999   .     S
Ti129     Ti130    9.999   1_545     S
Ti129     Ti131    9.999   .     S
Ti130     Ti129    9.999   1_565     S
Ti130     Ti132    9.999   1_565     S
Ti131     Ti132    9.999   .     S
Ti131     V134    10.004   .     S
Ti132     Ti130    9.999   1_545     S
V133     V134    9.995   .     S
V133     Er136    9.998   .     S
V133     Er135    9.998   .     S
V133     Ti162    10.004   .     S
V134     Er136    9.998   .     S
V134     Er135    9.998   .     S
Er135     Er136    9.999   .     S
Ti137     Ti138    9.999   1_455     S
Ti137     Ti139    9.999   .     S
Ti138     Ti137    9.999   1_655     S
Ti138     Ti140    9.999   1_655     S
Ti139     Ti140    9.999   .     S
Ti139     V142    10.004   .     S
Ti140     Ti138    9.999   1_455     S
V141     V142    9.995   .     S
V141     Er143    9.998   .     S
V141     Er144    9.998   .     S
V141     Ti146    10.004   .     S
V142     Er143    9.998   .     S
V142     Er144    9.998   .     S
Er143     Er144    9.999   .     S
Ti145     Ti146    9.999   1_554     S
Ti145     Ti147    9.999   .     S
Ti146     Ti145    9.999   1_556     S
Ti146     Ti148    9.999   1_556     S
Ti147     Ti148    9.999   .     S
Ti147     V154    10.004   .     S
Ti148     Ti146    9.999   1_554     S
Ti148     V158    10.004   .     S
Ti149     Ti152    9.999   .     S
Ti149     Ti150    9.999   .     S
Ti149     V153    10.004   .     S
Ti150     Ti151    9.999   1_455     S
Ti151     Ti150    9.999   1_655     S
Ti151     Ti152    9.999   1_655     S
Ti152     Ti151    9.999   1_455     S
Ti152     V178    10.004   .     S
V153     V154    9.995   .     S
V153     Er156    9.998   .     S
V153     Er155    9.998   .     S
V154     Er156    9.998   .     S
V154     Er155    9.998   .     S
Er155     Er156    9.999   .     S
V157     V158    9.995   .     S
V157     Er159    9.998   1_554     S
V157     Er160    9.998   .     S
V157     Ti164    10.004   .     S
V158     Er159    9.998   1_554     S
V158     Er160    9.998   .     S
Er159     V157    9.998   1_556     S
Er159     V158    9.998   1_556     S
Er159     Er160    9.999   1_556     S
Er160     Er159    9.999   1_554     S
Ti161     Ti162    9.999   1_554     S
Ti161     Ti163    9.999   .     S
Ti162     Ti161    9.999   1_556     S
Ti162     Ti164    9.999   1_556     S
Ti163     Ti164    9.999   .     S
Ti163     V170    10.004   .     S
Ti164     Ti162    9.999   1_554     S
Ti165     Ti166    9.999   1_545     S
Ti165     Ti167    9.999   .     S
Ti166     Ti165    9.999   1_565     S
Ti166     Ti168    9.999   1_565     S
Ti167     Ti168    9.999   .     S
Ti167     V169    10.004   .     S
Ti168     Ti166    9.999   1_545     S
Ti168     V174    10.004   .     S
V169     V170    9.995   .     S
V169     Er171    9.998   .     S
V169     Er172    9.998   .     S
V170     Er171    9.998   .     S
V170     Er172    9.998   .     S
Er171     Er172    9.999   .     S
V173     V174    9.995   .     S
V173     Er175    9.998   1_545     S
V173     Er176    9.998   .     S
V173     Ti184    10.004   .     S
V174     Er175    9.998   1_545     S
V174     Er176    9.998   .     S
Er175     V173    9.998   1_565     S
Er175     V174    9.998   1_565     S
Er175     Er176    9.999   1_565     S
Er176     Er175    9.999   1_545     S
V177     V178    9.995   .     S
V177     Er179    9.998   1_455     S
V177     Er180    9.998   .     S
V177     Ti188    10.004   .     S
V178     Er179    9.998   1_455     S
V178     Er180    9.998   .     S
Er179     V178    9.998   1_655     S
Er179     V177    9.998   1_655     S
Er179     Er180    9.999   1_655     S
Er180     Er179    9.999   1_455     S
Ti181     Ti182    9.999   1_545     S
Ti181     Ti183    9.999   .     S
Ti182     Ti181    9.999   1_565     S
Ti182     Ti184    9.999   1_565     S
Ti183     Ti184    9.999   .     S
Ti183     V190    10.004   .     S
Ti184     Ti182    9.999   1_545     S
Ti185     Ti186    9.999   1_455     S
Ti185     Ti187    9.999   .     S
Ti186     Ti185    9.999   1_655     S
Ti186     Ti188    9.999   1_655     S
Ti187     Ti188    9.999   .     S
Ti187     V189    10.004   .     S
Ti188     Ti186    9.999   1_455     S
V189     V190    9.995   .     S
V189     Er192    9.998   .     S
V189     Er191    9.998   .     S
V190     Er192    9.998   .     S
V190     Er191    9.998   .     S
Er191     Er192    9.999   .     S
