data_dny
_audit_creation_date              2020-02-02
_audit_creation_method            'Pymatgen'
_symmetry_space_group_name_H-M    'P1'
_symmetry_Int_Tables_number       1
loop_
_symmetry_equiv_pos_as_xyz
  x,y,z
_cell_length_a                    43.4802
_cell_length_b                    43.4802
_cell_length_c                    43.4802
_cell_angle_alpha                 90.0
_cell_angle_beta                 90.0
_cell_angle_gamma                 90.0
loop_
_atom_site_label
_atom_site_type_symbol
_atom_site_fract_x
_atom_site_fract_y
_atom_site_fract_z
Ti1     Ti     0.375   0.875   0.875
V2     V     0.4331   0.7177   0.0323
V3     V     0.3169   0.7177   0.7177
V4     V     0.2177   0.8169   0.7177
V5     V     0.5323   0.9331   0.7177
V6     V     0.5323   0.7177   0.9331
V7     V     0.4331   0.0323   0.7177
V8     V     0.2177   0.9331   0.0323
V9     V     0.2177   0.7177   0.8169
V10     V     0.5323   0.0323   0.8169
V11     V     0.5323   0.8169   0.0323
V12     V     0.3169   0.0323   0.0323
V13     V     0.2177   0.0323   0.9331
Ti14     Ti     0.875   0.375   0.875
V15     V     0.9331   0.2177   0.0323
V16     V     0.7177   0.3169   0.7177
V17     V     0.7177   0.2177   0.8169
V18     V     0.7177   0.5323   0.9331
V19     V     0.8169   0.2177   0.7177
V20     V     0.9331   0.5323   0.7177
V21     V     0.0323   0.4331   0.7177
V22     V     0.0323   0.2177   0.9331
V23     V     0.0323   0.5323   0.8169
V24     V     0.7177   0.4331   0.0323
V25     V     0.0323   0.3169   0.0323
V26     V     0.8169   0.5323   0.0323
Ti27     Ti     0.875   0.875   0.375
V28     V     0.7177   0.8169   0.2177
V29     V     0.7177   0.7177   0.3169
V30     V     0.7177   0.9331   0.5323
V31     V     0.9331   0.7177   0.5323
V32     V     0.9331   0.0323   0.2177
V33     V     0.7177   0.0323   0.4331
V34     V     0.0323   0.7177   0.4331
V35     V     0.8169   0.7177   0.2177
V36     V     0.0323   0.8169   0.5323
V37     V     0.0323   0.9331   0.2177
V38     V     0.8169   0.0323   0.5323
V39     V     0.0323   0.0323   0.3169
Ti40     Ti     0.375   0.375   0.375
V41     V     0.4331   0.5323   0.2177
V42     V     0.3169   0.2177   0.2177
V43     V     0.5323   0.3169   0.5323
V44     V     0.5323   0.5323   0.3169
V45     V     0.4331   0.2177   0.5323
V46     V     0.5323   0.4331   0.2177
V47     V     0.5323   0.2177   0.4331
V48     V     0.2177   0.2177   0.3169
V49     V     0.2177   0.5323   0.4331
V50     V     0.2177   0.3169   0.2177
V51     V     0.2177   0.4331   0.5323
V52     V     0.3169   0.5323   0.5323
Ti53     Ti     0.125   0.125   0.625
V54     V     0.0669   0.2823   0.4677
V55     V     0.9677   0.2823   0.5669
V56     V     0.2823   0.2823   0.6831
V57     V     0.2823   0.0669   0.4677
V58     V     0.9677   0.9677   0.6831
V59     V     0.2823   0.9677   0.5669
V60     V     0.9677   0.1831   0.4677
V61     V     0.1831   0.9677   0.4677
V62     V     0.1831   0.2823   0.7823
V63     V     0.2823   0.1831   0.7823
V64     V     0.9677   0.0669   0.7823
V65     V     0.0669   0.9677   0.7823
Ti66     Ti     0.625   0.125   0.125
V67     V     0.5669   0.2823   0.9677
V68     V     0.6831   0.2823   0.2823
V69     V     0.5669   0.9677   0.2823
V70     V     0.4677   0.0669   0.2823
V71     V     0.4677   0.2823   0.0669
V72     V     0.6831   0.9677   0.9677
V73     V     0.4677   0.9677   0.1831
V74     V     0.4677   0.1831   0.9677
V75     V     0.7823   0.2823   0.1831
V76     V     0.7823   0.9677   0.0669
V77     V     0.7823   0.1831   0.2823
V78     V     0.7823   0.0669   0.9677
Ti79     Ti     0.125   0.625   0.125
V80     V     0.2823   0.6831   0.2823
V81     V     0.2823   0.5669   0.9677
V82     V     0.9677   0.5669   0.2823
V83     V     0.1831   0.7823   0.2823
V84     V     0.0669   0.4677   0.2823
V85     V     0.9677   0.6831   0.9677
V86     V     0.9677   0.4677   0.1831
V87     V     0.2823   0.4677   0.0669
V88     V     0.1831   0.4677   0.9677
V89     V     0.9677   0.7823   0.0669
V90     V     0.0669   0.7823   0.9677
V91     V     0.2823   0.7823   0.1831
Ti92     Ti     0.625   0.625   0.625
V93     V     0.6831   0.4677   0.4677
V94     V     0.4677   0.6831   0.4677
V95     V     0.4677   0.4677   0.6831
V96     V     0.5669   0.7823   0.4677
V97     V     0.7823   0.5669   0.4677
V98     V     0.4677   0.5669   0.7823
V99     V     0.7823   0.4677   0.5669
V100     V     0.5669   0.4677   0.7823
V101     V     0.4677   0.7823   0.5669
V102     V     0.7823   0.6831   0.7823
V103     V     0.6831   0.7823   0.7823
V104     V     0.7823   0.7823   0.6831
Er105     Er     0.25   0.5   0.75
Er106     Er     0.25   0.75   0.5
Er107     Er     0.5   0.0   0.5
Er108     Er     0.5   0.5   0.0
Er109     Er     0.0   0.25   0.25
Er110     Er     0.75   0.25   0.5
Er111     Er     0.75   0.0   0.75
Er112     Er     0.25   0.0   0.25
Er113     Er     0.0   0.5   0.5
Er114     Er     0.5   0.25   0.75
Er115     Er     0.75   0.75   0.0
Er116     Er     0.25   0.25   0.0
Er117     Er     0.75   0.5   0.25
Er118     Er     0.0   0.75   0.75
Er119     Er     0.5   0.75   0.25
Er120     Er     0.0   0.0   0.0
loop_
_geom_bond_atom_site_label_1
_geom_bond_atom_site_label_2
_geom_bond_distance
_geom_bond_site_symmetry_2
_ccdc_geom_bond_type
Ti1     V9    9.998   .     S
Ti1     V3    9.998   .     S
Ti1     V4    9.998   .     S
Ti1     V7    9.998   1_565     S
Ti1     V10    9.998   1_565     S
Ti1     V5    9.998   .     S
Ti1     V2    9.998   1_556     S
Ti1     V6    9.998   .     S
Ti1     V11    9.998   1_556     S
Ti1     V12    9.998   1_566     S
Ti1     V13    9.998   1_565     S
Ti1     V8    9.998   1_556     S
V2     Ti1    9.998   1_554     S
V2     Er119    10.001   .     S
V2     Er108    10.001   .     S
V3     Er106    10.001   .     S
V3     Er105    10.001   .     S
V4     Er118    10.001   .     S
V4     Er106    10.001   .     S
V5     Er111    10.001   1_565     S
V5     Er107    10.001   1_565     S
V6     Er115    10.001   1_556     S
V6     Er108    10.001   1_556     S
V7     Ti1    9.998   1_545     S
V7     Er114    10.001   .     S
V7     Er107    10.001   .     S
V8     Ti1    9.998   1_554     S
V8     Er120    10.001   1_565     S
V8     Er112    10.001   1_565     S
V9     Er118    10.001   .     S
V9     Er105    10.001   .     S
V10     Ti1    9.998   1_545     S
V10     Er111    10.001   .     S
V10     Er114    10.001   .     S
V11     Ti1    9.998   1_554     S
V11     Er119    10.001   .     S
V11     Er115    10.001   .     S
V12     Ti1    9.998   1_544     S
V12     Er116    10.001   .     S
V12     Er112    10.001   .     S
V13     Ti1    9.998   1_545     S
V13     Er116    10.001   1_556     S
V13     Er120    10.001   1_556     S
Ti14     V17    9.998   .     S
Ti14     V16    9.998   .     S
Ti14     V19    9.998   .     S
Ti14     V21    9.998   1_655     S
Ti14     V23    9.998   1_655     S
Ti14     V20    9.998   .     S
Ti14     V24    9.998   1_556     S
Ti14     V26    9.998   1_556     S
Ti14     V18    9.998   .     S
Ti14     V22    9.998   1_655     S
Ti14     V25    9.998   1_656     S
Ti14     V15    9.998   1_556     S
V15     Ti14    9.998   1_554     S
V15     Er120    10.001   1_655     S
V15     Er109    10.001   1_655     S
V16     Er110    10.001   .     S
V16     Er114    10.001   .     S
V17     Er111    10.001   .     S
V17     Er114    10.001   .     S
V18     Er115    10.001   1_556     S
V18     Er108    10.001   1_556     S
V19     Er111    10.001   .     S
V19     Er110    10.001   .     S
V20     Er118    10.001   1_655     S
V20     Er113    10.001   1_655     S
V21     Ti14    9.998   1_455     S
V21     Er105    10.001   .     S
V21     Er113    10.001   .     S
V22     Ti14    9.998   1_455     S
V22     Er116    10.001   1_556     S
V22     Er120    10.001   1_556     S
V23     Ti14    9.998   1_455     S
V23     Er118    10.001   .     S
V23     Er105    10.001   .     S
V24     Ti14    9.998   1_554     S
V24     Er117    10.001   .     S
V24     Er108    10.001   .     S
V25     Ti14    9.998   1_454     S
V25     Er116    10.001   .     S
V25     Er109    10.001   .     S
V26     Ti14    9.998   1_554     S
V26     Er117    10.001   .     S
V26     Er115    10.001   .     S
Ti27     V35    9.998   .     S
Ti27     V29    9.998   .     S
Ti27     V28    9.998   .     S
Ti27     V33    9.998   1_565     S
Ti27     V38    9.998   1_565     S
Ti27     V30    9.998   .     S
Ti27     V34    9.998   1_655     S
Ti27     V36    9.998   1_655     S
Ti27     V31    9.998   .     S
Ti27     V39    9.998   1_665     S
Ti27     V32    9.998   1_565     S
Ti27     V37    9.998   1_655     S
V28     Er119    10.001   .     S
V28     Er115    10.001   .     S
V29     Er119    10.001   .     S
V29     Er117    10.001   .     S
V30     Er111    10.001   1_565     S
V30     Er107    10.001   1_565     S
V31     Er118    10.001   1_655     S
V31     Er113    10.001   1_655     S
V32     Ti27    9.998   1_545     S
V32     Er120    10.001   1_655     S
V32     Er109    10.001   1_655     S
V33     Ti27    9.998   1_545     S
V33     Er110    10.001   .     S
V33     Er107    10.001   .     S
V34     Ti27    9.998   1_455     S
V34     Er106    10.001   .     S
V34     Er113    10.001   .     S
V35     Er117    10.001   .     S
V35     Er115    10.001   .     S
V36     Ti27    9.998   1_455     S
V36     Er118    10.001   .     S
V36     Er106    10.001   .     S
V37     Ti27    9.998   1_455     S
V37     Er120    10.001   1_565     S
V37     Er112    10.001   1_565     S
V38     Ti27    9.998   1_545     S
V38     Er111    10.001   .     S
V38     Er110    10.001   .     S
V39     Ti27    9.998   1_445     S
V39     Er109    10.001   .     S
V39     Er112    10.001   .     S
Ti40     V45    9.998   .     S
Ti40     V43    9.998   .     S
Ti40     V47    9.998   .     S
Ti40     V41    9.998   .     S
Ti40     V44    9.998   .     S
Ti40     V46    9.998   .     S
Ti40     V42    9.998   .     S
Ti40     V50    9.998   .     S
Ti40     V48    9.998   .     S
Ti40     V52    9.998   .     S
Ti40     V49    9.998   .     S
Ti40     V51    9.998   .     S
V41     Er119    10.001   .     S
V41     Er108    10.001   .     S
V42     Er116    10.001   .     S
V42     Er112    10.001   .     S
V43     Er110    10.001   .     S
V43     Er114    10.001   .     S
V44     Er119    10.001   .     S
V44     Er117    10.001   .     S
V45     Er114    10.001   .     S
V45     Er107    10.001   .     S
V46     Er117    10.001   .     S
V46     Er108    10.001   .     S
V47     Er110    10.001   .     S
V47     Er107    10.001   .     S
V48     Er109    10.001   .     S
V48     Er112    10.001   .     S
V49     Er106    10.001   .     S
V49     Er113    10.001   .     S
V50     Er116    10.001   .     S
V50     Er109    10.001   .     S
V51     Er105    10.001   .     S
V51     Er113    10.001   .     S
V52     Er106    10.001   .     S
V52     Er105    10.001   .     S
Ti53     V59    9.998   1_545     S
Ti53     V61    9.998   1_545     S
Ti53     V57    9.998   .     S
Ti53     V62    9.998   .     S
Ti53     V56    9.998   .     S
Ti53     V63    9.998   .     S
Ti53     V58    9.998   1_445     S
Ti53     V64    9.998   1_455     S
Ti53     V65    9.998   1_545     S
Ti53     V55    9.998   1_455     S
Ti53     V60    9.998   1_455     S
Ti53     V54    9.998   .     S
V54     Er109    10.001   .     S
V54     Er113    10.001   .     S
V55     Er110    10.001   .     S
V55     Ti53    9.998   1_655     S
V55     Er113    10.001   1_655     S
V56     Er114    10.001   .     S
V56     Er105    10.001   .     S
V57     Er112    10.001   .     S
V57     Er107    10.001   .     S
V58     Er118    10.001   1_655     S
V58     Er111    10.001   1_565     S
V58     Ti53    9.998   1_665     S
V59     Er106    10.001   .     S
V59     Ti53    9.998   1_565     S
V59     Er107    10.001   1_565     S
V60     Er110    10.001   .     S
V60     Ti53    9.998   1_655     S
V60     Er109    10.001   1_655     S
V61     Er106    10.001   .     S
V61     Ti53    9.998   1_565     S
V61     Er112    10.001   1_565     S
V62     Er116    10.001   1_556     S
V62     Er105    10.001   .     S
V63     Er116    10.001   1_556     S
V63     Er114    10.001   .     S
V64     Er111    10.001   .     S
V64     Ti53    9.998   1_655     S
V64     Er120    10.001   1_656     S
V65     Er118    10.001   .     S
V65     Ti53    9.998   1_565     S
V65     Er120    10.001   1_566     S
Ti66     V69    9.998   1_545     S
Ti66     V70    9.998   .     S
Ti66     V73    9.998   1_545     S
Ti66     V67    9.998   1_554     S
Ti66     V74    9.998   1_554     S
Ti66     V71    9.998   .     S
Ti66     V72    9.998   1_544     S
Ti66     V78    9.998   1_554     S
Ti66     V76    9.998   1_545     S
Ti66     V75    9.998   .     S
Ti66     V68    9.998   .     S
Ti66     V77    9.998   .     S
V67     Er114    10.001   .     S
V67     Ti66    9.998   1_556     S
V67     Er108    10.001   1_556     S
V68     Er110    10.001   .     S
V68     Er117    10.001   .     S
V69     Er119    10.001   .     S
V69     Ti66    9.998   1_565     S
V69     Er107    10.001   1_565     S
V70     Er112    10.001   .     S
V70     Er107    10.001   .     S
V71     Er116    10.001   .     S
V71     Er108    10.001   .     S
V72     Er111    10.001   1_565     S
V72     Ti66    9.998   1_566     S
V72     Er115    10.001   1_556     S
V73     Er119    10.001   .     S
V73     Ti66    9.998   1_565     S
V73     Er112    10.001   1_565     S
V74     Er116    10.001   1_556     S
V74     Er114    10.001   .     S
V74     Ti66    9.998   1_556     S
V75     Er109    10.001   1_655     S
V75     Er117    10.001   .     S
V76     Er120    10.001   1_665     S
V76     Ti66    9.998   1_565     S
V76     Er115    10.001   .     S
V77     Er110    10.001   .     S
V77     Er109    10.001   1_655     S
V78     Er111    10.001   .     S
V78     Er120    10.001   1_656     S
V78     Ti66    9.998   1_556     S
Ti79     V82    9.998   1_455     S
Ti79     V86    9.998   1_455     S
Ti79     V84    9.998   .     S
Ti79     V87    9.998   .     S
Ti79     V81    9.998   1_554     S
Ti79     V88    9.998   1_554     S
Ti79     V83    9.998   .     S
Ti79     V80    9.998   .     S
Ti79     V91    9.998   .     S
Ti79     V85    9.998   1_454     S
Ti79     V89    9.998   1_455     S
Ti79     V90    9.998   1_554     S
V80     Er106    10.001   .     S
V80     Er119    10.001   .     S
V81     Er105    10.001   .     S
V81     Ti79    9.998   1_556     S
V81     Er108    10.001   1_556     S
V82     Er117    10.001   .     S
V82     Ti79    9.998   1_655     S
V82     Er113    10.001   1_655     S
V83     Er106    10.001   .     S
V83     Er112    10.001   1_565     S
V84     Er109    10.001   .     S
V84     Er113    10.001   .     S
V85     Er118    10.001   1_655     S
V85     Ti79    9.998   1_656     S
V85     Er115    10.001   1_556     S
V86     Er109    10.001   1_655     S
V86     Er117    10.001   .     S
V86     Ti79    9.998   1_655     S
V87     Er116    10.001   .     S
V87     Er108    10.001   .     S
V88     Er116    10.001   1_556     S
V88     Er105    10.001   .     S
V88     Ti79    9.998   1_556     S
V89     Er120    10.001   1_665     S
V89     Ti79    9.998   1_655     S
V89     Er115    10.001   .     S
V90     Er118    10.001   .     S
V90     Er120    10.001   1_566     S
V90     Ti79    9.998   1_556     S
V91     Er119    10.001   .     S
V91     Er112    10.001   1_565     S
Ti92     V98    9.998   .     S
Ti92     V95    9.998   .     S
Ti92     V100    9.998   .     S
Ti92     V102    9.998   .     S
Ti92     V104    9.998   .     S
Ti92     V103    9.998   .     S
Ti92     V97    9.998   .     S
Ti92     V99    9.998   .     S
Ti92     V93    9.998   .     S
Ti92     V96    9.998   .     S
Ti92     V94    9.998   .     S
Ti92     V101    9.998   .     S
V93     Er110    10.001   .     S
V93     Er117    10.001   .     S
V94     Er106    10.001   .     S
V94     Er119    10.001   .     S
V95     Er114    10.001   .     S
V95     Er105    10.001   .     S
V96     Er119    10.001   .     S
V96     Er107    10.001   1_565     S
V97     Er117    10.001   .     S
V97     Er113    10.001   1_655     S
V98     Er105    10.001   .     S
V98     Er108    10.001   1_556     S
V99     Er110    10.001   .     S
V99     Er113    10.001   1_655     S
V100     Er114    10.001   .     S
V100     Er108    10.001   1_556     S
V101     Er106    10.001   .     S
V101     Er107    10.001   1_565     S
V102     Er118    10.001   1_655     S
V102     Er115    10.001   1_556     S
V103     Er111    10.001   1_565     S
V103     Er115    10.001   1_556     S
V104     Er118    10.001   1_655     S
V104     Er111    10.001   1_565     S
Er107     V96    10.001   1_545     S
Er107     V101    10.001   1_545     S
Er107     V5    10.001   1_545     S
Er107     V59    10.001   1_545     S
Er107     V30    10.001   1_545     S
Er107     V69    10.001   1_545     S
Er108     V100    10.001   1_554     S
Er108     V98    10.001   1_554     S
Er108     V6    10.001   1_554     S
Er108     V81    10.001   1_554     S
Er108     V18    10.001   1_554     S
Er108     V67    10.001   1_554     S
Er109     V15    10.001   1_455     S
Er109     V86    10.001   1_455     S
Er109     V75    10.001   1_455     S
Er109     V77    10.001   1_455     S
Er109     V32    10.001   1_455     S
Er109     V60    10.001   1_455     S
Er111     V72    10.001   1_545     S
Er111     V5    10.001   1_545     S
Er111     V104    10.001   1_545     S
Er111     V103    10.001   1_545     S
Er111     V30    10.001   1_545     S
Er111     V58    10.001   1_545     S
Er112     V37    10.001   1_545     S
Er112     V61    10.001   1_545     S
Er112     V91    10.001   1_545     S
Er112     V83    10.001   1_545     S
Er112     V8    10.001   1_545     S
Er112     V73    10.001   1_545     S
Er113     V99    10.001   1_455     S
Er113     V97    10.001   1_455     S
Er113     V31    10.001   1_455     S
Er113     V82    10.001   1_455     S
Er113     V20    10.001   1_455     S
Er113     V55    10.001   1_455     S
Er115     V72    10.001   1_554     S
Er115     V6    10.001   1_554     S
Er115     V85    10.001   1_554     S
Er115     V18    10.001   1_554     S
Er115     V102    10.001   1_554     S
Er115     V103    10.001   1_554     S
Er116     V63    10.001   1_554     S
Er116     V62    10.001   1_554     S
Er116     V13    10.001   1_554     S
Er116     V74    10.001   1_554     S
Er116     V88    10.001   1_554     S
Er116     V22    10.001   1_554     S
Er118     V58    10.001   1_455     S
Er118     V31    10.001   1_455     S
Er118     V104    10.001   1_455     S
Er118     V102    10.001   1_455     S
Er118     V20    10.001   1_455     S
Er118     V85    10.001   1_455     S
Er120     V64    10.001   1_454     S
Er120     V65    10.001   1_544     S
Er120     V22    10.001   1_554     S
Er120     V15    10.001   1_455     S
Er120     V89    10.001   1_445     S
Er120     V90    10.001   1_544     S
Er120     V8    10.001   1_545     S
Er120     V13    10.001   1_554     S
Er120     V76    10.001   1_445     S
Er120     V78    10.001   1_454     S
Er120     V37    10.001   1_545     S
Er120     V32    10.001   1_455     S
