data_doh
_audit_creation_date              2020-02-02
_audit_creation_method            'Pymatgen'
_symmetry_space_group_name_H-M    'P1'
_symmetry_Int_Tables_number       1
loop_
_symmetry_equiv_pos_as_xyz
  x,y,z
_cell_length_a                    44.4401
_cell_length_b                    44.4401
_cell_length_c                    35.7481
_cell_angle_alpha                 90.0
_cell_angle_beta                 90.0
_cell_angle_gamma                 120.0
loop_
_atom_site_label
_atom_site_type_symbol
_atom_site_fract_x
_atom_site_fract_y
_atom_site_fract_z
Er1     Er     0.2598   0.1299   0.5
Er2     Er     0.1299   0.2598   0.5
Er3     Er     0.8701   0.1299   0.5
Er4     Er     0.1299   0.8701   0.5
Er5     Er     0.7402   0.8701   0.5
Er6     Er     0.8701   0.7402   0.5
Ce7     Ce     0.3875   0.0   0.1399
Ce8     Ce     0.6125   0.0   0.1399
Ce9     Ce     0.3875   0.0   0.8601
Ce10     Ce     0.6125   0.0   0.8601
Ce11     Ce     0.0   0.3875   0.1399
Ce12     Ce     0.0   0.6125   0.1399
Ce13     Ce     0.0   0.6125   0.8601
Ce14     Ce     0.0   0.3875   0.8601
Ti15     Ti     0.7909   0.2091   0.7218
Ti16     Ti     0.7909   0.2091   0.2782
V17     V     0.6667   0.3333   0.3601
Ti18     Ti     0.7909   0.5818   0.2782
Ti19     Ti     0.4182   0.2091   0.2782
V20     V     0.6667   0.3333   0.6399
Ti21     Ti     0.7909   0.5818   0.7218
Ti22     Ti     0.4182   0.2091   0.7218
Ce23     Ce     0.3875   0.3875   0.1399
Ce24     Ce     0.6125   0.6125   0.1399
Ce25     Ce     0.3875   0.3875   0.8601
Ce26     Ce     0.6125   0.6125   0.8601
Ti27     Ti     0.2091   0.4182   0.7218
Ti28     Ti     0.2091   0.4182   0.2782
V29     V     0.3333   0.6667   0.3601
Ti30     Ti     0.2091   0.7909   0.2782
Ti31     Ti     0.5818   0.7909   0.2782
V32     V     0.3333   0.6667   0.6399
Ti33     Ti     0.2091   0.7909   0.7218
Ti34     Ti     0.5818   0.7909   0.7218
loop_
_geom_bond_atom_site_label_1
_geom_bond_atom_site_label_2
_geom_bond_distance
_geom_bond_site_symmetry_2
_ccdc_geom_bond_type
Er1     Er2    10.0   .     S
Er1     Er4    10.0   1_545     S
Er1     Ti19    10.0   .     S
Er1     Ti22    10.0   .     S
Er2     Er3    10.0   1_455     S
Er2     Ti27    10.0   .     S
Er2     Ti28    10.0   .     S
Er3     Er5    10.0   1_545     S
Er3     Er2    10.0   1_655     S
Er3     Ti15    10.0   .     S
Er3     Ti16    10.0   .     S
Er4     Er1    10.0   1_565     S
Er4     Er6    10.0   1_455     S
Er4     Ti30    10.0   .     S
Er4     Ti33    10.0   .     S
Er5     Er3    10.0   1_565     S
Er5     Er6    10.0   .     S
Er5     Ti31    10.0   .     S
Er5     Ti34    10.0   .     S
Er6     Er4    10.0   1_655     S
Er6     Ti18    10.0   .     S
Er6     Ti21    10.0   .     S
Ce7     Ti30    10.0   1_545     S
Ce7     Ti19    10.0   .     S
Ce7     Ce8    10.0   .     S
Ce7     Ce9    10.0   1_554     S
Ce8     Ti31    10.0   1_545     S
Ce8     Ti16    10.0   .     S
Ce8     Ce10    10.0   1_554     S
Ce9     Ti22    10.0   .     S
Ce9     Ti33    10.0   1_545     S
Ce9     Ce10    10.0   .     S
Ce9     Ce7    10.0   1_556     S
Ce10     Ti34    10.0   1_545     S
Ce10     Ti15    10.0   .     S
Ce10     Ce8    10.0   1_556     S
Ce11     Ti28    10.0   .     S
Ce11     Ti16    10.0   1_455     S
Ce11     Ce12    10.0   .     S
Ce11     Ce14    10.0   1_554     S
Ce12     Ti30    10.0   .     S
Ce12     Ti18    10.0   1_455     S
Ce12     Ce13    10.0   1_554     S
Ce13     Ti33    10.0   .     S
Ce13     Ti21    10.0   1_455     S
Ce13     Ce14    10.0   .     S
Ce13     Ce12    10.0   1_556     S
Ce14     Ti27    10.0   .     S
Ce14     Ti15    10.0   1_455     S
Ce14     Ce11    10.0   1_556     S
Ti15     Ce14    10.0   1_655     S
Ti15     V20    10.0   .     S
Ti16     Ce11    10.0   1_655     S
Ti16     V17    10.0   .     S
V17     Ti18    10.0   .     S
V17     Ti19    10.0   .     S
V17     V20    10.0   .     S
Ti18     Ce12    10.0   1_655     S
Ti18     Ce24    10.0   .     S
Ti19     Ce23    10.0   .     S
V20     Ti21    10.0   .     S
V20     Ti22    10.0   .     S
Ti21     Ce13    10.0   1_655     S
Ti21     Ce26    10.0   .     S
Ti22     Ce25    10.0   .     S
Ce23     Ti28    10.0   .     S
Ce23     Ce24    10.0   .     S
Ce23     Ce25    10.0   1_554     S
Ce24     Ti31    10.0   .     S
Ce24     Ce26    10.0   1_554     S
Ce25     Ti27    10.0   .     S
Ce25     Ce26    10.0   .     S
Ce25     Ce23    10.0   1_556     S
Ce26     Ti34    10.0   .     S
Ce26     Ce24    10.0   1_556     S
Ti27     V32    10.0   .     S
Ti28     V29    10.0   .     S
V29     Ti31    10.0   .     S
V29     Ti30    10.0   .     S
V29     V32    10.0   .     S
Ti30     Ce7    10.0   1_565     S
Ti31     Ce8    10.0   1_565     S
V32     Ti34    10.0   .     S
V32     Ti33    10.0   .     S
Ti33     Ce9    10.0   1_565     S
Ti34     Ce10    10.0   1_565     S
