data_dpb
_audit_creation_date              2020-02-02
_audit_creation_method            'Pymatgen'
_symmetry_space_group_name_H-M    'P1'
_symmetry_Int_Tables_number       1
loop_
_symmetry_equiv_pos_as_xyz
  x,y,z
_cell_length_a                    56.7596
_cell_length_b                    56.7596
_cell_length_c                    56.7596
_cell_angle_alpha                 90.0
_cell_angle_beta                 90.0
_cell_angle_gamma                 90.0
loop_
_atom_site_label
_atom_site_type_symbol
_atom_site_fract_x
_atom_site_fract_y
_atom_site_fract_z
V1     V     0.6263   0.75   0.8737
Ti2     Ti     0.75   0.75   0.75
V3     V     0.75   0.8737   0.6263
V4     V     0.8737   0.6263   0.75
Er5     Er     0.5   0.75   0.75
V6     V     0.5   0.1237   0.8737
Ti7     Ti     0.5   0.0   0.75
V8     V     0.3763   0.0   0.6263
V9     V     0.6237   0.8763   0.75
V10     V     0.5   0.3737   0.1237
Ti11     Ti     0.5   0.25   0.0
V12     V     0.6237   0.25   0.8763
V13     V     0.3763   0.1263   0.0
Er14     Er     0.25   0.0   0.75
V15     V     0.0   0.3763   0.1263
V16     V     0.1237   0.5   0.3737
Ti17     Ti     0.0   0.5   0.25
V18     V     0.8763   0.6237   0.25
Er19     Er     0.75   0.5   0.75
V20     V     0.8737   0.5   0.1237
Ti21     Ti     0.75   0.5   0.0
V22     V     0.6263   0.3763   0.0
V23     V     0.75   0.6237   0.8763
V24     V     0.3737   0.25   0.1263
Ti25     Ti     0.25   0.25   0.25
V26     V     0.1263   0.3737   0.25
V27     V     0.25   0.1263   0.3737
Er28     Er     0.25   0.75   0.5
V29     V     0.1263   0.8737   0.75
Ti30     Ti     0.25   0.75   0.75
V31     V     0.3737   0.75   0.6263
V32     V     0.25   0.6263   0.8737
Er33     Er     0.75   0.75   0.5
V34     V     0.8737   0.1263   0.25
Ti35     Ti     0.75   0.25   0.25
V36     V     0.75   0.3737   0.1263
V37     V     0.6263   0.25   0.3737
Er38     Er     0.5   0.25   0.25
Er39     Er     0.75   0.25   0.0
V40     V     0.1237   0.8737   0.5
Ti41     Ti     0.0   0.75   0.5
V42     V     0.8763   0.75   0.6237
V43     V     0.0   0.6263   0.3763
Er44     Er     0.0   0.0   0.5
V45     V     0.8737   0.0   0.6237
Ti46     Ti     0.75   0.0   0.5
V47     V     0.75   0.1237   0.3763
V48     V     0.6263   0.8763   0.5
Er49     Er     0.5   0.0   0.5
Er50     Er     0.5   0.0   0.0
Er51     Er     0.75   0.75   0.0
V52     V     0.8737   0.1237   0.0
Ti53     Ti     0.75   0.0   0.0
V54     V     0.75   0.8763   0.1237
V55     V     0.6263   0.0   0.8763
Er56     Er     0.75   0.0   0.75
V57     V     0.1237   0.0   0.8737
Ti58     Ti     0.0   0.0   0.75
V59     V     0.8763   0.1237   0.75
V60     V     0.0   0.8763   0.6263
Er61     Er     0.0   0.75   0.75
V62     V     0.0   0.8737   0.1237
Ti63     Ti     0.0   0.75   0.0
V64     V     0.1237   0.75   0.8763
V65     V     0.8763   0.6263   0.0
Er66     Er     0.0   0.0   0.0
Er67     Er     0.0   0.5   0.0
V68     V     0.0   0.6237   0.8737
Ti69     Ti     0.0   0.5   0.75
V70     V     0.1237   0.3763   0.75
V71     V     0.8763   0.5   0.6263
Er72     Er     0.0   0.5   0.5
V73     V     0.6237   0.8737   0.0
Ti74     Ti     0.5   0.75   0.0
V75     V     0.3763   0.75   0.1237
V76     V     0.5   0.6263   0.8763
Er77     Er     0.5   0.5   0.0
V78     V     0.6237   0.5   0.8737
V79     V     0.3763   0.6237   0.75
Ti80     Ti     0.5   0.5   0.75
V81     V     0.5   0.3763   0.6263
V82     V     0.25   0.6237   0.3763
V83     V     0.1263   0.3763   0.5
V84     V     0.3737   0.5   0.6237
Ti85     Ti     0.25   0.5   0.5
Er86     Er     0.25   0.5   0.75
V87     V     0.1263   0.75   0.3737
Ti88     Ti     0.25   0.75   0.25
V89     V     0.25   0.8737   0.1263
V90     V     0.3737   0.6263   0.25
Er91     Er     0.25   0.5   0.25
Er92     Er     0.0   0.75   0.25
Er93     Er     0.75   0.5   0.25
V94     V     0.8737   0.75   0.1263
Ti95     Ti     0.75   0.75   0.25
V96     V     0.6263   0.8737   0.25
V97     V     0.75   0.6263   0.3737
Er98     Er     0.5   0.25   0.75
V99     V     0.75   0.1263   0.8737
Ti100     Ti     0.75   0.25   0.75
V101     V     0.8737   0.25   0.6263
V102     V     0.6263   0.3737   0.75
V103     V     0.3737   0.1237   0.5
Ti104     Ti     0.25   0.0   0.5
V105     V     0.25   0.8763   0.6237
V106     V     0.1263   0.0   0.3763
V107     V     0.8737   0.6237   0.5
V108     V     0.75   0.3763   0.6237
Ti109     Ti     0.75   0.5   0.5
V110     V     0.6263   0.5   0.3763
Er111     Er     0.75   0.25   0.5
Er112     Er     0.0   0.25   0.25
V113     V     0.0   0.3737   0.6237
Ti114     Ti     0.0   0.25   0.5
V115     V     0.1237   0.25   0.3763
V116     V     0.8763   0.1263   0.5
Er117     Er     0.0   0.25   0.75
V118     V     0.1237   0.3737   0.0
Ti119     Ti     0.0   0.25   0.0
V120     V     0.0   0.1263   0.8763
V121     V     0.8763   0.25   0.1237
V122     V     0.3763   0.25   0.6237
V123     V     0.6237   0.3737   0.5
V124     V     0.5   0.1263   0.3763
Ti125     Ti     0.5   0.25   0.5
V126     V     0.3763   0.5   0.1263
V127     V     0.6237   0.3763   0.25
V128     V     0.5   0.6237   0.3737
Ti129     Ti     0.5   0.5   0.25
V130     V     0.5   0.8737   0.6237
V131     V     0.6237   0.75   0.3763
Ti132     Ti     0.5   0.75   0.5
V133     V     0.3763   0.6263   0.5
Er134     Er     0.5   0.75   0.25
Er135     Er     0.25   0.0   0.25
V136     V     0.6237   0.0   0.3737
Ti137     Ti     0.5   0.0   0.25
V138     V     0.3763   0.1237   0.25
V139     V     0.5   0.8763   0.1263
V140     V     0.0   0.1237   0.3737
Ti141     Ti     0.0   0.0   0.25
V142     V     0.8763   0.0   0.1263
V143     V     0.1237   0.8763   0.25
Er144     Er     0.75   0.0   0.25
Er145     Er     0.25   0.25   0.5
V146     V     0.1263   0.25   0.8737
Ti147     Ti     0.25   0.25   0.75
V148     V     0.25   0.3737   0.6263
V149     V     0.3737   0.1263   0.75
V150     V     0.25   0.3763   0.1237
V151     V     0.3737   0.6237   0.0
Ti152     Ti     0.25   0.5   0.0
V153     V     0.1263   0.5   0.8763
Er154     Er     0.25   0.25   0.0
Er155     Er     0.25   0.75   0.0
V156     V     0.3737   0.0   0.1237
Ti157     Ti     0.25   0.0   0.0
V158     V     0.1263   0.8763   0.0
V159     V     0.25   0.1237   0.8763
Er160     Er     0.5   0.5   0.5
loop_
_geom_bond_atom_site_label_1
_geom_bond_atom_site_label_2
_geom_bond_distance
_geom_bond_site_symmetry_2
_ccdc_geom_bond_type
V1     Ti2    9.931   .     S
V1     Er5    10.034   .     S
V1     Er51    10.034   1_556     S
Ti2     V3    9.931   .     S
Ti2     V4    9.931   .     S
V3     Er33    10.034   .     S
V3     Er56    10.034   1_565     S
V4     Er19    10.034   .     S
V4     Er61    10.034   1_655     S
Er5     V76    10.034   .     S
Er5     V31    10.034   .     S
Er5     V9    10.034   .     S
Er5     V130    10.034   .     S
Er5     V79    10.034   .     S
V6     Ti7    9.931   .     S
V6     Er98    10.034   .     S
V6     Er50    10.034   1_556     S
Ti7     V8    9.931   .     S
Ti7     V9    9.931   1_545     S
V8     Er49    10.034   .     S
V8     Er14    10.034   .     S
V9     Ti7    9.931   1_565     S
V9     Er56    10.034   1_565     S
V10     Ti11    9.931   .     S
V10     Er38    10.034   .     S
V10     Er77    10.034   .     S
Ti11     V12    9.931   1_554     S
Ti11     V13    9.931   .     S
V12     Ti11    9.931   1_556     S
V12     Er98    10.034   .     S
V12     Er39    10.034   1_556     S
V13     Er50    10.034   .     S
V13     Er154    10.034   .     S
Er14     V105    10.034   1_545     S
Er14     V149    10.034   .     S
Er14     V29    10.034   1_545     S
Er14     V57    10.034   .     S
Er14     V159    10.034   .     S
V15     Ti17    9.931   .     S
V15     Er67    10.034   .     S
V15     Er112    10.034   .     S
V16     Ti17    9.931   .     S
V16     Er91    10.034   .     S
V16     Er72    10.034   .     S
Ti17     V18    9.931   1_455     S
V18     Ti17    9.931   1_655     S
V18     Er93    10.034   .     S
V18     Er92    10.034   1_655     S
Er19     V71    10.034   .     S
Er19     V102    10.034   .     S
Er19     V23    10.034   .     S
Er19     V78    10.034   .     S
Er19     V108    10.034   .     S
V20     Ti21    9.931   .     S
V20     Er93    10.034   .     S
V20     Er67    10.034   1_655     S
Ti21     V22    9.931   .     S
Ti21     V23    9.931   1_554     S
V22     Er77    10.034   .     S
V22     Er39    10.034   .     S
V23     Ti21    9.931   1_556     S
V23     Er51    10.034   1_556     S
V24     Ti25    9.931   .     S
V24     Er154    10.034   .     S
V24     Er38    10.034   .     S
Ti25     V26    9.931   .     S
Ti25     V27    9.931   .     S
V26     Er112    10.034   .     S
V26     Er91    10.034   .     S
V27     Er135    10.034   .     S
V27     Er145    10.034   .     S
Er28     V133    10.034   .     S
Er28     V31    10.034   .     S
Er28     V87    10.034   .     S
Er28     V82    10.034   .     S
Er28     V105    10.034   .     S
Er28     V40    10.034   .     S
V29     Ti30    9.931   .     S
V29     Er14    10.034   1_565     S
V29     Er61    10.034   .     S
Ti30     V31    9.931   .     S
Ti30     V32    9.931   .     S
V32     Er86    10.034   .     S
V32     Er155    10.034   1_556     S
Er33     V97    10.034   .     S
Er33     V48    10.034   .     S
Er33     V42    10.034   .     S
Er33     V107    10.034   .     S
Er33     V131    10.034   .     S
V34     Ti35    9.931   .     S
V34     Er144    10.034   .     S
V34     Er112    10.034   1_655     S
Ti35     V37    9.931   .     S
Ti35     V36    9.931   .     S
V36     Er39    10.034   .     S
V36     Er93    10.034   .     S
V37     Er38    10.034   .     S
V37     Er111    10.034   .     S
Er38     V124    10.034   .     S
Er38     V127    10.034   .     S
Er38     V138    10.034   .     S
Er39     V12    10.034   1_554     S
Er39     V121    10.034   .     S
Er39     V52    10.034   .     S
Er39     V99    10.034   1_554     S
V40     Ti41    9.931   .     S
V40     Er44    10.034   1_565     S
Ti41     V43    9.931   .     S
Ti41     V42    9.931   1_455     S
V42     Ti41    9.931   1_655     S
V42     Er61    10.034   1_655     S
V43     Er72    10.034   .     S
V43     Er92    10.034   .     S
Er44     V60    10.034   1_545     S
Er44     V140    10.034   .     S
Er44     V40    10.034   1_545     S
Er44     V116    10.034   1_455     S
Er44     V45    10.034   1_455     S
Er44     V106    10.034   .     S
V45     Ti46    9.931   .     S
V45     Er56    10.034   .     S
V45     Er44    10.034   1_655     S
Ti46     V48    9.931   1_545     S
Ti46     V47    9.931   .     S
V47     Er111    10.034   .     S
V47     Er144    10.034   .     S
V48     Ti46    9.931   1_565     S
V48     Er49    10.034   1_565     S
Er49     V48    10.034   1_545     S
Er49     V103    10.034   .     S
Er49     V124    10.034   .     S
Er49     V130    10.034   1_545     S
Er49     V136    10.034   .     S
Er50     V55    10.034   1_554     S
Er50     V156    10.034   .     S
Er50     V6    10.034   1_554     S
Er50     V139    10.034   1_545     S
Er50     V73    10.034   1_545     S
Er51     V1    10.034   1_554     S
Er51     V65    10.034   .     S
Er51     V23    10.034   1_554     S
Er51     V54    10.034   .     S
Er51     V73    10.034   .     S
Er51     V94    10.034   .     S
V52     Ti53    9.931   .     S
V52     Er66    10.034   1_655     S
Ti53     V54    9.931   1_545     S
Ti53     V55    9.931   1_554     S
V54     Ti53    9.931   1_565     S
V54     Er144    10.034   1_565     S
V55     Ti53    9.931   1_556     S
V55     Er50    10.034   1_556     S
V55     Er56    10.034   .     S
Er56     V3    10.034   1_545     S
Er56     V9    10.034   1_545     S
Er56     V59    10.034   .     S
Er56     V99    10.034   .     S
V57     Ti58    9.931   .     S
V57     Er66    10.034   1_556     S
Ti58     V60    9.931   1_545     S
Ti58     V59    9.931   1_455     S
V59     Ti58    9.931   1_655     S
V59     Er117    10.034   1_655     S
V60     Ti58    9.931   1_565     S
V60     Er44    10.034   1_565     S
V60     Er61    10.034   .     S
Er61     V4    10.034   1_455     S
Er61     V42    10.034   1_455     S
Er61     V64    10.034   .     S
Er61     V68    10.034   .     S
V62     Ti63    9.931   .     S
V62     Er92    10.034   .     S
V62     Er66    10.034   1_565     S
Ti63     V65    9.931   1_455     S
Ti63     V64    9.931   1_554     S
V64     Ti63    9.931   1_556     S
V64     Er155    10.034   1_556     S
V65     Ti63    9.931   1_655     S
V65     Er67    10.034   1_655     S
Er66     V62    10.034   1_545     S
Er66     V57    10.034   1_554     S
Er66     V52    10.034   1_455     S
Er66     V142    10.034   1_455     S
Er66     V120    10.034   1_554     S
Er66     V158    10.034   1_545     S
Er67     V65    10.034   1_455     S
Er67     V118    10.034   .     S
Er67     V20    10.034   1_455     S
Er67     V153    10.034   1_554     S
Er67     V68    10.034   1_554     S
V68     Ti69    9.931   .     S
V68     Er67    10.034   1_556     S
Ti69     V71    9.931   1_455     S
Ti69     V70    9.931   .     S
V70     Er86    10.034   .     S
V70     Er117    10.034   .     S
V71     Ti69    9.931   1_655     S
V71     Er72    10.034   1_655     S
Er72     V71    10.034   1_455     S
Er72     V83    10.034   .     S
Er72     V107    10.034   1_455     S
Er72     V113    10.034   .     S
V73     Ti74    9.931   .     S
V73     Er50    10.034   1_565     S
Ti74     V76    9.931   1_554     S
Ti74     V75    9.931   .     S
V75     Er134    10.034   .     S
V75     Er155    10.034   .     S
V76     Ti74    9.931   1_556     S
V76     Er77    10.034   1_556     S
Er77     V76    10.034   1_554     S
Er77     V78    10.034   1_554     S
Er77     V126    10.034   .     S
Er77     V151    10.034   .     S
V78     Ti80    9.931   .     S
V78     Er77    10.034   1_556     S
V79     Ti80    9.931   .     S
V79     Er86    10.034   .     S
Ti80     V81    9.931   .     S
V81     Er160    10.034   .     S
V81     Er98    10.034   .     S
V82     Ti85    9.931   .     S
V82     Er91    10.034   .     S
V83     Ti85    9.931   .     S
V83     Er145    10.034   .     S
V84     Ti85    9.931   .     S
V84     Er86    10.034   .     S
V84     Er160    10.034   .     S
Er86     V148    10.034   .     S
Er86     V153    10.034   .     S
V87     Ti88    9.931   .     S
V87     Er92    10.034   .     S
Ti88     V90    9.931   .     S
Ti88     V89    9.931   .     S
V89     Er155    10.034   .     S
V89     Er135    10.034   1_565     S
V90     Er91    10.034   .     S
V90     Er134    10.034   .     S
Er91     V126    10.034   .     S
Er91     V150    10.034   .     S
Er92     V18    10.034   1_455     S
Er92     V143    10.034   .     S
Er92     V94    10.034   1_455     S
Er93     V110    10.034   .     S
Er93     V97    10.034   .     S
Er93     V127    10.034   .     S
V94     Ti95    9.931   .     S
V94     Er92    10.034   1_655     S
Ti95     V97    9.931   .     S
Ti95     V96    9.931   .     S
V96     Er134    10.034   .     S
V96     Er144    10.034   1_565     S
Er98     V102    10.034   .     S
Er98     V149    10.034   .     S
Er98     V122    10.034   .     S
V99     Ti100    9.931   .     S
V99     Er39    10.034   1_556     S
Ti100     V102    9.931   .     S
Ti100     V101    9.931   .     S
V101     Er111    10.034   .     S
V101     Er117    10.034   1_655     S
V103     Ti104    9.931   .     S
V103     Er145    10.034   .     S
Ti104     V105    9.931   1_545     S
Ti104     V106    9.931   .     S
V105     Ti104    9.931   1_565     S
V105     Er14    10.034   1_565     S
V106     Er135    10.034   .     S
V107     Ti109    9.931   .     S
V107     Er72    10.034   1_655     S
V108     Ti109    9.931   .     S
V108     Er111    10.034   .     S
Ti109     V110    9.931   .     S
V110     Er160    10.034   .     S
Er111     V116    10.034   .     S
Er111     V123    10.034   .     S
Er112     V115    10.034   .     S
Er112     V121    10.034   1_455     S
Er112     V140    10.034   .     S
Er112     V34    10.034   1_455     S
V113     Ti114    9.931   .     S
V113     Er117    10.034   .     S
Ti114     V116    9.931   1_455     S
Ti114     V115    9.931   .     S
V115     Er145    10.034   .     S
V116     Ti114    9.931   1_655     S
V116     Er44    10.034   1_655     S
Er117     V101    10.034   1_455     S
Er117     V120    10.034   .     S
Er117     V59    10.034   1_455     S
Er117     V146    10.034   .     S
V118     Ti119    9.931   .     S
V118     Er154    10.034   .     S
Ti119     V121    9.931   1_455     S
Ti119     V120    9.931   1_554     S
V120     Ti119    9.931   1_556     S
V120     Er66    10.034   1_556     S
V121     Ti119    9.931   1_655     S
V121     Er112    10.034   1_655     S
V122     Ti125    9.931   .     S
V122     Er145    10.034   .     S
V123     Ti125    9.931   .     S
V123     Er160    10.034   .     S
V124     Ti125    9.931   .     S
V126     Ti129    9.931   .     S
V127     Ti129    9.931   .     S
V128     Ti129    9.931   .     S
V128     Er134    10.034   .     S
V128     Er160    10.034   .     S
V130     Ti132    9.931   .     S
V130     Er49    10.034   1_565     S
V131     Ti132    9.931   .     S
V131     Er134    10.034   .     S
Ti132     V133    9.931   .     S
V133     Er160    10.034   .     S
Er134     V139    10.034   .     S
Er135     V138    10.034   .     S
Er135     V143    10.034   1_545     S
Er135     V156    10.034   .     S
Er135     V89    10.034   1_545     S
V136     Ti137    9.931   .     S
V136     Er144    10.034   .     S
Ti137     V139    9.931   1_545     S
Ti137     V138    9.931   .     S
V139     Ti137    9.931   1_565     S
V139     Er50    10.034   1_565     S
V140     Ti141    9.931   .     S
Ti141     V143    9.931   1_545     S
Ti141     V142    9.931   1_455     S
V142     Ti141    9.931   1_655     S
V142     Er66    10.034   1_655     S
V142     Er144    10.034   .     S
V143     Ti141    9.931   1_565     S
V143     Er135    10.034   1_565     S
Er144     V96    10.034   1_545     S
Er144     V54    10.034   1_545     S
Er145     V148    10.034   .     S
V146     Ti147    9.931   .     S
V146     Er154    10.034   1_556     S
Ti147     V148    9.931   .     S
Ti147     V149    9.931   .     S
V150     Ti152    9.931   .     S
V150     Er154    10.034   .     S
V151     Ti152    9.931   .     S
V151     Er155    10.034   .     S
Ti152     V153    9.931   1_554     S
V153     Ti152    9.931   1_556     S
V153     Er67    10.034   1_556     S
Er154     V146    10.034   1_554     S
Er154     V159    10.034   1_554     S
Er155     V32    10.034   1_554     S
Er155     V158    10.034   .     S
Er155     V64    10.034   1_554     S
V156     Ti157    9.931   .     S
Ti157     V158    9.931   1_545     S
Ti157     V159    9.931   1_554     S
V158     Ti157    9.931   1_565     S
V158     Er66    10.034   1_565     S
V159     Ti157    9.931   1_556     S
V159     Er154    10.034   1_556     S
