data_dpc
_audit_creation_date              2020-02-02
_audit_creation_method            'Pymatgen'
_symmetry_space_group_name_H-M    'P1'
_symmetry_Int_Tables_number       1
loop_
_symmetry_equiv_pos_as_xyz
  x,y,z
_cell_length_a                    75.4294
_cell_length_b                    75.4294
_cell_length_c                    75.4294
_cell_angle_alpha                 90.0
_cell_angle_beta                 90.0
_cell_angle_gamma                 90.0
loop_
_atom_site_label
_atom_site_type_symbol
_atom_site_fract_x
_atom_site_fract_y
_atom_site_fract_z
Ti1     Ti     0.75   0.25   0.75
V2     V     0.6563   0.3437   0.75
V3     V     0.75   0.1563   0.8437
V4     V     0.8437   0.25   0.6563
Er5     Er     0.875   0.125   0.875
Ti6     Ti     0.75   0.0   0.0
V7     V     0.8437   0.0937   0.0
V8     V     0.6563   0.0   0.9063
V9     V     0.75   0.9063   0.0937
Er10     Er     0.875   0.125   0.125
Er11     Er     0.875   0.625   0.125
Er12     Er     0.625   0.125   0.875
V13     V     0.25   0.1563   0.3437
V14     V     0.1563   0.3437   0.25
V15     V     0.3437   0.25   0.1563
Ti16     Ti     0.25   0.25   0.25
Ti17     Ti     0.25   0.75   0.75
V18     V     0.1563   0.8437   0.75
V19     V     0.3437   0.75   0.6563
V20     V     0.25   0.6563   0.8437
Er21     Er     0.375   0.875   0.125
V22     V     0.1563   0.9063   0.0
V23     V     0.25   0.0937   0.9063
Ti24     Ti     0.25   0.0   0.0
V25     V     0.3437   0.0   0.0937
Er26     Er     0.125   0.875   0.875
V27     V     0.0   0.9063   0.6563
V28     V     0.0937   0.0   0.8437
Ti29     Ti     0.0   0.0   0.75
V30     V     0.9063   0.0937   0.75
Er31     Er     0.125   0.125   0.875
Er32     Er     0.375   0.125   0.125
Er33     Er     0.625   0.875   0.125
Er34     Er     0.625   0.875   0.875
V35     V     0.4063   0.75   0.0937
Ti36     Ti     0.5   0.75   0.0
V37     V     0.5   0.6563   0.9063
V38     V     0.5937   0.8437   0.0
V39     V     0.6563   0.75   0.8437
V40     V     0.8437   0.6563   0.75
V41     V     0.75   0.8437   0.6563
Ti42     Ti     0.75   0.75   0.75
V43     V     0.5   0.9063   0.1563
Ti44     Ti     0.5   0.0   0.25
V45     V     0.4063   0.0937   0.25
V46     V     0.5937   0.0   0.3437
Er47     Er     0.125   0.375   0.875
Er48     Er     0.125   0.625   0.875
Ti49     Ti     0.0   0.5   0.75
V50     V     0.0937   0.4063   0.75
V51     V     0.9063   0.5   0.6563
V52     V     0.0   0.5937   0.8437
V53     V     0.8437   0.5   0.0937
Ti54     Ti     0.75   0.5   0.0
V55     V     0.75   0.5937   0.9063
V56     V     0.6563   0.4063   0.0
Er57     Er     0.875   0.625   0.875
Er58     Er     0.625   0.375   0.375
Er59     Er     0.125   0.875   0.125
V60     V     0.9063   0.6563   0.0
V61     V     0.0   0.8437   0.0937
Ti62     Ti     0.0   0.75   0.0
V63     V     0.0937   0.75   0.9063
Er64     Er     0.875   0.875   0.125
V65     V     0.75   0.6563   0.3437
Ti66     Ti     0.75   0.75   0.25
V67     V     0.8437   0.75   0.1563
V68     V     0.6563   0.8437   0.25
V69     V     0.9063   0.25   0.0937
V70     V     0.0   0.1563   0.9063
Ti71     Ti     0.0   0.25   0.0
V72     V     0.0937   0.3437   0.0
V73     V     0.9063   0.5937   0.25
Ti74     Ti     0.0   0.5   0.25
V75     V     0.0   0.4063   0.1563
V76     V     0.0937   0.5   0.3437
Er77     Er     0.875   0.375   0.125
Er78     Er     0.125   0.625   0.375
Er79     Er     0.125   0.375   0.125
V80     V     0.5   0.0937   0.8437
Ti81     Ti     0.5   0.0   0.75
V82     V     0.5937   0.9063   0.75
V83     V     0.4063   0.0   0.6563
V84     V     0.1563   0.25   0.8437
Ti85     Ti     0.25   0.25   0.75
V86     V     0.25   0.3437   0.6563
V87     V     0.3437   0.1563   0.75
Er88     Er     0.375   0.375   0.625
Er89     Er     0.125   0.375   0.625
Ti90     Ti     0.25   0.5   0.5
V91     V     0.1563   0.4063   0.5
V92     V     0.3437   0.5   0.5937
V93     V     0.25   0.5937   0.4063
Er94     Er     0.125   0.375   0.375
Er95     Er     0.375   0.625   0.625
Er96     Er     0.375   0.875   0.625
Ti97     Ti     0.5   0.75   0.5
V98     V     0.4063   0.6563   0.5
V99     V     0.5   0.8437   0.5937
V100     V     0.5937   0.75   0.4063
Er101     Er     0.625   0.875   0.625
Er102     Er     0.625   0.875   0.375
V103     V     0.6563   0.25   0.3437
Ti104     Ti     0.75   0.25   0.25
V105     V     0.8437   0.1563   0.25
V106     V     0.75   0.3437   0.1563
Er107     Er     0.125   0.875   0.625
Ti108     Ti     0.0   0.75   0.5
V109     V     0.9063   0.75   0.5937
V110     V     0.0937   0.8437   0.5
V111     V     0.0   0.6563   0.4063
Er112     Er     0.875   0.875   0.625
Er113     Er     0.875   0.125   0.375
V114     V     0.9063   0.0   0.1563
V115     V     0.0937   0.9063   0.25
Ti116     Ti     0.0   0.0   0.25
V117     V     0.0   0.0937   0.3437
Er118     Er     0.125   0.125   0.375
V119     V     0.5937   0.25   0.9063
Ti120     Ti     0.5   0.25   0.0
V121     V     0.5   0.3437   0.0937
V122     V     0.4063   0.1563   0.0
Er123     Er     0.375   0.125   0.875
Ti124     Ti     0.0   0.25   0.5
V125     V     0.0   0.3437   0.5937
V126     V     0.9063   0.1563   0.5
V127     V     0.0937   0.25   0.4063
Er128     Er     0.875   0.625   0.625
Er129     Er     0.875   0.375   0.625
Ti130     Ti     0.75   0.5   0.5
V131     V     0.8437   0.5937   0.5
V132     V     0.75   0.4063   0.5937
V133     V     0.6563   0.5   0.4063
Er134     Er     0.625   0.625   0.375
Er135     Er     0.375   0.625   0.375
V136     V     0.4063   0.5   0.1563
Ti137     Ti     0.5   0.5   0.25
V138     V     0.5   0.5937   0.3437
V139     V     0.5937   0.4063   0.25
Er140     Er     0.375   0.375   0.125
Er141     Er     0.375   0.625   0.125
V142     V     0.3437   0.5937   0.0
V143     V     0.1563   0.5   0.9063
Ti144     Ti     0.25   0.5   0.0
V145     V     0.25   0.4063   0.0937
Ti146     Ti     0.25   0.75   0.25
V147     V     0.1563   0.75   0.3437
V148     V     0.25   0.8437   0.1563
V149     V     0.3437   0.6563   0.25
Er150     Er     0.375   0.625   0.875
Er151     Er     0.625   0.375   0.875
Er152     Er     0.625   0.625   0.875
V153     V     0.5937   0.5   0.8437
V154     V     0.5   0.4063   0.6563
Ti155     Ti     0.5   0.5   0.75
V156     V     0.4063   0.5937   0.75
Er157     Er     0.625   0.375   0.625
Er158     Er     0.125   0.875   0.375
V159     V     0.25   0.9063   0.5937
Ti160     Ti     0.25   0.0   0.5
V161     V     0.3437   0.0937   0.5
V162     V     0.1563   0.0   0.4063
Er163     Er     0.625   0.125   0.375
V164     V     0.5937   0.3437   0.5
Ti165     Ti     0.5   0.25   0.5
V166     V     0.5   0.1563   0.4063
V167     V     0.4063   0.25   0.5937
Er168     Er     0.375   0.125   0.375
Er169     Er     0.375   0.125   0.625
Er170     Er     0.875   0.625   0.375
Er171     Er     0.625   0.375   0.125
Er172     Er     0.875   0.125   0.625
V173     V     0.75   0.0937   0.4063
V174     V     0.8437   0.0   0.5937
Ti175     Ti     0.75   0.0   0.5
V176     V     0.6563   0.9063   0.5
loop_
_geom_bond_atom_site_label_1
_geom_bond_atom_site_label_2
_geom_bond_distance
_geom_bond_site_symmetry_2
_ccdc_geom_bond_type
Ti1     V4    9.995   .     S
Ti1     V3    9.995   .     S
Ti1     V2    9.995   .     S
V2     Er151    10.002   .     S
V2     Er157    10.002   .     S
V3     Er5    10.002   .     S
V3     Er12    10.002   .     S
V4     Er129    10.002   .     S
V4     Er172    10.002   .     S
Er5     V70    10.002   1_655     S
Er5     V30    10.002   .     S
Er5     V7    10.002   1_556     S
Ti6     V9    9.995   1_545     S
Ti6     V8    9.995   1_554     S
Ti6     V7    9.995   .     S
V7     Er10    10.002   .     S
V7     Er5    10.002   1_554     S
V8     Ti6    9.995   1_556     S
V8     Er12    10.002   .     S
V8     Er34    10.002   1_545     S
V9     Ti6    9.995   1_565     S
V9     Er33    10.002   .     S
V9     Er64    10.002   .     S
Er10     V114    10.002   .     S
Er10     V69    10.002   .     S
Er10     V105    10.002   .     S
Er11     V60    10.002   .     S
Er11     V73    10.002   .     S
Er11     V53    10.002   .     S
Er11     V67    10.002   .     S
Er12     V119    10.002   .     S
Er12     V80    10.002   .     S
V13     Ti16    9.995   .     S
V13     Er118    10.002   .     S
V13     Er168    10.002   .     S
V14     Ti16    9.995   .     S
V14     Er79    10.002   .     S
V14     Er94    10.002   .     S
V15     Ti16    9.995   .     S
V15     Er32    10.002   .     S
V15     Er140    10.002   .     S
Ti17     V20    9.995   .     S
Ti17     V18    9.995   .     S
Ti17     V19    9.995   .     S
V18     Er26    10.002   .     S
V18     Er107    10.002   .     S
V19     Er96    10.002   .     S
V19     Er95    10.002   .     S
V20     Er48    10.002   .     S
V20     Er150    10.002   .     S
Er21     V43    10.002   .     S
Er21     V25    10.002   1_565     S
Er21     V35    10.002   .     S
Er21     V148    10.002   .     S
V22     Ti24    9.995   1_565     S
V22     Er26    10.002   1_554     S
V22     Er59    10.002   .     S
V23     Ti24    9.995   1_556     S
V23     Er31    10.002   .     S
V23     Er123    10.002   .     S
Ti24     V22    9.995   1_545     S
Ti24     V23    9.995   1_554     S
Ti24     V25    9.995   .     S
V25     Er21    10.002   1_545     S
V25     Er32    10.002   .     S
Er26     V63    10.002   .     S
Er26     V28    10.002   1_565     S
Er26     V22    10.002   1_556     S
V27     Ti29    9.995   1_565     S
V27     Er107    10.002   .     S
V27     Er112    10.002   1_455     S
V28     Ti29    9.995   .     S
V28     Er31    10.002   .     S
V28     Er26    10.002   1_545     S
Ti29     V27    9.995   1_545     S
Ti29     V30    9.995   1_455     S
V30     Ti29    9.995   1_655     S
V30     Er172    10.002   .     S
Er31     V70    10.002   .     S
Er31     V84    10.002   .     S
Er32     V45    10.002   .     S
Er32     V122    10.002   .     S
Er33     V43    10.002   .     S
Er33     V38    10.002   .     S
Er33     V68    10.002   .     S
Er34     V8    10.002   1_565     S
Er34     V82    10.002   .     S
Er34     V39    10.002   .     S
Er34     V38    10.002   1_556     S
V35     Ti36    9.995   .     S
V35     Er141    10.002   .     S
Ti36     V38    9.995   .     S
Ti36     V37    9.995   1_554     S
V37     Ti36    9.995   1_556     S
V37     Er150    10.002   .     S
V37     Er152    10.002   .     S
V38     Er34    10.002   1_554     S
V39     Ti42    9.995   .     S
V39     Er152    10.002   .     S
V40     Ti42    9.995   .     S
V40     Er57    10.002   .     S
V40     Er128    10.002   .     S
V41     Ti42    9.995   .     S
V41     Er101    10.002   .     S
V41     Er112    10.002   .     S
V43     Ti44    9.995   1_565     S
Ti44     V43    9.995   1_545     S
Ti44     V45    9.995   .     S
Ti44     V46    9.995   .     S
V45     Er168    10.002   .     S
V46     Er102    10.002   1_545     S
V46     Er163    10.002   .     S
Er47     V143    10.002   .     S
Er47     V72    10.002   1_556     S
Er47     V50    10.002   .     S
Er47     V84    10.002   .     S
Er48     V63    10.002   .     S
Er48     V143    10.002   .     S
Er48     V52    10.002   .     S
Ti49     V52    9.995   .     S
Ti49     V51    9.995   1_455     S
Ti49     V50    9.995   .     S
V50     Er89    10.002   .     S
V51     Ti49    9.995   1_655     S
V51     Er128    10.002   .     S
V51     Er129    10.002   .     S
V52     Er57    10.002   1_455     S
V53     Ti54    9.995   .     S
V53     Er77    10.002   .     S
Ti54     V56    9.995   .     S
Ti54     V55    9.995   1_554     S
V55     Ti54    9.995   1_556     S
V55     Er57    10.002   .     S
V55     Er152    10.002   .     S
V56     Er151    10.002   1_554     S
V56     Er171    10.002   .     S
Er57     V52    10.002   1_655     S
Er57     V60    10.002   1_556     S
Er58     V133    10.002   .     S
Er58     V164    10.002   .     S
Er58     V139    10.002   .     S
Er58     V103    10.002   .     S
Er59     V115    10.002   .     S
Er59     V61    10.002   .     S
Er59     V148    10.002   .     S
V60     Er57    10.002   1_554     S
V60     Ti62    9.995   1_655     S
V61     Ti62    9.995   .     S
V61     Er64    10.002   1_455     S
Ti62     V60    9.995   1_455     S
Ti62     V63    9.995   1_554     S
V63     Ti62    9.995   1_556     S
Er64     V114    10.002   1_565     S
Er64     V67    10.002   .     S
Er64     V61    10.002   1_655     S
V65     Ti66    9.995   .     S
V65     Er170    10.002   .     S
V65     Er134    10.002   .     S
Ti66     V68    9.995   .     S
Ti66     V67    9.995   .     S
V68     Er102    10.002   .     S
V69     Ti71    9.995   1_655     S
V69     Er77    10.002   .     S
V70     Er5    10.002   1_455     S
V70     Ti71    9.995   1_556     S
Ti71     V69    9.995   1_455     S
Ti71     V70    9.995   1_554     S
Ti71     V72    9.995   .     S
V72     Er47    10.002   1_554     S
V72     Er79    10.002   .     S
V73     Ti74    9.995   1_655     S
V73     Er170    10.002   .     S
Ti74     V73    9.995   1_455     S
Ti74     V76    9.995   .     S
Ti74     V75    9.995   .     S
V75     Er77    10.002   1_455     S
V75     Er79    10.002   .     S
V76     Er94    10.002   .     S
V76     Er78    10.002   .     S
Er77     V75    10.002   1_655     S
Er77     V106    10.002   .     S
Er78     V147    10.002   .     S
Er78     V93    10.002   .     S
Er78     V111    10.002   .     S
Er79     V145    10.002   .     S
V80     Ti81    9.995   .     S
V80     Er123    10.002   .     S
Ti81     V83    9.995   .     S
Ti81     V82    9.995   1_545     S
V82     Ti81    9.995   1_565     S
V82     Er101    10.002   .     S
V83     Er169    10.002   .     S
V83     Er96    10.002   1_545     S
V84     Ti85    9.995   .     S
Ti85     V87    9.995   .     S
Ti85     V86    9.995   .     S
V86     Er88    10.002   .     S
V86     Er89    10.002   .     S
V87     Er123    10.002   .     S
V87     Er169    10.002   .     S
Er88     V92    10.002   .     S
Er88     V154    10.002   .     S
Er88     V167    10.002   .     S
Er89     V91    10.002   .     S
Er89     V125    10.002   .     S
Ti90     V93    9.995   .     S
Ti90     V92    9.995   .     S
Ti90     V91    9.995   .     S
V91     Er94    10.002   .     S
V92     Er95    10.002   .     S
V93     Er135    10.002   .     S
Er94     V127    10.002   .     S
Er95     V98    10.002   .     S
Er95     V156    10.002   .     S
Er96     V83    10.002   1_565     S
Er96     V159    10.002   .     S
Er96     V99    10.002   .     S
Ti97     V99    9.995   .     S
Ti97     V98    9.995   .     S
Ti97     V100    9.995   .     S
V98     Er135    10.002   .     S
V99     Er101    10.002   .     S
V100     Er102    10.002   .     S
V100     Er134    10.002   .     S
Er101     V176    10.002   .     S
Er102     V46    10.002   1_565     S
Er102     V176    10.002   .     S
V103     Ti104    9.995   .     S
V103     Er163    10.002   .     S
Ti104     V106    9.995   .     S
Ti104     V105    9.995   .     S
V105     Er113    10.002   .     S
V106     Er171    10.002   .     S
Er107     V159    10.002   .     S
Er107     V110    10.002   .     S
Ti108     V110    9.995   .     S
Ti108     V111    9.995   .     S
Ti108     V109    9.995   1_455     S
V109     Ti108    9.995   1_655     S
V109     Er112    10.002   .     S
V109     Er128    10.002   .     S
V110     Er158    10.002   .     S
V111     Er170    10.002   1_455     S
Er112     V27    10.002   1_655     S
Er112     V174    10.002   1_565     S
Er113     V126    10.002   .     S
Er113     V173    10.002   .     S
Er113     V117    10.002   1_655     S
V114     Er64    10.002   1_545     S
V114     Ti116    9.995   1_655     S
V115     Ti116    9.995   1_565     S
V115     Er158    10.002   .     S
Ti116     V114    9.995   1_455     S
Ti116     V115    9.995   1_545     S
Ti116     V117    9.995   .     S
V117     Er113    10.002   1_455     S
V117     Er118    10.002   .     S
Er118     V127    10.002   .     S
Er118     V162    10.002   .     S
V119     Ti120    9.995   1_556     S
V119     Er151    10.002   .     S
Ti120     V119    9.995   1_554     S
Ti120     V122    9.995   .     S
Ti120     V121    9.995   .     S
V121     Er140    10.002   .     S
V121     Er171    10.002   .     S
V122     Er123    10.002   1_554     S
Er123     V122    10.002   1_556     S
Ti124     V126    9.995   1_455     S
Ti124     V127    9.995   .     S
Ti124     V125    9.995   .     S
V125     Er129    10.002   1_455     S
V126     Ti124    9.995   1_655     S
V126     Er172    10.002   .     S
Er128     V131    10.002   .     S
Er129     V125    10.002   1_655     S
Er129     V132    10.002   .     S
Ti130     V133    9.995   .     S
Ti130     V131    9.995   .     S
Ti130     V132    9.995   .     S
V131     Er170    10.002   .     S
V132     Er157    10.002   .     S
V133     Er134    10.002   .     S
Er134     V138    10.002   .     S
Er135     V138    10.002   .     S
Er135     V149    10.002   .     S
V136     Ti137    9.995   .     S
V136     Er140    10.002   .     S
V136     Er141    10.002   .     S
Ti137     V139    9.995   .     S
Ti137     V138    9.995   .     S
V139     Er171    10.002   .     S
Er140     V145    10.002   .     S
Er141     V142    10.002   .     S
Er141     V149    10.002   .     S
V142     Ti144    9.995   .     S
V142     Er150    10.002   1_554     S
V143     Ti144    9.995   1_556     S
Ti144     V143    9.995   1_554     S
Ti144     V145    9.995   .     S
Ti146     V148    9.995   .     S
Ti146     V147    9.995   .     S
Ti146     V149    9.995   .     S
V147     Er158    10.002   .     S
Er150     V142    10.002   1_556     S
Er150     V156    10.002   .     S
Er151     V56    10.002   1_556     S
Er151     V153    10.002   .     S
Er152     V153    10.002   .     S
V153     Ti155    9.995   .     S
V154     Ti155    9.995   .     S
V154     Er157    10.002   .     S
Ti155     V156    9.995   .     S
Er157     V164    10.002   .     S
Er158     V162    10.002   1_565     S
V159     Ti160    9.995   1_565     S
Ti160     V159    9.995   1_545     S
Ti160     V162    9.995   .     S
Ti160     V161    9.995   .     S
V161     Er168    10.002   .     S
V161     Er169    10.002   .     S
V162     Er158    10.002   1_545     S
Er163     V173    10.002   .     S
Er163     V166    10.002   .     S
V164     Ti165    9.995   .     S
Ti165     V167    9.995   .     S
Ti165     V166    9.995   .     S
V166     Er168    10.002   .     S
V167     Er169    10.002   .     S
Er170     V111    10.002   1_655     S
Er172     V174    10.002   .     S
V173     Ti175    9.995   .     S
V174     Er112    10.002   1_545     S
V174     Ti175    9.995   .     S
Ti175     V176    9.995   1_545     S
V176     Ti175    9.995   1_565     S
