data_dpea
_audit_creation_date              2020-02-02
_audit_creation_method            'Pymatgen'
_symmetry_space_group_name_H-M    'P1'
_symmetry_Int_Tables_number       1
loop_
_symmetry_equiv_pos_as_xyz
  x,y,z
_cell_length_a                    58.8867
_cell_length_b                    58.8867
_cell_length_c                    58.8867
_cell_angle_alpha                 90.0
_cell_angle_beta                 90.0
_cell_angle_gamma                 90.0
loop_
_atom_site_label
_atom_site_type_symbol
_atom_site_fract_x
_atom_site_fract_y
_atom_site_fract_z
Ce1     Ce     0.4147   0.915   0.085
Ce2     Ce     0.4147   0.085   0.085
Ce3     Ce     0.4147   0.085   0.915
Ce4     Ce     0.4147   0.915   0.915
Ce5     Ce     0.5853   0.085   0.085
Ce6     Ce     0.5853   0.085   0.915
Ce7     Ce     0.5853   0.915   0.085
Ce8     Ce     0.5853   0.915   0.915
Ce9     Ce     0.085   0.4147   0.915
Ce10     Ce     0.085   0.4147   0.085
Ce11     Ce     0.915   0.4147   0.085
Ce12     Ce     0.915   0.4147   0.915
Ce13     Ce     0.085   0.5853   0.085
Ce14     Ce     0.085   0.5853   0.915
Ce15     Ce     0.915   0.5853   0.085
Ce16     Ce     0.915   0.5853   0.915
V17     V     0.7278   0.1518   0.1518
V18     V     0.1518   0.7278   0.1518
V19     V     0.1518   0.1518   0.7278
V20     V     0.2722   0.1518   0.1518
V21     V     0.1518   0.2722   0.1518
V22     V     0.1518   0.1518   0.2722
V23     V     0.7278   0.8482   0.1518
V24     V     0.1518   0.7278   0.8482
V25     V     0.8482   0.1518   0.7278
V26     V     0.8482   0.7278   0.1518
V27     V     0.7278   0.1518   0.8482
V28     V     0.8482   0.1518   0.2722
Ti29     Ti     0.5847   0.2766   0.5847
Ti30     Ti     0.5847   0.2766   0.4153
Ti31     Ti     0.4153   0.2766   0.5847
Ti32     Ti     0.4153   0.2766   0.4153
Er33     Er     0.6884   0.1918   0.6884
Er34     Er     0.3116   0.1918   0.6884
Er35     Er     0.6884   0.1918   0.3116
Er36     Er     0.3116   0.1918   0.3116
V37     V     0.2722   0.1518   0.8482
V38     V     0.1518   0.2722   0.8482
V39     V     0.2722   0.8482   0.1518
V40     V     0.8482   0.2722   0.1518
Ti41     Ti     0.5847   0.5847   0.2766
Ti42     Ti     0.4153   0.5847   0.2766
Ti43     Ti     0.5847   0.4153   0.2766
Ti44     Ti     0.4153   0.4153   0.2766
Er45     Er     0.6884   0.6884   0.1918
Er46     Er     0.6884   0.3116   0.1918
Er47     Er     0.3116   0.6884   0.1918
Er48     Er     0.3116   0.3116   0.1918
V49     V     0.1518   0.8482   0.7278
V50     V     0.1518   0.8482   0.2722
Ti51     Ti     0.2766   0.5847   0.5847
Ti52     Ti     0.2766   0.5847   0.4153
Ti53     Ti     0.2766   0.4153   0.5847
Ti54     Ti     0.2766   0.4153   0.4153
Er55     Er     0.1918   0.6884   0.6884
Er56     Er     0.1918   0.6884   0.3116
Er57     Er     0.1918   0.3116   0.6884
Er58     Er     0.1918   0.3116   0.3116
V59     V     0.7278   0.8482   0.8482
V60     V     0.8482   0.7278   0.8482
V61     V     0.8482   0.8482   0.7278
V62     V     0.8482   0.8482   0.2722
Ti63     Ti     0.7234   0.5847   0.5847
Ti64     Ti     0.7234   0.5847   0.4153
Ti65     Ti     0.7234   0.4153   0.5847
Ti66     Ti     0.7234   0.4153   0.4153
Er67     Er     0.8082   0.6884   0.6884
Er68     Er     0.8082   0.3116   0.6884
Er69     Er     0.8082   0.6884   0.3116
Er70     Er     0.8082   0.3116   0.3116
V71     V     0.8482   0.2722   0.8482
Ti72     Ti     0.5847   0.5847   0.7234
Ti73     Ti     0.5847   0.4153   0.7234
Ti74     Ti     0.4153   0.5847   0.7234
Ti75     Ti     0.4153   0.4153   0.7234
Er76     Er     0.6884   0.6884   0.8082
Er77     Er     0.3116   0.6884   0.8082
Er78     Er     0.6884   0.3116   0.8082
Er79     Er     0.3116   0.3116   0.8082
V80     V     0.2722   0.8482   0.8482
Ti81     Ti     0.5847   0.7234   0.5847
Ti82     Ti     0.5847   0.7234   0.4153
Ti83     Ti     0.4153   0.7234   0.5847
Ti84     Ti     0.4153   0.7234   0.4153
Er85     Er     0.6884   0.8082   0.6884
Er86     Er     0.6884   0.8082   0.3116
Er87     Er     0.3116   0.8082   0.6884
Er88     Er     0.3116   0.8082   0.3116
Ce89     Ce     0.085   0.915   0.4147
Ce90     Ce     0.085   0.085   0.4147
Ce91     Ce     0.915   0.085   0.4147
Ce92     Ce     0.915   0.915   0.4147
Ce93     Ce     0.085   0.915   0.5853
Ce94     Ce     0.085   0.085   0.5853
Ce95     Ce     0.915   0.085   0.5853
Ce96     Ce     0.915   0.915   0.5853
loop_
_geom_bond_atom_site_label_1
_geom_bond_atom_site_label_2
_geom_bond_distance
_geom_bond_site_symmetry_2
_ccdc_geom_bond_type
Ce1     Ce4    10.008   1_554     S
Ce1     Ce2    10.008   1_565     S
Ce1     Ce7    10.051   .     S
Ce1     V39    10.066   .     S
Ce2     Ce3    10.008   1_554     S
Ce2     Ce1    10.008   1_545     S
Ce2     Ce5    10.051   .     S
Ce2     V20    10.066   .     S
Ce3     Ce2    10.008   1_556     S
Ce3     Ce4    10.008   1_545     S
Ce3     Ce6    10.051   .     S
Ce3     V37    10.066   .     S
Ce4     Ce1    10.008   1_556     S
Ce4     Ce3    10.008   1_565     S
Ce4     Ce8    10.051   .     S
Ce4     V80    10.066   .     S
Ce5     Ce6    10.008   1_554     S
Ce5     Ce7    10.008   1_545     S
Ce5     V17    10.066   .     S
Ce6     Ce5    10.008   1_556     S
Ce6     Ce8    10.008   1_545     S
Ce6     V27    10.066   .     S
Ce7     Ce5    10.008   1_565     S
Ce7     Ce8    10.008   1_554     S
Ce7     V23    10.066   .     S
Ce8     Ce6    10.008   1_565     S
Ce8     Ce7    10.008   1_556     S
Ce8     V59    10.066   .     S
Ce9     Ce12    10.008   1_455     S
Ce9     Ce10    10.008   1_556     S
Ce9     Ce14    10.051   .     S
Ce9     V38    10.066   .     S
Ce10     Ce11    10.008   1_455     S
Ce10     Ce9    10.008   1_554     S
Ce10     Ce13    10.051   .     S
Ce10     V21    10.066   .     S
Ce11     Ce10    10.008   1_655     S
Ce11     Ce12    10.008   1_554     S
Ce11     Ce15    10.051   .     S
Ce11     V40    10.066   .     S
Ce12     Ce9    10.008   1_655     S
Ce12     Ce11    10.008   1_556     S
Ce12     Ce16    10.051   .     S
Ce12     V71    10.066   .     S
Ce13     Ce14    10.008   1_554     S
Ce13     Ce15    10.008   1_455     S
Ce13     V18    10.066   .     S
Ce14     Ce13    10.008   1_556     S
Ce14     Ce16    10.008   1_455     S
Ce14     V24    10.066   .     S
Ce15     Ce13    10.008   1_655     S
Ce15     Ce16    10.008   1_554     S
Ce15     V26    10.066   .     S
Ce16     Ce14    10.008   1_655     S
Ce16     Ce15    10.008   1_556     S
Ce16     V60    10.066   .     S
V17     Er46    9.975   .     S
V17     Er35    9.975   .     S
V17     V28    10.028   .     S
V17     V40    10.028   .     S
V18     Er56    9.975   .     S
V18     Er47    9.975   .     S
V18     V50    10.028   .     S
V18     V39    10.028   .     S
V19     Er34    9.975   .     S
V19     Er57    9.975   .     S
V19     V37    10.028   .     S
V19     V38    10.028   .     S
V19     Ce94    10.066   .     S
V20     Er48    9.975   .     S
V20     Er36    9.975   .     S
V20     V22    10.028   .     S
V20     V21    10.028   .     S
V21     Er48    9.975   .     S
V21     Er58    9.975   .     S
V21     V22    10.028   .     S
V22     Er58    9.975   .     S
V22     Er36    9.975   .     S
V22     Ce90    10.066   .     S
V23     Er45    9.975   .     S
V23     Er86    9.975   .     S
V23     V62    10.028   .     S
V23     V26    10.028   .     S
V24     Er55    9.975   .     S
V24     Er77    9.975   .     S
V24     V80    10.028   .     S
V24     V49    10.028   .     S
V25     Er33    9.975   .     S
V25     Er68    9.975   .     S
V25     V71    10.028   .     S
V25     V27    10.028   .     S
V25     Ce95    10.066   .     S
V26     Er45    9.975   .     S
V26     Er69    9.975   .     S
V26     V62    10.028   .     S
V27     Er33    9.975   .     S
V27     Er78    9.975   .     S
V27     V71    10.028   .     S
V28     Er35    9.975   .     S
V28     Er70    9.975   .     S
V28     V40    10.028   .     S
V28     Ce91    10.066   .     S
Ti29     Ti30    9.971   .     S
Ti29     Ti31    9.971   .     S
Ti29     Er33    9.974   .     S
Ti30     Ti32    9.971   .     S
Ti30     Er35    9.974   .     S
Ti31     Ti32    9.971   .     S
Ti31     Er34    9.974   .     S
Ti32     Er36    9.974   .     S
Er33     Er68    9.978   .     S
Er33     Er78    9.978   .     S
Er34     V37    9.975   .     S
Er34     Er57    9.978   .     S
Er34     Er79    9.978   .     S
Er35     Er70    9.978   .     S
Er35     Er46    9.978   .     S
Er36     Er58    9.978   .     S
Er36     Er48    9.978   .     S
V37     Er79    9.975   .     S
V37     V38    10.028   .     S
V38     Er57    9.975   .     S
V38     Er79    9.975   .     S
V39     Er47    9.975   .     S
V39     Er88    9.975   .     S
V39     V50    10.028   .     S
V40     Er70    9.975   .     S
V40     Er46    9.975   .     S
Ti41     Ti43    9.971   .     S
Ti41     Ti42    9.971   .     S
Ti41     Er45    9.974   .     S
Ti42     Ti44    9.971   .     S
Ti42     Er47    9.974   .     S
Ti43     Ti44    9.971   .     S
Ti43     Er46    9.974   .     S
Ti44     Er48    9.974   .     S
Er45     Er86    9.978   .     S
Er45     Er69    9.978   .     S
Er46     Er70    9.978   .     S
Er47     Er56    9.978   .     S
Er47     Er88    9.978   .     S
Er48     Er58    9.978   .     S
V49     Er55    9.975   .     S
V49     Er87    9.975   .     S
V49     V80    10.028   .     S
V49     Ce93    10.066   .     S
V50     Er56    9.975   .     S
V50     Er88    9.975   .     S
V50     Ce89    10.066   .     S
Ti51     Ti52    9.971   .     S
Ti51     Ti53    9.971   .     S
Ti51     Er55    9.974   .     S
Ti52     Ti54    9.971   .     S
Ti52     Er56    9.974   .     S
Ti53     Ti54    9.971   .     S
Ti53     Er57    9.974   .     S
Ti54     Er58    9.974   .     S
Er55     Er87    9.978   .     S
Er55     Er77    9.978   .     S
Er56     Er88    9.978   .     S
Er57     Er79    9.978   .     S
V59     Er76    9.975   .     S
V59     Er85    9.975   .     S
V59     V61    10.028   .     S
V59     V60    10.028   .     S
V60     Er67    9.975   .     S
V60     Er76    9.975   .     S
V60     V61    10.028   .     S
V61     Er85    9.975   .     S
V61     Er67    9.975   .     S
V61     Ce96    10.066   .     S
V62     Er69    9.975   .     S
V62     Er86    9.975   .     S
V62     Ce92    10.066   .     S
Ti63     Ti64    9.971   .     S
Ti63     Ti65    9.971   .     S
Ti63     Er67    9.974   .     S
Ti64     Ti66    9.971   .     S
Ti64     Er69    9.974   .     S
Ti65     Ti66    9.971   .     S
Ti65     Er68    9.974   .     S
Ti66     Er70    9.974   .     S
Er67     Er85    9.978   .     S
Er67     Er76    9.978   .     S
Er68     V71    9.975   .     S
Er68     Er78    9.978   .     S
Er69     Er86    9.978   .     S
V71     Er78    9.975   .     S
Ti72     Ti73    9.971   .     S
Ti72     Ti74    9.971   .     S
Ti72     Er76    9.974   .     S
Ti73     Ti75    9.971   .     S
Ti73     Er78    9.974   .     S
Ti74     Ti75    9.971   .     S
Ti74     Er77    9.974   .     S
Ti75     Er79    9.974   .     S
Er76     Er85    9.978   .     S
Er77     V80    9.975   .     S
Er77     Er87    9.978   .     S
V80     Er87    9.975   .     S
Ti81     Ti82    9.971   .     S
Ti81     Ti83    9.971   .     S
Ti81     Er85    9.974   .     S
Ti82     Ti84    9.971   .     S
Ti82     Er86    9.974   .     S
Ti83     Ti84    9.971   .     S
Ti83     Er87    9.974   .     S
Ti84     Er88    9.974   .     S
Ce89     Ce92    10.008   1_455     S
Ce89     Ce90    10.008   1_565     S
Ce89     Ce93    10.051   .     S
Ce90     Ce89    10.008   1_545     S
Ce90     Ce91    10.008   1_455     S
Ce90     Ce94    10.051   .     S
Ce91     Ce90    10.008   1_655     S
Ce91     Ce92    10.008   1_545     S
Ce91     Ce95    10.051   .     S
Ce92     Ce89    10.008   1_655     S
Ce92     Ce91    10.008   1_565     S
Ce92     Ce96    10.051   .     S
Ce93     Ce96    10.008   1_455     S
Ce93     Ce94    10.008   1_565     S
Ce94     Ce95    10.008   1_455     S
Ce94     Ce93    10.008   1_545     S
Ce95     Ce94    10.008   1_655     S
Ce95     Ce96    10.008   1_545     S
Ce96     Ce93    10.008   1_655     S
Ce96     Ce95    10.008   1_565     S
