data_dum
_audit_creation_date              2020-02-02
_audit_creation_method            'Pymatgen'
_symmetry_space_group_name_H-M    'P1'
_symmetry_Int_Tables_number       1
loop_
_symmetry_equiv_pos_as_xyz
  x,y,z
_cell_length_a                    71.9614
_cell_length_b                    71.9614
_cell_length_c                    20.0
_cell_angle_alpha                 90.0
_cell_angle_beta                 90.0
_cell_angle_gamma                 120.0
loop_
_atom_site_label
_atom_site_type_symbol
_atom_site_fract_x
_atom_site_fract_y
_atom_site_fract_z
Er1     Er     0.5401   0.4599   0.0
Er2     Er     0.5401   0.4599   0.5
Er3     Er     0.4599   0.5401   0.0
Er4     Er     0.4599   0.5401   0.5
V5     V     0.6203   0.3797   0.0
V6     V     0.6203   0.3797   0.5
V7     V     0.6203   0.2407   0.0
V8     V     0.6203   0.2407   0.5
V9     V     0.7593   0.3797   0.0
V10     V     0.7593   0.3797   0.5
Er11     Er     0.5401   0.0802   0.0
Er12     Er     0.5401   0.0802   0.5
Er13     Er     0.4599   0.9198   0.0
Er14     Er     0.4599   0.9198   0.5
V15     V     0.3797   0.6203   0.0
V16     V     0.3797   0.6203   0.5
V17     V     0.2407   0.6204   0.0
V18     V     0.2407   0.6204   0.5
V19     V     0.3797   0.7593   0.0
V20     V     0.3797   0.7593   0.5
Er21     Er     0.9198   0.4599   0.0
Er22     Er     0.9198   0.4599   0.5
Er23     Er     0.0802   0.5401   0.0
Er24     Er     0.0802   0.5401   0.5
loop_
_geom_bond_atom_site_label_1
_geom_bond_atom_site_label_2
_geom_bond_distance
_geom_bond_site_symmetry_2
_ccdc_geom_bond_type
Er1     Er2    10.0   .     S
Er1     Er2    10.0   1_554     S
Er1     Er3    10.0   .     S
Er1     V5    10.0   .     S
Er2     Er1    10.0   1_556     S
Er2     Er4    10.0   .     S
Er2     V6    10.0   .     S
Er3     Er4    10.0   .     S
Er3     Er4    10.0   1_554     S
Er3     V15    10.0   .     S
Er4     Er3    10.0   1_556     S
Er4     V16    10.0   .     S
V5     V7    10.0   .     S
V5     V9    10.0   .     S
V6     V8    10.0   .     S
V6     V10    10.0   .     S
V7     V9    10.0   .     S
V7     Er11    10.0   .     S
V8     V10    10.0   .     S
V8     Er12    10.0   .     S
V9     Er21    10.0   .     S
V10     Er22    10.0   .     S
Er11     Er13    10.0   1_545     S
Er11     Er12    10.0   .     S
Er11     Er12    10.0   1_554     S
Er12     Er14    10.0   1_545     S
Er12     Er11    10.0   1_556     S
Er13     Er14    10.0   .     S
Er13     Er14    10.0   1_554     S
Er13     Er11    10.0   1_565     S
Er13     V19    10.0   .     S
Er14     Er13    10.0   1_556     S
Er14     Er12    10.0   1_565     S
Er14     V20    10.0   .     S
V15     V17    10.0   .     S
V15     V19    10.0   .     S
V16     V18    10.0   .     S
V16     V20    10.0   .     S
V17     V19    10.0   .     S
V17     Er23    10.0   .     S
V18     V20    10.0   .     S
V18     Er24    10.0   .     S
Er21     Er22    10.0   .     S
Er21     Er22    10.0   1_554     S
Er21     Er23    10.0   1_655     S
Er22     Er21    10.0   1_556     S
Er22     Er24    10.0   1_655     S
Er23     Er21    10.0   1_455     S
Er23     Er24    10.0   .     S
Er23     Er24    10.0   1_554     S
Er24     Er22    10.0   1_455     S
Er24     Er23    10.0   1_556     S
