data_edie
_audit_creation_date              2020-02-02
_audit_creation_method            'Pymatgen'
_symmetry_space_group_name_H-M    'P1'
_symmetry_Int_Tables_number       1
loop_
_symmetry_equiv_pos_as_xyz
  x,y,z
_cell_length_a                    26.3298
_cell_length_b                    26.3298
_cell_length_c                    24.3919
_cell_angle_alpha                 90.0
_cell_angle_beta                 90.0
_cell_angle_gamma                 90.0
loop_
_atom_site_label
_atom_site_type_symbol
_atom_site_fract_x
_atom_site_fract_y
_atom_site_fract_z
Er1     Er     0.5   0.0   0.8816
Er2     Er     0.0   0.5   0.1184
V3     V     0.3101   0.3101   0.0
V4     V     0.6899   0.6899   0.0
V5     V     0.6899   0.3101   0.0
V6     V     0.3101   0.6899   0.0
Ti7     Ti     0.5   0.6899   0.645
Ti8     Ti     0.6899   0.5   0.355
Ti9     Ti     0.5   0.3101   0.645
Ti10     Ti     0.3101   0.5   0.355
loop_
_geom_bond_atom_site_label_1
_geom_bond_atom_site_label_2
_geom_bond_distance
_geom_bond_site_symmetry_2
_ccdc_geom_bond_type
Er1     V4    10.0   1_546     S
Er1     V3    10.0   1_556     S
Er1     V5    10.0   1_556     S
Er1     Ti9    10.0   .     S
Er1     Ti7    10.0   1_545     S
Er1     V6    10.0   1_546     S
Er2     V6    10.0   .     S
Er2     V5    10.0   1_455     S
Er2     V4    10.0   1_455     S
Er2     Ti10    10.0   .     S
Er2     Ti8    10.0   1_455     S
Er2     V3    10.0   .     S
V3     Er1    10.0   1_554     S
V3     Ti9    10.0   1_554     S
V3     Ti10    10.0   .     S
V3     V6    10.0   .     S
V3     V5    10.0   .     S
V4     Er1    10.0   1_564     S
V4     Ti7    10.0   1_554     S
V4     Er2    10.0   1_655     S
V4     Ti8    10.0   .     S
V4     V6    10.0   .     S
V4     V5    10.0   .     S
V5     Er1    10.0   1_554     S
V5     Ti9    10.0   1_554     S
V5     Er2    10.0   1_655     S
V5     Ti8    10.0   .     S
V6     Er1    10.0   1_564     S
V6     Ti7    10.0   1_554     S
V6     Ti10    10.0   .     S
Ti7     V4    10.0   1_556     S
Ti7     Er1    10.0   1_565     S
Ti7     V6    10.0   1_556     S
Ti7     Ti9    10.0   .     S
Ti7     Ti10    10.0   .     S
Ti7     Ti8    10.0   .     S
Ti8     Er2    10.0   1_655     S
Ti8     Ti10    10.0   .     S
Ti8     Ti9    10.0   .     S
Ti9     V3    10.0   1_556     S
Ti9     V5    10.0   1_556     S
Ti9     Ti10    10.0   .     S
