data_edp
_audit_creation_date              2020-02-02
_audit_creation_method            'Pymatgen'
_symmetry_space_group_name_H-M    'P1'
_symmetry_Int_Tables_number       1
loop_
_symmetry_equiv_pos_as_xyz
  x,y,z
_cell_length_a                    49.1992
_cell_length_b                    49.1992
_cell_length_c                    49.1992
_cell_angle_alpha                 90.0
_cell_angle_beta                 90.0
_cell_angle_gamma                 90.0
loop_
_atom_site_label
_atom_site_type_symbol
_atom_site_fract_x
_atom_site_fract_y
_atom_site_fract_z
Er1     Er     0.7924   0.7616   0.9182
Er2     Er     0.7616   0.9182   0.7924
Er3     Er     0.9182   0.7924   0.7616
V4     V     0.7373   0.6212   0.7819
V5     V     0.6212   0.7819   0.7373
V6     V     0.7819   0.7373   0.6212
Er7     Er     0.4182   0.7924   0.7384
Er8     Er     0.2924   0.7616   0.5818
Er9     Er     0.2616   0.9182   0.7076
V10     V     0.2819   0.7373   0.8788
V11     V     0.2373   0.6212   0.7181
V12     V     0.1212   0.7819   0.7627
Er13     Er     0.2924   0.7384   0.0818
Er14     Er     0.2616   0.5818   0.2076
Er15     Er     0.4182   0.7076   0.2384
V16     V     0.2373   0.8788   0.2181
V17     V     0.1212   0.7181   0.2627
V18     V     0.2819   0.7627   0.3788
Er19     Er     0.7076   0.2616   0.9182
Er20     Er     0.5818   0.2924   0.7616
Er21     Er     0.7384   0.4182   0.7924
V22     V     0.8788   0.2819   0.7373
V23     V     0.7181   0.2373   0.6212
V24     V     0.7627   0.1212   0.7819
Er25     Er     0.2076   0.2616   0.5818
Er26     Er     0.0818   0.2924   0.7384
Er27     Er     0.2384   0.4182   0.7076
V28     V     0.2181   0.2373   0.8788
V29     V     0.2627   0.1212   0.7181
V30     V     0.3788   0.2819   0.7627
Er31     Er     0.0818   0.2076   0.2384
Er32     Er     0.2384   0.0818   0.2076
Er33     Er     0.2076   0.2384   0.0818
V34     V     0.2627   0.3788   0.2181
V35     V     0.3788   0.2181   0.2627
V36     V     0.2181   0.2627   0.3788
Er37     Er     0.7616   0.5818   0.2924
Er38     Er     0.7924   0.7384   0.4182
Er39     Er     0.9182   0.7076   0.2616
V40     V     0.7373   0.8788   0.2819
V41     V     0.6212   0.7181   0.2373
V42     V     0.7819   0.7627   0.1212
Er43     Er     0.7384   0.0818   0.2924
Er44     Er     0.5818   0.2076   0.2616
Er45     Er     0.7076   0.2384   0.4182
V46     V     0.8788   0.2181   0.2373
V47     V     0.7627   0.3788   0.2819
V48     V     0.7181   0.2627   0.1212
loop_
_geom_bond_atom_site_label_1
_geom_bond_atom_site_label_2
_geom_bond_distance
_geom_bond_site_symmetry_2
_ccdc_geom_bond_type
Er1     Er2    10.0   .     S
Er1     Er3    10.0   .     S
Er1     V4    10.0   .     S
Er1     V42    10.0   1_556     S
Er2     Er3    10.0   .     S
Er2     V5    10.0   .     S
Er2     V24    10.0   1_565     S
Er3     V6    10.0   .     S
Er3     V12    10.0   1_655     S
V4     V6    10.0   .     S
V4     V5    10.0   .     S
V4     Er21    10.0   .     S
V5     V6    10.0   .     S
V5     Er7    10.0   .     S
V6     Er38    10.0   .     S
Er7     Er8    10.0   .     S
Er7     Er9    10.0   .     S
Er7     V10    10.0   .     S
Er8     Er9    10.0   .     S
Er8     V11    10.0   .     S
Er8     V18    10.0   .     S
Er9     V12    10.0   .     S
Er9     V29    10.0   1_565     S
V10     V12    10.0   .     S
V10     V11    10.0   .     S
V10     Er13    10.0   1_556     S
V11     V12    10.0   .     S
V11     Er27    10.0   .     S
V12     Er3    10.0   1_455     S
Er13     V10    10.0   1_554     S
Er13     Er14    10.0   .     S
Er13     Er15    10.0   .     S
Er13     V16    10.0   .     S
Er14     Er15    10.0   .     S
Er14     V17    10.0   .     S
Er14     V34    10.0   .     S
Er15     V18    10.0   .     S
Er15     V41    10.0   .     S
V16     V18    10.0   .     S
V16     V17    10.0   .     S
V16     Er32    10.0   1_565     S
V17     V18    10.0   .     S
V17     Er39    10.0   1_455     S
Er19     Er21    10.0   .     S
Er19     Er20    10.0   .     S
Er19     V24    10.0   .     S
Er19     V48    10.0   1_556     S
Er20     Er21    10.0   .     S
Er20     V23    10.0   .     S
Er20     V30    10.0   .     S
Er21     V22    10.0   .     S
V22     V24    10.0   .     S
V22     V23    10.0   .     S
V22     Er26    10.0   1_655     S
V23     V24    10.0   .     S
V23     Er45    10.0   .     S
V24     Er2    10.0   1_545     S
Er25     Er27    10.0   .     S
Er25     Er26    10.0   .     S
Er25     V29    10.0   .     S
Er25     V36    10.0   .     S
Er26     V22    10.0   1_455     S
Er26     Er27    10.0   .     S
Er26     V28    10.0   .     S
Er27     V30    10.0   .     S
V28     V30    10.0   .     S
V28     V29    10.0   .     S
V28     Er33    10.0   1_556     S
V29     V30    10.0   .     S
V29     Er9    10.0   1_545     S
Er31     Er33    10.0   .     S
Er31     Er32    10.0   .     S
Er31     V36    10.0   .     S
Er31     V46    10.0   1_455     S
Er32     V16    10.0   1_545     S
Er32     Er33    10.0   .     S
Er32     V35    10.0   .     S
Er33     V28    10.0   1_554     S
Er33     V34    10.0   .     S
V34     V36    10.0   .     S
V34     V35    10.0   .     S
V35     V36    10.0   .     S
V35     Er44    10.0   .     S
Er37     Er39    10.0   .     S
Er37     Er38    10.0   .     S
Er37     V41    10.0   .     S
Er37     V47    10.0   .     S
Er38     Er39    10.0   .     S
Er38     V40    10.0   .     S
Er39     V17    10.0   1_655     S
Er39     V42    10.0   .     S
V40     V42    10.0   .     S
V40     V41    10.0   .     S
V40     Er43    10.0   1_565     S
V41     V42    10.0   .     S
V42     Er1    10.0   1_554     S
Er43     V40    10.0   1_545     S
Er43     Er44    10.0   .     S
Er43     Er45    10.0   .     S
Er43     V46    10.0   .     S
Er44     Er45    10.0   .     S
Er44     V48    10.0   .     S
Er45     V47    10.0   .     S
V46     V47    10.0   .     S
V46     V48    10.0   .     S
V46     Er31    10.0   1_655     S
V47     V48    10.0   .     S
V48     Er19    10.0   1_554     S
