data_edq
_audit_creation_date              2020-02-02
_audit_creation_method            'Pymatgen'
_symmetry_space_group_name_H-M    'P1'
_symmetry_Int_Tables_number       1
loop_
_symmetry_equiv_pos_as_xyz
  x,y,z
_cell_length_a                    36.4575
_cell_length_b                    36.4575
_cell_length_c                    36.4575
_cell_angle_alpha                 90.0
_cell_angle_beta                 90.0
_cell_angle_gamma                 90.0
loop_
_atom_site_label
_atom_site_type_symbol
_atom_site_fract_x
_atom_site_fract_y
_atom_site_fract_z
V1     V     0.2499   0.8628   0.0
V2     V     0.7501   0.1372   0.0
V3     V     0.0   0.7501   0.1372
V4     V     0.0   0.2499   0.8628
V5     V     0.7501   0.8628   0.0
V6     V     0.2499   0.1372   0.0
V7     V     0.0   0.7501   0.8628
V8     V     0.0   0.2499   0.1372
V9     V     0.8628   0.0   0.2499
V10     V     0.1372   0.0   0.7501
V11     V     0.8628   0.0   0.7501
V12     V     0.1372   0.0   0.2499
V13     V     0.5   0.3628   0.2501
Er14     Er     0.75   0.25   0.25
V15     V     0.5   0.3628   0.7499
V16     V     0.6372   0.2501   0.5
Er17     Er     0.75   0.25   0.75
V18     V     0.7499   0.5   0.3628
V19     V     0.5   0.6372   0.2501
Er20     Er     0.75   0.75   0.25
V21     V     0.6372   0.7499   0.5
V22     V     0.7499   0.5   0.6372
V23     V     0.5   0.6372   0.7499
Er24     Er     0.75   0.75   0.75
V25     V     0.3628   0.7499   0.5
V26     V     0.2501   0.5   0.6372
Er27     Er     0.25   0.75   0.75
V28     V     0.3628   0.2501   0.5
Er29     Er     0.25   0.25   0.75
V30     V     0.2501   0.5   0.3628
Er31     Er     0.25   0.75   0.25
Er32     Er     0.25   0.25   0.25
loop_
_geom_bond_atom_site_label_1
_geom_bond_atom_site_label_2
_geom_bond_distance
_geom_bond_site_symmetry_2
_ccdc_geom_bond_type
V1     Er31    10.0   .     S
V1     Er27    10.0   1_554     S
V1     V6    10.0   1_565     S
V2     Er14    10.0   .     S
V2     Er17    10.0   1_554     S
V2     V5    10.0   1_545     S
V3     Er31    10.0   .     S
V3     Er20    10.0   1_455     S
V3     V7    10.0   1_554     S
V4     Er29    10.0   .     S
V4     Er17    10.0   1_455     S
V4     V8    10.0   1_556     S
V5     Er20    10.0   .     S
V5     Er24    10.0   1_554     S
V5     V2    10.0   1_565     S
V6     Er32    10.0   .     S
V6     Er29    10.0   1_554     S
V6     V1    10.0   1_545     S
V7     Er27    10.0   .     S
V7     Er24    10.0   1_455     S
V7     V3    10.0   1_556     S
V8     Er32    10.0   .     S
V8     Er14    10.0   1_455     S
V8     V4    10.0   1_554     S
V9     Er14    10.0   .     S
V9     Er20    10.0   1_545     S
V9     V12    10.0   1_655     S
V10     Er29    10.0   .     S
V10     Er27    10.0   1_545     S
V10     V11    10.0   1_455     S
V11     Er17    10.0   .     S
V11     Er24    10.0   1_545     S
V11     V10    10.0   1_655     S
V12     Er32    10.0   .     S
V12     Er31    10.0   1_545     S
V12     V9    10.0   1_455     S
V13     Er14    10.0   .     S
V13     Er32    10.0   .     S
V13     V19    10.0   .     S
Er14     V8    10.0   1_655     S
Er14     V16    10.0   .     S
Er14     V18    10.0   .     S
V15     Er17    10.0   .     S
V15     Er29    10.0   .     S
V15     V23    10.0   .     S
V16     Er17    10.0   .     S
V16     V28    10.0   .     S
Er17     V2    10.0   1_556     S
Er17     V4    10.0   1_655     S
Er17     V22    10.0   .     S
V18     Er20    10.0   .     S
V18     V22    10.0   .     S
V19     Er20    10.0   .     S
V19     Er31    10.0   .     S
Er20     V3    10.0   1_655     S
Er20     V9    10.0   1_565     S
Er20     V21    10.0   .     S
V21     Er24    10.0   .     S
V21     V25    10.0   .     S
V22     Er24    10.0   .     S
V23     Er27    10.0   .     S
V23     Er24    10.0   .     S
Er24     V5    10.0   1_556     S
Er24     V7    10.0   1_655     S
Er24     V11    10.0   1_565     S
V25     Er27    10.0   .     S
V25     Er31    10.0   .     S
V26     Er29    10.0   .     S
V26     Er27    10.0   .     S
V26     V30    10.0   .     S
Er27     V1    10.0   1_556     S
Er27     V10    10.0   1_565     S
V28     Er32    10.0   .     S
V28     Er29    10.0   .     S
Er29     V6    10.0   1_556     S
V30     Er32    10.0   .     S
V30     Er31    10.0   .     S
Er31     V12    10.0   1_565     S
