data_eed
_audit_creation_date              2020-02-02
_audit_creation_method            'Pymatgen'
_symmetry_space_group_name_H-M    'P1'
_symmetry_Int_Tables_number       1
loop_
_symmetry_equiv_pos_as_xyz
  x,y,z
_cell_length_a                    24.4621
_cell_length_b                    24.4621
_cell_length_c                    49.12
_cell_angle_alpha                 90.0
_cell_angle_beta                 90.0
_cell_angle_gamma                 90.0
loop_
_atom_site_label
_atom_site_type_symbol
_atom_site_fract_x
_atom_site_fract_y
_atom_site_fract_z
Ti1     Ti     0.5   0.0   0.25
Ti2     Ti     0.0   0.5   0.75
Ti3     Ti     0.5   0.0   0.75
Er4     Er     0.1671   0.8329   0.6661
Er5     Er     0.8329   0.1671   0.6661
Er6     Er     0.1671   0.8329   0.3339
V7     V     0.0   0.0   0.5
Er8     Er     0.8329   0.1671   0.3339
V9     V     0.0   0.0   0.0
Er10     Er     0.1671   0.1671   0.1661
Er11     Er     0.8329   0.8329   0.1661
Er12     Er     0.1671   0.1671   0.8339
Er13     Er     0.8329   0.8329   0.8339
Ti14     Ti     0.0   0.5   0.25
loop_
_geom_bond_atom_site_label_1
_geom_bond_atom_site_label_2
_geom_bond_distance
_geom_bond_site_symmetry_2
_ccdc_geom_bond_type
Ti1     Er11    10.0   1_545     S
Ti1     Er8    10.0   .     S
Ti1     Er6    10.0   1_545     S
Ti1     Er10    10.0   .     S
Ti2     Er13    10.0   1_455     S
Ti2     Er4    10.0   .     S
Ti2     Er5    10.0   1_455     S
Ti2     Er12    10.0   .     S
Ti3     Er5    10.0   .     S
Ti3     Er13    10.0   1_545     S
Ti3     Er4    10.0   1_545     S
Ti3     Er12    10.0   .     S
Er4     V7    10.0   1_565     S
Er4     Ti3    10.0   1_565     S
Er5     V7    10.0   1_655     S
Er5     Ti2    10.0   1_655     S
Er6     V7    10.0   1_565     S
Er6     Ti1    10.0   1_565     S
Er6     Ti14    10.0   .     S
V7     Er4    10.0   1_545     S
V7     Er5    10.0   1_455     S
V7     Er6    10.0   1_545     S
V7     Er8    10.0   1_455     S
Er8     V7    10.0   1_655     S
Er8     Ti14    10.0   1_655     S
V9     Er10    10.0   .     S
V9     Er11    10.0   1_445     S
V9     Er12    10.0   1_554     S
V9     Er13    10.0   1_444     S
Er10     Ti14    10.0   .     S
Er11     Ti1    10.0   1_565     S
Er11     V9    10.0   1_665     S
Er11     Ti14    10.0   1_655     S
Er12     V9    10.0   1_556     S
Er13     Ti2    10.0   1_655     S
Er13     Ti3    10.0   1_565     S
Er13     V9    10.0   1_666     S
Ti14     Er8    10.0   1_455     S
Ti14     Er11    10.0   1_455     S
