data_eee
_audit_creation_date              2020-02-02
_audit_creation_method            'Pymatgen'
_symmetry_space_group_name_H-M    'P1'
_symmetry_Int_Tables_number       1
loop_
_symmetry_equiv_pos_as_xyz
  x,y,z
_cell_length_a                    25.1198
_cell_length_b                    25.1198
_cell_length_c                    76.6992
_cell_angle_alpha                 90.0
_cell_angle_beta                 90.0
_cell_angle_gamma                 120.0
loop_
_atom_site_label
_atom_site_type_symbol
_atom_site_fract_x
_atom_site_fract_y
_atom_site_fract_z
Er1     Er     0.6667   0.3333   0.4591
V2     V     0.9972   0.3967   0.3749
V3     V     0.6033   0.6005   0.3749
V4     V     0.3995   0.0028   0.3749
Er5     Er     0.0   0.0   0.3742
V6     V     0.0634   0.3305   0.4584
V7     V     0.6695   0.7328   0.4584
V8     V     0.2672   0.9366   0.4584
Er9     Er     0.3333   0.6667   0.2924
V10     V     0.6639   0.9338   0.2082
V11     V     0.0662   0.73   0.2082
V12     V     0.27   0.3361   0.2082
Er13     Er     0.6667   0.3333   0.2076
V14     V     0.73   0.0662   0.2918
V15     V     0.9338   0.6639   0.2918
V16     V     0.3361   0.27   0.2918
Er17     Er     0.0   0.0   0.1258
V18     V     0.3305   0.0634   0.0415
V19     V     0.9366   0.2672   0.0415
V20     V     0.7328   0.6695   0.0415
Er21     Er     0.3333   0.6667   0.0409
V22     V     0.3967   0.9972   0.1251
V23     V     0.0028   0.3995   0.1251
V24     V     0.6005   0.6033   0.1251
Er25     Er     0.3333   0.6667   0.5409
V26     V     0.0028   0.6033   0.6251
V27     V     0.3967   0.3995   0.6251
V28     V     0.6005   0.9972   0.6251
Er29     Er     0.0   0.0   0.6258
V30     V     0.9366   0.6695   0.5416
V31     V     0.7328   0.0634   0.5416
V32     V     0.3305   0.2672   0.5416
Er33     Er     0.3333   0.6667   0.7924
V34     V     0.27   0.9338   0.7082
V35     V     0.0662   0.3361   0.7082
V36     V     0.6639   0.73   0.7082
Er37     Er     0.6667   0.3333   0.7076
V38     V     0.9338   0.27   0.7918
V39     V     0.73   0.6639   0.7918
V40     V     0.3361   0.0662   0.7918
Er41     Er     0.0   0.0   0.8742
V42     V     0.6695   0.9366   0.9584
V43     V     0.0634   0.7328   0.9584
V44     V     0.2672   0.3305   0.9584
Er45     Er     0.6667   0.3333   0.9591
V46     V     0.9972   0.6005   0.8749
V47     V     0.6033   0.0028   0.8749
V48     V     0.3995   0.3967   0.8749
loop_
_geom_bond_atom_site_label_1
_geom_bond_atom_site_label_2
_geom_bond_distance
_geom_bond_site_symmetry_2
_ccdc_geom_bond_type
Er1     V2    10.0   .     S
Er1     V6    10.0   1_655     S
Er1     V31    10.0   .     S
Er1     V4    10.0   .     S
Er1     V8    10.0   1_545     S
Er1     V32    10.0   .     S
Er1     V3    10.0   .     S
Er1     V7    10.0   .     S
Er1     V30    10.0   .     S
V2     Er5    10.0   1_655     S
V2     Er9    10.0   1_655     S
V3     Er5    10.0   1_665     S
V3     Er9    10.0   .     S
V4     Er5    10.0   .     S
V4     Er9    10.0   1_545     S
Er5     V7    10.0   1_445     S
Er5     V3    10.0   1_445     S
Er5     V15    10.0   1_445     S
Er5     V6    10.0   .     S
Er5     V2    10.0   1_455     S
Er5     V14    10.0   1_455     S
Er5     V8    10.0   1_545     S
Er5     V16    10.0   .     S
V6     Er1    10.0   1_455     S
V6     Er25    10.0   .     S
V7     Er5    10.0   1_665     S
V7     Er25    10.0   .     S
V8     Er1    10.0   1_565     S
V8     Er5    10.0   1_565     S
V8     Er25    10.0   .     S
Er9     V11    10.0   .     S
Er9     V15    10.0   1_455     S
Er9     V2    10.0   1_455     S
Er9     V10    10.0   .     S
Er9     V14    10.0   1_565     S
Er9     V4    10.0   1_565     S
Er9     V12    10.0   .     S
Er9     V16    10.0   .     S
V10     Er13    10.0   1_565     S
V10     Er17    10.0   1_665     S
V11     Er13    10.0   1_455     S
V11     Er17    10.0   1_565     S
V12     Er13    10.0   .     S
V12     Er17    10.0   .     S
Er13     V15    10.0   .     S
Er13     V11    10.0   1_655     S
Er13     V23    10.0   1_655     S
Er13     V14    10.0   .     S
Er13     V10    10.0   1_545     S
Er13     V22    10.0   1_545     S
Er13     V16    10.0   .     S
Er13     V24    10.0   .     S
V14     Er5    10.0   1_655     S
V14     Er9    10.0   1_545     S
V15     Er5    10.0   1_665     S
V15     Er9    10.0   1_655     S
Er17     V20    10.0   1_445     S
Er17     V24    10.0   1_445     S
Er17     V10    10.0   1_445     S
Er17     V18    10.0   .     S
Er17     V22    10.0   1_545     S
Er17     V11    10.0   1_545     S
Er17     V19    10.0   1_455     S
Er17     V23    10.0   .     S
V18     Er21    10.0   1_545     S
V18     Er45    10.0   1_554     S
V19     Er17    10.0   1_655     S
V19     Er21    10.0   1_655     S
V19     Er45    10.0   1_554     S
V20     Er17    10.0   1_665     S
V20     Er21    10.0   .     S
V20     Er45    10.0   1_554     S
Er21     V23    10.0   .     S
Er21     V19    10.0   1_455     S
Er21     V44    10.0   1_554     S
Er21     V24    10.0   .     S
Er21     V42    10.0   1_554     S
Er21     V22    10.0   .     S
Er21     V18    10.0   1_565     S
Er21     V43    10.0   1_554     S
V22     Er13    10.0   1_565     S
V22     Er17    10.0   1_565     S
V23     Er13    10.0   1_455     S
V24     Er17    10.0   1_665     S
Er25     V26    10.0   .     S
Er25     V30    10.0   1_455     S
Er25     V28    10.0   .     S
Er25     V31    10.0   1_565     S
Er25     V27    10.0   .     S
Er25     V32    10.0   .     S
V26     Er29    10.0   1_565     S
V26     Er37    10.0   1_455     S
V27     Er29    10.0   .     S
V27     Er37    10.0   .     S
V28     Er29    10.0   1_665     S
V28     Er37    10.0   1_565     S
Er29     V30    10.0   1_445     S
Er29     V26    10.0   1_545     S
Er29     V34    10.0   1_545     S
Er29     V32    10.0   .     S
Er29     V35    10.0   .     S
Er29     V31    10.0   1_455     S
Er29     V28    10.0   1_445     S
Er29     V36    10.0   1_445     S
V30     Er25    10.0   1_655     S
V30     Er29    10.0   1_665     S
V31     Er25    10.0   1_545     S
V31     Er29    10.0   1_655     S
Er33     V34    10.0   .     S
Er33     V40    10.0   1_565     S
Er33     V47    10.0   1_565     S
Er33     V36    10.0   .     S
Er33     V39    10.0   .     S
Er33     V48    10.0   .     S
Er33     V35    10.0   .     S
Er33     V38    10.0   1_455     S
Er33     V46    10.0   1_455     S
V34     Er29    10.0   1_565     S
V34     Er37    10.0   1_565     S
V35     Er37    10.0   1_455     S
V36     Er29    10.0   1_665     S
V36     Er37    10.0   .     S
Er37     V38    10.0   .     S
Er37     V35    10.0   1_655     S
Er37     V26    10.0   1_655     S
Er37     V39    10.0   .     S
Er37     V40    10.0   .     S
Er37     V34    10.0   1_545     S
Er37     V28    10.0   1_545     S
V38     Er33    10.0   1_655     S
V38     Er41    10.0   1_655     S
V39     Er41    10.0   1_665     S
V40     Er33    10.0   1_545     S
V40     Er41    10.0   .     S
Er41     V44    10.0   .     S
Er41     V48    10.0   .     S
Er41     V42    10.0   1_445     S
Er41     V47    10.0   1_455     S
Er41     V38    10.0   1_455     S
Er41     V43    10.0   1_545     S
Er41     V46    10.0   1_445     S
Er41     V39    10.0   1_445     S
V42     Er21    10.0   1_556     S
V42     Er41    10.0   1_665     S
V42     Er45    10.0   1_565     S
V43     Er21    10.0   1_556     S
V43     Er41    10.0   1_565     S
V43     Er45    10.0   1_455     S
V44     Er21    10.0   1_556     S
V44     Er45    10.0   .     S
Er45     V46    10.0   .     S
Er45     V43    10.0   1_655     S
Er45     V20    10.0   1_556     S
Er45     V48    10.0   .     S
Er45     V18    10.0   1_556     S
Er45     V47    10.0   .     S
Er45     V42    10.0   1_545     S
Er45     V19    10.0   1_556     S
V46     Er33    10.0   1_655     S
V46     Er41    10.0   1_665     S
V47     Er33    10.0   1_545     S
V47     Er41    10.0   1_655     S
