data_ele
_audit_creation_date              2020-02-02
_audit_creation_method            'Pymatgen'
_symmetry_space_group_name_H-M    'P1'
_symmetry_Int_Tables_number       1
loop_
_symmetry_equiv_pos_as_xyz
  x,y,z
_cell_length_a                    67.3011
_cell_length_b                    17.3204
_cell_length_c                    20.0
_cell_angle_alpha                 90.0
_cell_angle_beta                 90.0
_cell_angle_gamma                 90.0
loop_
_atom_site_label
_atom_site_type_symbol
_atom_site_fract_x
_atom_site_fract_y
_atom_site_fract_z
V1     V     0.0607   0.6667   0.0
V2     V     0.0607   0.6667   0.5
V3     V     0.9393   0.3333   0.0
V4     V     0.9393   0.3333   0.5
V5     V     0.0607   0.1667   0.25
V6     V     0.0607   0.1667   0.75
V7     V     0.9393   0.8333   0.25
V8     V     0.9393   0.8333   0.75
V9     V     0.6893   0.4167   0.125
V10     V     0.6893   0.4167   0.625
V11     V     0.8107   0.0833   0.125
V12     V     0.8107   0.0833   0.625
V13     V     0.6893   0.9167   0.375
V14     V     0.6893   0.9167   0.875
V15     V     0.8107   0.5833   0.375
V16     V     0.8107   0.5833   0.875
V17     V     0.5607   0.6667   0.25
V18     V     0.5607   0.6667   0.75
V19     V     0.4393   0.3333   0.25
V20     V     0.4393   0.3333   0.75
V21     V     0.5607   0.1667   0.0
V22     V     0.5607   0.1667   0.5
V23     V     0.4393   0.8333   0.0
V24     V     0.4393   0.8333   0.5
V25     V     0.3107   0.0833   0.375
V26     V     0.3107   0.0833   0.875
V27     V     0.1893   0.4167   0.375
V28     V     0.1893   0.4167   0.875
V29     V     0.3107   0.5833   0.125
V30     V     0.3107   0.5833   0.625
V31     V     0.1893   0.9167   0.125
V32     V     0.1893   0.9167   0.625
loop_
_geom_bond_atom_site_label_1
_geom_bond_atom_site_label_2
_geom_bond_distance
_geom_bond_site_symmetry_2
_ccdc_geom_bond_type
V1     V6    10.0   1_564     S
V1     V8    10.0   1_454     S
V1     V6    10.0   1_554     S
V1     V5    10.0   .     S
V1     V3    10.0   1_455     S
V1     V5    10.0   1_565     S
V1     V7    10.0   1_455     S
V1     V2    10.0   .     S
V1     V2    10.0   1_554     S
V1     V31    10.0   .     S
V1     V28    10.0   1_554     S
V2     V5    10.0   1_565     S
V2     V7    10.0   1_455     S
V2     V5    10.0   .     S
V2     V6    10.0   .     S
V2     V4    10.0   1_455     S
V2     V6    10.0   1_565     S
V2     V8    10.0   1_455     S
V2     V1    10.0   1_556     S
V2     V32    10.0   .     S
V2     V27    10.0   .     S
V3     V8    10.0   1_554     S
V3     V6    10.0   1_654     S
V3     V8    10.0   1_544     S
V3     V5    10.0   1_655     S
V3     V7    10.0   1_545     S
V3     V1    10.0   1_655     S
V3     V7    10.0   .     S
V3     V4    10.0   .     S
V3     V4    10.0   1_554     S
V3     V16    10.0   1_554     S
V3     V11    10.0   .     S
V4     V7    10.0   .     S
V4     V5    10.0   1_655     S
V4     V7    10.0   1_545     S
V4     V6    10.0   1_655     S
V4     V8    10.0   1_545     S
V4     V2    10.0   1_655     S
V4     V8    10.0   .     S
V4     V3    10.0   1_556     S
V4     V15    10.0   .     S
V4     V12    10.0   .     S
V5     V2    10.0   1_545     S
V5     V4    10.0   1_455     S
V5     V3    10.0   1_455     S
V5     V7    10.0   1_445     S
V5     V1    10.0   1_545     S
V5     V6    10.0   1_554     S
V5     V6    10.0   .     S
V5     V31    10.0   1_545     S
V5     V27    10.0   .     S
V6     V1    10.0   1_546     S
V6     V1    10.0   1_556     S
V6     V3    10.0   1_456     S
V6     V4    10.0   1_455     S
V6     V8    10.0   1_445     S
V6     V2    10.0   1_545     S
V6     V5    10.0   1_556     S
V6     V32    10.0   1_545     S
V6     V28    10.0   .     S
V7     V2    10.0   1_655     S
V7     V4    10.0   1_565     S
V7     V3    10.0   1_565     S
V7     V5    10.0   1_665     S
V7     V1    10.0   1_655     S
V7     V8    10.0   1_554     S
V7     V8    10.0   .     S
V7     V15    10.0   .     S
V7     V11    10.0   1_565     S
V8     V1    10.0   1_656     S
V8     V3    10.0   1_556     S
V8     V3    10.0   1_566     S
V8     V4    10.0   1_565     S
V8     V6    10.0   1_665     S
V8     V2    10.0   1_655     S
V8     V7    10.0   1_556     S
V8     V16    10.0   .     S
V8     V12    10.0   1_565     S
V9     V14    10.0   1_554     S
V9     V16    10.0   1_554     S
V9     V13    10.0   1_545     S
V9     V13    10.0   .     S
V9     V15    10.0   .     S
V9     V11    10.0   .     S
V9     V14    10.0   1_544     S
V9     V10    10.0   .     S
V9     V10    10.0   1_554     S
V9     V17    10.0   .     S
V9     V21    10.0   .     S
V10     V13    10.0   .     S
V10     V15    10.0   .     S
V10     V14    10.0   1_545     S
V10     V14    10.0   .     S
V10     V16    10.0   .     S
V10     V12    10.0   .     S
V10     V13    10.0   1_545     S
V10     V9    10.0   1_556     S
V10     V18    10.0   .     S
V10     V22    10.0   .     S
V11     V7    10.0   1_545     S
V11     V16    10.0   1_554     S
V11     V15    10.0   1_545     S
V11     V13    10.0   1_545     S
V11     V15    10.0   .     S
V11     V14    10.0   1_544     S
V11     V16    10.0   1_544     S
V11     V12    10.0   .     S
V11     V12    10.0   1_554     S
V12     V8    10.0   1_545     S
V12     V15    10.0   .     S
V12     V16    10.0   1_545     S
V12     V14    10.0   1_545     S
V12     V16    10.0   .     S
V12     V13    10.0   1_545     S
V12     V15    10.0   1_545     S
V12     V11    10.0   1_556     S
V13     V11    10.0   1_565     S
V13     V9    10.0   1_565     S
V13     V15    10.0   .     S
V13     V10    10.0   1_565     S
V13     V12    10.0   1_565     S
V13     V14    10.0   1_554     S
V13     V14    10.0   .     S
V13     V17    10.0   .     S
V13     V22    10.0   1_565     S
V14     V9    10.0   1_556     S
V14     V12    10.0   1_565     S
V14     V10    10.0   1_565     S
V14     V16    10.0   .     S
V14     V9    10.0   1_566     S
V14     V11    10.0   1_566     S
V14     V13    10.0   1_556     S
V14     V18    10.0   .     S
V14     V21    10.0   1_566     S
V15     V11    10.0   1_565     S
V15     V12    10.0   1_565     S
V15     V16    10.0   1_554     S
V15     V16    10.0   .     S
V16     V3    10.0   1_556     S
V16     V9    10.0   1_556     S
V16     V11    10.0   1_556     S
V16     V12    10.0   1_565     S
V16     V11    10.0   1_566     S
V16     V15    10.0   1_556     S
V17     V23    10.0   .     S
V17     V21    10.0   1_565     S
V17     V21    10.0   .     S
V17     V22    10.0   .     S
V17     V19    10.0   .     S
V17     V22    10.0   1_565     S
V17     V24    10.0   .     S
V17     V18    10.0   1_554     S
V17     V18    10.0   .     S
V18     V24    10.0   .     S
V18     V22    10.0   1_565     S
V18     V22    10.0   .     S
V18     V21    10.0   1_556     S
V18     V20    10.0   .     S
V18     V21    10.0   1_566     S
V18     V23    10.0   1_556     S
V18     V17    10.0   1_556     S
V19     V23    10.0   .     S
V19     V21    10.0   .     S
V19     V23    10.0   1_545     S
V19     V24    10.0   1_545     S
V19     V22    10.0   .     S
V19     V24    10.0   .     S
V19     V20    10.0   1_554     S
V19     V20    10.0   .     S
V19     V29    10.0   .     S
V19     V25    10.0   .     S
V20     V24    10.0   .     S
V20     V22    10.0   .     S
V20     V24    10.0   1_545     S
V20     V23    10.0   1_546     S
V20     V21    10.0   1_556     S
V20     V23    10.0   1_556     S
V20     V19    10.0   1_556     S
V20     V30    10.0   .     S
V20     V26    10.0   .     S
V21     V14    10.0   1_544     S
V21     V17    10.0   1_545     S
V21     V20    10.0   1_554     S
V21     V18    10.0   1_554     S
V21     V23    10.0   1_545     S
V21     V18    10.0   1_544     S
V21     V22    10.0   .     S
V21     V22    10.0   1_554     S
V22     V13    10.0   1_545     S
V22     V18    10.0   1_545     S
V22     V24    10.0   1_545     S
V22     V17    10.0   1_545     S
V22     V21    10.0   1_556     S
V23     V19    10.0   1_565     S
V23     V20    10.0   1_564     S
V23     V21    10.0   1_565     S
V23     V18    10.0   1_554     S
V23     V20    10.0   1_554     S
V23     V24    10.0   .     S
V23     V24    10.0   1_554     S
V23     V29    10.0   .     S
V23     V26    10.0   1_564     S
V24     V20    10.0   1_565     S
V24     V19    10.0   1_565     S
V24     V22    10.0   1_565     S
V24     V23    10.0   1_556     S
V24     V30    10.0   .     S
V24     V25    10.0   1_565     S
V25     V24    10.0   1_545     S
V25     V30    10.0   .     S
V25     V29    10.0   1_545     S
V25     V31    10.0   1_545     S
V25     V29    10.0   .     S
V25     V27    10.0   .     S
V25     V30    10.0   1_545     S
V25     V32    10.0   1_545     S
V25     V26    10.0   1_554     S
V25     V26    10.0   .     S
V26     V23    10.0   1_546     S
V26     V29    10.0   1_556     S
V26     V30    10.0   1_545     S
V26     V32    10.0   1_545     S
V26     V30    10.0   .     S
V26     V28    10.0   .     S
V26     V29    10.0   1_546     S
V26     V31    10.0   1_546     S
V26     V25    10.0   1_556     S
V27     V30    10.0   .     S
V27     V32    10.0   .     S
V27     V31    10.0   1_545     S
V27     V29    10.0   .     S
V27     V31    10.0   .     S
V27     V32    10.0   1_545     S
V27     V28    10.0   1_554     S
V27     V28    10.0   .     S
V28     V1    10.0   1_556     S
V28     V29    10.0   1_556     S
V28     V31    10.0   1_556     S
V28     V32    10.0   1_545     S
V28     V30    10.0   .     S
V28     V32    10.0   .     S
V28     V31    10.0   1_546     S
V28     V27    10.0   1_556     S
V29     V26    10.0   1_554     S
V29     V28    10.0   1_554     S
V29     V25    10.0   1_565     S
V29     V31    10.0   .     S
V29     V26    10.0   1_564     S
V29     V30    10.0   .     S
V29     V30    10.0   1_554     S
V30     V26    10.0   1_565     S
V30     V32    10.0   .     S
V30     V25    10.0   1_565     S
V30     V29    10.0   1_556     S
V31     V5    10.0   1_565     S
V31     V28    10.0   1_554     S
V31     V25    10.0   1_565     S
V31     V27    10.0   1_565     S
V31     V26    10.0   1_564     S
V31     V28    10.0   1_564     S
V31     V32    10.0   .     S
V31     V32    10.0   1_554     S
V32     V6    10.0   1_565     S
V32     V26    10.0   1_565     S
V32     V28    10.0   1_565     S
V32     V25    10.0   1_565     S
V32     V27    10.0   1_565     S
V32     V31    10.0   1_556     S
