data_epaa
_audit_creation_date              2020-02-02
_audit_creation_method            'Pymatgen'
_symmetry_space_group_name_H-M    'P1'
_symmetry_Int_Tables_number       1
loop_
_symmetry_equiv_pos_as_xyz
  x,y,z
_cell_length_a                    61.6144
_cell_length_b                    61.6144
_cell_length_c                    117.6516
_cell_angle_alpha                 90.0
_cell_angle_beta                 90.0
_cell_angle_gamma                 120.0
loop_
_atom_site_label
_atom_site_type_symbol
_atom_site_fract_x
_atom_site_fract_y
_atom_site_fract_z
Ti1     Ti     0.1623   0.0   0.0
Ti2     Ti     0.0   0.8377   0.0
Ti3     Ti     0.0   0.1623   0.0
Ti4     Ti     0.8377   0.0   0.0
Ti5     Ti     0.8377   0.8377   0.0
Ti6     Ti     0.1623   0.1623   0.0
Ti7     Ti     0.171   0.6667   0.6667
Ti8     Ti     0.3333   0.829   0.6667
Ti9     Ti     0.4957   0.6667   0.6667
Ti10     Ti     0.4957   0.829   0.6667
Ti11     Ti     0.171   0.5043   0.6667
Ti12     Ti     0.3333   0.5043   0.6667
Ti13     Ti     0.6667   0.4957   0.3333
Ti14     Ti     0.829   0.4957   0.3333
Ti15     Ti     0.5043   0.171   0.3333
Ti16     Ti     0.5043   0.3333   0.3333
Ti17     Ti     0.6667   0.171   0.3333
Ti18     Ti     0.829   0.3333   0.3333
Ce19     Ce     0.4394   0.3984   0.5382
Ce20     Ce     0.6016   0.5606   0.5382
Ce21     Ce     0.3984   0.4394   0.4618
Ce22     Ce     0.5606   0.6016   0.4618
V23     V     0.6131   0.7254   0.3982
V24     V     0.7254   0.6131   0.6018
V25     V     0.2746   0.3869   0.3982
V26     V     0.3869   0.2746   0.6018
Ce27     Ce     0.6016   0.0409   0.5382
Ce28     Ce     0.4394   0.0409   0.5382
Ce29     Ce     0.3984   0.9591   0.4618
Ce30     Ce     0.5606   0.9591   0.4618
V31     V     0.6131   0.8877   0.3982
V32     V     0.7254   0.1123   0.6018
V33     V     0.2746   0.8877   0.3982
V34     V     0.3869   0.1123   0.6018
Ce35     Ce     0.9591   0.3984   0.5382
Ce36     Ce     0.9591   0.5606   0.5382
Ce37     Ce     0.0409   0.6016   0.4618
Ce38     Ce     0.0409   0.4394   0.4618
V39     V     0.1123   0.7254   0.3982
V40     V     0.8877   0.6131   0.6018
V41     V     0.1123   0.3869   0.3982
V42     V     0.8877   0.2746   0.6018
Er43     Er     0.3333   0.342   0.6667
Er44     Er     0.658   0.6667   0.6667
Er45     Er     0.342   0.3333   0.3333
Er46     Er     0.6667   0.658   0.3333
Er47     Er     0.0087   0.6667   0.6667
Er48     Er     0.3333   0.9913   0.6667
Er49     Er     0.0   0.6753   0.0
Ce50     Ce     0.2682   0.894   0.8716
Ce51     Ce     0.106   0.7318   0.8716
Ce52     Ce     0.2273   0.9349   0.7951
Ce53     Ce     0.0651   0.7727   0.7951
V54     V     0.9413   0.7203   0.7315
V55     V     0.2797   0.0587   0.7315
V56     V     0.392   0.9464   0.9352
V57     V     0.0536   0.608   0.9352
Er58     Er     0.3247   0.0   0.0
Er59     Er     0.342   0.0087   0.3333
Er60     Er     0.0087   0.342   0.6667
Ce61     Ce     0.3743   0.2682   0.1284
Ce62     Ce     0.3743   0.106   0.1284
Ce63     Ce     0.2924   0.0651   0.2049
Ce64     Ce     0.2924   0.2273   0.2049
V65     V     0.4456   0.392   0.0648
V66     V     0.4456   0.0536   0.0648
V67     V     0.221   0.2797   0.2685
V68     V     0.221   0.9413   0.2685
Ce69     Ce     0.2682   0.3743   0.8716
Ce70     Ce     0.106   0.3743   0.8716
Ce71     Ce     0.0651   0.2924   0.7951
Ce72     Ce     0.2273   0.2924   0.7951
V73     V     0.2797   0.221   0.7315
V74     V     0.9413   0.221   0.7315
V75     V     0.0536   0.4456   0.9352
V76     V     0.392   0.4456   0.9352
Er77     Er     0.3247   0.3247   0.0
Er78     Er     0.6667   0.0087   0.3333
Er79     Er     0.9913   0.3333   0.3333
Er80     Er     0.6753   0.0   0.0
Ce81     Ce     0.7318   0.106   0.1284
Ce82     Ce     0.894   0.2682   0.1284
Ce83     Ce     0.9349   0.2273   0.2049
Ce84     Ce     0.7727   0.0651   0.2049
V85     V     0.9464   0.392   0.0648
V86     V     0.608   0.0536   0.0648
V87     V     0.0587   0.2797   0.2685
V88     V     0.7203   0.9413   0.2685
Er89     Er     0.0   0.3247   0.0
Er90     Er     0.658   0.9913   0.6667
Er91     Er     0.9913   0.658   0.3333
Ce92     Ce     0.7318   0.6257   0.1284
Ce93     Ce     0.894   0.6257   0.1284
Ce94     Ce     0.9349   0.7076   0.2049
Ce95     Ce     0.7727   0.7076   0.2049
V96     V     0.9464   0.5544   0.0648
V97     V     0.0587   0.779   0.2685
V98     V     0.608   0.5544   0.0648
V99     V     0.7203   0.779   0.2685
Ce100     Ce     0.6257   0.7318   0.8716
Ce101     Ce     0.6257   0.894   0.8716
Ce102     Ce     0.7076   0.9349   0.7951
Ce103     Ce     0.7076   0.7727   0.7951
V104     V     0.779   0.0587   0.7315
V105     V     0.779   0.7203   0.7315
V106     V     0.5544   0.9464   0.9352
V107     V     0.5544   0.608   0.9352
Er108     Er     0.6753   0.6753   0.0
loop_
_geom_bond_atom_site_label_1
_geom_bond_atom_site_label_2
_geom_bond_distance
_geom_bond_site_symmetry_2
_ccdc_geom_bond_type
Ti1     Ti2    10.002   1_545     S
Ti1     Ti6    10.002   .     S
Ti1     Er58    10.002   .     S
Ti2     Ti1    10.002   1_565     S
Ti2     Ti5    10.002   1_455     S
Ti2     Er49    10.002   .     S
Ti3     Ti4    10.002   1_455     S
Ti3     Ti6    10.002   .     S
Ti3     Er89    10.002   .     S
Ti4     Ti3    10.002   1_655     S
Ti4     Ti5    10.002   1_545     S
Ti4     Er80    10.002   .     S
Ti5     Ti2    10.002   1_655     S
Ti5     Ti4    10.002   1_565     S
Ti5     Er108    10.002   .     S
Ti6     Er77    10.002   .     S
Ti7     Ti8    10.002   .     S
Ti7     Ti11    10.002   .     S
Ti7     Er47    10.002   .     S
Ti8     Ti10    10.002   .     S
Ti8     Er48    10.002   .     S
Ti9     Ti10    10.002   .     S
Ti9     Ti12    10.002   .     S
Ti9     Er44    10.002   .     S
Ti10     Er90    10.002   .     S
Ti11     Ti12    10.002   .     S
Ti11     Er60    10.002   .     S
Ti12     Er43    10.002   .     S
Ti13     Ti14    10.002   .     S
Ti13     Ti16    10.002   .     S
Ti13     Er46    10.002   .     S
Ti14     Ti18    10.002   .     S
Ti14     Er91    10.002   .     S
Ti15     Ti16    10.002   .     S
Ti15     Ti17    10.002   .     S
Ti15     Er59    10.002   .     S
Ti16     Er45    10.002   .     S
Ti17     Ti18    10.002   .     S
Ti17     Er78    10.002   .     S
Ti18     Er79    10.002   .     S
Ce19     Ce20    9.994   .     S
Ce19     Ce21    9.998   .     S
Ce19     V26    10.0   .     S
Ce20     Ce22    9.998   .     S
Ce20     V24    10.0   .     S
Ce21     Ce22    9.994   .     S
Ce21     V25    10.0   .     S
Ce22     V23    10.0   .     S
V23     Er46    10.001   .     S
V23     V31    10.002   .     S
V24     Er44    10.001   .     S
V24     V40    10.002   .     S
V25     Er45    10.001   .     S
V25     V41    10.002   .     S
V26     Er43    10.001   .     S
V26     V34    10.002   .     S
Ce27     Ce28    9.994   .     S
Ce27     Ce30    9.998   1_545     S
Ce27     V32    10.0   .     S
Ce28     Ce29    9.998   1_545     S
Ce28     V34    10.0   .     S
Ce29     Ce28    9.998   1_565     S
Ce29     Ce30    9.994   .     S
Ce29     V33    10.0   .     S
Ce30     Ce27    9.998   1_565     S
Ce30     V31    10.0   .     S
V31     Er78    10.001   1_565     S
V32     Er90    10.001   1_545     S
V32     V42    10.002   .     S
V33     Er59    10.001   1_565     S
V33     V39    10.002   .     S
V34     Er48    10.001   1_545     S
Ce35     Ce36    9.994   .     S
Ce35     Ce38    9.998   1_655     S
Ce35     V42    10.0   .     S
Ce36     Ce37    9.998   1_655     S
Ce36     V40    10.0   .     S
Ce37     Ce36    9.998   1_455     S
Ce37     Ce38    9.994   .     S
Ce37     V39    10.0   .     S
Ce38     Ce35    9.998   1_455     S
Ce38     V41    10.0   .     S
V39     Er91    10.001   1_455     S
V40     Er47    10.001   1_655     S
V41     Er79    10.001   1_455     S
V42     Er60    10.001   1_655     S
Er43     V73    10.001   .     S
Er44     V105    10.001   .     S
Er45     V67    10.001   .     S
Er46     V99    10.001   .     S
Er47     V54    10.001   1_455     S
Er47     V40    10.001   1_455     S
Er48     V34    10.001   1_565     S
Er48     V55    10.001   1_565     S
Er49     V96    10.001   1_455     S
Er49     V57    10.001   1_554     S
Ce50     Ce51    9.994   .     S
Ce50     Ce52    9.998   .     S
Ce50     V56    10.0   .     S
Ce51     Ce53    9.998   .     S
Ce51     V57    10.0   .     S
Ce52     Ce53    9.994   .     S
Ce52     V55    10.0   1_565     S
Ce53     V54    10.0   1_455     S
V54     Er47    10.001   1_655     S
V54     Ce53    10.0   1_655     S
V54     V105    10.002   .     S
V55     Er48    10.001   1_545     S
V55     Ce52    10.0   1_545     S
V55     V73    10.002   .     S
V56     Er58    10.001   1_566     S
V56     V106    10.002   .     S
V57     Er49    10.001   1_556     S
V57     V75    10.002   .     S
Er58     V66    10.001   .     S
Er58     V56    10.001   1_544     S
Er59     V68    10.001   1_545     S
Er59     V33    10.001   1_545     S
Er60     V42    10.001   1_455     S
Er60     V74    10.001   1_455     S
Ce61     Ce62    9.994   .     S
Ce61     Ce64    9.998   .     S
Ce61     V65    10.0   .     S
Ce62     Ce63    9.998   .     S
Ce62     V66    10.0   .     S
Ce63     Ce64    9.994   .     S
Ce63     V68    10.0   1_545     S
Ce64     V67    10.0   .     S
V65     Er77    10.001   .     S
V65     V98    10.002   .     S
V66     V86    10.002   .     S
V67     V87    10.002   .     S
V68     Er59    10.001   1_565     S
V68     Ce63    10.0   1_565     S
V68     V97    10.002   .     S
Ce69     Ce70    9.994   .     S
Ce69     Ce72    9.998   .     S
Ce69     V76    10.0   .     S
Ce70     Ce71    9.998   .     S
Ce70     V75    10.0   .     S
Ce71     Ce72    9.994   .     S
Ce71     V74    10.0   1_455     S
Ce72     V73    10.0   .     S
V74     Er60    10.001   1_655     S
V74     Ce71    10.0   1_655     S
V74     V104    10.002   .     S
V75     Er89    10.001   1_556     S
V76     Er77    10.001   1_556     S
V76     V107    10.002   .     S
Er77     V76    10.001   1_554     S
Er78     V88    10.001   1_545     S
Er78     V31    10.001   1_545     S
Er79     V87    10.001   1_655     S
Er79     V41    10.001   1_655     S
Er80     V86    10.001   .     S
Er80     V106    10.001   1_544     S
Ce81     Ce82    9.994   .     S
Ce81     Ce84    9.998   .     S
Ce81     V86    10.0   .     S
Ce82     Ce83    9.998   .     S
Ce82     V85    10.0   .     S
Ce83     Ce84    9.994   .     S
Ce83     V87    10.0   1_655     S
Ce84     V88    10.0   1_545     S
V85     Er89    10.001   1_655     S
V85     V96    10.002   .     S
V87     Er79    10.001   1_455     S
V87     Ce83    10.0   1_455     S
V88     Er78    10.001   1_565     S
V88     Ce84    10.0   1_565     S
V88     V99    10.002   .     S
Er89     V75    10.001   1_554     S
Er89     V85    10.001   1_455     S
Er90     V32    10.001   1_565     S
Er90     V104    10.001   1_565     S
Er91     V97    10.001   1_655     S
Er91     V39    10.001   1_655     S
Ce92     Ce93    9.994   .     S
Ce92     Ce95    9.998   .     S
Ce92     V98    10.0   .     S
Ce93     Ce94    9.998   .     S
Ce93     V96    10.0   .     S
Ce94     Ce95    9.994   .     S
Ce94     V97    10.0   1_655     S
Ce95     V99    10.0   .     S
V96     Er49    10.001   1_655     S
V97     Er91    10.001   1_455     S
V97     Ce94    10.0   1_455     S
V98     Er108    10.001   .     S
Ce100     Ce101    9.994   .     S
Ce100     Ce103    9.998   .     S
Ce100     V107    10.0   .     S
Ce101     Ce102    9.998   .     S
Ce101     V106    10.0   .     S
Ce102     Ce103    9.994   .     S
Ce102     V104    10.0   1_565     S
Ce103     V105    10.0   .     S
V104     Er90    10.001   1_545     S
V104     Ce102    10.0   1_545     S
V106     Er80    10.001   1_566     S
V107     Er108    10.001   1_556     S
Er108     V107    10.001   1_554     S
