data_epe
_audit_creation_date              2020-02-02
_audit_creation_method            'Pymatgen'
_symmetry_space_group_name_H-M    'P1'
_symmetry_Int_Tables_number       1
loop_
_symmetry_equiv_pos_as_xyz
  x,y,z
_cell_length_a                    68.376
_cell_length_b                    68.376
_cell_length_c                    68.376
_cell_angle_alpha                 90.0
_cell_angle_beta                 90.0
_cell_angle_gamma                 90.0
loop_
_atom_site_label
_atom_site_type_symbol
_atom_site_fract_x
_atom_site_fract_y
_atom_site_fract_z
Er1     Er     0.75   0.8968   0.3968
Er2     Er     0.75   0.8968   0.6032
Er3     Er     0.75   0.1032   0.3968
Er4     Er     0.75   0.1032   0.6032
Ti5     Ti     0.75   0.0   0.5
Er6     Er     0.8968   0.75   0.3968
Er7     Er     0.8968   0.75   0.6032
Er8     Er     0.1032   0.75   0.3968
Er9     Er     0.1032   0.75   0.6032
Ti10     Ti     0.0   0.75   0.5
Er11     Er     0.25   0.8968   0.3968
Er12     Er     0.25   0.8968   0.6032
Er13     Er     0.25   0.1032   0.3968
Er14     Er     0.25   0.1032   0.6032
Ti15     Ti     0.25   0.0   0.5
Er16     Er     0.3968   0.8968   0.25
Er17     Er     0.6032   0.8968   0.25
Er18     Er     0.3968   0.1032   0.25
Er19     Er     0.6032   0.1032   0.25
Ti20     Ti     0.5   0.0   0.25
Er21     Er     0.3968   0.75   0.8968
Er22     Er     0.6032   0.75   0.8968
Er23     Er     0.3968   0.75   0.1032
Er24     Er     0.6032   0.75   0.1032
Ti25     Ti     0.5   0.75   0.0
Er26     Er     0.3968   0.8968   0.75
Er27     Er     0.6032   0.8968   0.75
Er28     Er     0.3968   0.1032   0.75
Er29     Er     0.6032   0.1032   0.75
Ti30     Ti     0.5   0.0   0.75
Er31     Er     0.3968   0.25   0.8968
Er32     Er     0.6032   0.25   0.8968
Er33     Er     0.3968   0.25   0.1032
Er34     Er     0.6032   0.25   0.1032
Ti35     Ti     0.5   0.25   0.0
Er36     Er     0.25   0.3968   0.8968
Er37     Er     0.25   0.6032   0.8968
Er38     Er     0.25   0.3968   0.1032
Er39     Er     0.25   0.6032   0.1032
Ti40     Ti     0.25   0.5   0.0
Er41     Er     0.8968   0.3968   0.75
Er42     Er     0.8968   0.6032   0.75
Er43     Er     0.1032   0.3968   0.75
Er44     Er     0.1032   0.6032   0.75
Ti45     Ti     0.0   0.5   0.75
Er46     Er     0.75   0.3968   0.8968
Er47     Er     0.75   0.6032   0.8968
Er48     Er     0.75   0.3968   0.1032
Er49     Er     0.75   0.6032   0.1032
Ti50     Ti     0.75   0.5   0.0
Er51     Er     0.8968   0.3968   0.25
Er52     Er     0.8968   0.6032   0.25
Er53     Er     0.1032   0.3968   0.25
Er54     Er     0.1032   0.6032   0.25
Ti55     Ti     0.0   0.5   0.25
Er56     Er     0.8968   0.25   0.3968
Er57     Er     0.8968   0.25   0.6032
Er58     Er     0.1032   0.25   0.3968
Er59     Er     0.1032   0.25   0.6032
Ti60     Ti     0.0   0.25   0.5
V61     V     0.0   0.3234   0.3234
V62     V     0.8234   0.1766   0.5
V63     V     0.1766   0.1766   0.5
V64     V     0.8234   0.5   0.1766
V65     V     0.1766   0.5   0.1766
V66     V     0.6766   0.3234   0.0
V67     V     0.8234   0.5   0.8234
V68     V     0.0   0.3234   0.6766
V69     V     0.1766   0.5   0.8234
V70     V     0.3234   0.3234   0.0
V71     V     0.5   0.1766   0.8234
V72     V     0.5   0.1766   0.1766
V73     V     0.3234   0.0   0.6766
V74     V     0.5   0.8234   0.8234
V75     V     0.3234   0.6766   0.0
V76     V     0.5   0.8234   0.1766
V77     V     0.3234   0.0   0.3234
V78     V     0.1766   0.8234   0.5
V79     V     0.0   0.6766   0.3234
V80     V     0.8234   0.8234   0.5
V81     V     0.6766   0.0   0.3234
V82     V     0.0   0.6766   0.6766
V83     V     0.6766   0.0   0.6766
V84     V     0.6766   0.6766   0.0
loop_
_geom_bond_atom_site_label_1
_geom_bond_atom_site_label_2
_geom_bond_distance
_geom_bond_site_symmetry_2
_ccdc_geom_bond_type
Er1     Ti5    9.982   1_565     S
Er1     V80    10.009   .     S
Er1     V81    10.009   1_565     S
Er2     Ti5    9.982   1_565     S
Er2     V80    10.009   .     S
Er2     V83    10.009   1_565     S
Er3     Ti5    9.982   .     S
Er3     V62    10.009   .     S
Er3     V81    10.009   .     S
Er4     Ti5    9.982   .     S
Er4     V62    10.009   .     S
Er4     V83    10.009   .     S
Ti5     Er1    9.982   1_545     S
Ti5     Er2    9.982   1_545     S
Er6     Ti10    9.982   1_655     S
Er6     V80    10.009   .     S
Er6     V79    10.009   1_655     S
Er7     Ti10    9.982   1_655     S
Er7     V80    10.009   .     S
Er7     V82    10.009   1_655     S
Er8     Ti10    9.982   .     S
Er8     V78    10.009   .     S
Er8     V79    10.009   .     S
Er9     Ti10    9.982   .     S
Er9     V78    10.009   .     S
Er9     V82    10.009   .     S
Ti10     Er6    9.982   1_455     S
Ti10     Er7    9.982   1_455     S
Er11     Ti15    9.982   1_565     S
Er11     V78    10.009   .     S
Er11     V77    10.009   1_565     S
Er12     Ti15    9.982   1_565     S
Er12     V78    10.009   .     S
Er12     V73    10.009   1_565     S
Er13     Ti15    9.982   .     S
Er13     V63    10.009   .     S
Er13     V77    10.009   .     S
Er14     Ti15    9.982   .     S
Er14     V63    10.009   .     S
Er14     V73    10.009   .     S
Ti15     Er11    9.982   1_545     S
Ti15     Er12    9.982   1_545     S
Er16     Ti20    9.982   1_565     S
Er16     V76    10.009   .     S
Er16     V77    10.009   1_565     S
Er17     Ti20    9.982   1_565     S
Er17     V76    10.009   .     S
Er17     V81    10.009   1_565     S
Er18     Ti20    9.982   .     S
Er18     V72    10.009   .     S
Er18     V77    10.009   .     S
Er19     Ti20    9.982   .     S
Er19     V72    10.009   .     S
Er19     V81    10.009   .     S
Ti20     Er16    9.982   1_545     S
Ti20     Er17    9.982   1_545     S
Er21     Ti25    9.982   1_556     S
Er21     V74    10.009   .     S
Er21     V75    10.009   1_556     S
Er22     Ti25    9.982   1_556     S
Er22     V74    10.009   .     S
Er22     V84    10.009   1_556     S
Er23     Ti25    9.982   .     S
Er23     V76    10.009   .     S
Er23     V75    10.009   .     S
Er24     Ti25    9.982   .     S
Er24     V76    10.009   .     S
Er24     V84    10.009   .     S
Ti25     Er21    9.982   1_554     S
Ti25     Er22    9.982   1_554     S
Er26     Ti30    9.982   1_565     S
Er26     V74    10.009   .     S
Er26     V73    10.009   1_565     S
Er27     Ti30    9.982   1_565     S
Er27     V74    10.009   .     S
Er27     V83    10.009   1_565     S
Er28     Ti30    9.982   .     S
Er28     V71    10.009   .     S
Er28     V73    10.009   .     S
Er29     Ti30    9.982   .     S
Er29     V71    10.009   .     S
Er29     V83    10.009   .     S
Ti30     Er26    9.982   1_545     S
Ti30     Er27    9.982   1_545     S
Er31     Ti35    9.982   1_556     S
Er31     V71    10.009   .     S
Er31     V70    10.009   1_556     S
Er32     Ti35    9.982   1_556     S
Er32     V71    10.009   .     S
Er32     V66    10.009   1_556     S
Er33     Ti35    9.982   .     S
Er33     V72    10.009   .     S
Er33     V70    10.009   .     S
Er34     Ti35    9.982   .     S
Er34     V72    10.009   .     S
Er34     V66    10.009   .     S
Ti35     Er31    9.982   1_554     S
Ti35     Er32    9.982   1_554     S
Er36     Ti40    9.982   1_556     S
Er36     V69    10.009   .     S
Er36     V70    10.009   1_556     S
Er37     Ti40    9.982   1_556     S
Er37     V69    10.009   .     S
Er37     V75    10.009   1_556     S
Er38     Ti40    9.982   .     S
Er38     V65    10.009   .     S
Er38     V70    10.009   .     S
Er39     Ti40    9.982   .     S
Er39     V65    10.009   .     S
Er39     V75    10.009   .     S
Ti40     Er36    9.982   1_554     S
Ti40     Er37    9.982   1_554     S
Er41     Ti45    9.982   1_655     S
Er41     V67    10.009   .     S
Er41     V68    10.009   1_655     S
Er42     Ti45    9.982   1_655     S
Er42     V67    10.009   .     S
Er42     V82    10.009   1_655     S
Er43     Ti45    9.982   .     S
Er43     V69    10.009   .     S
Er43     V68    10.009   .     S
Er44     Ti45    9.982   .     S
Er44     V69    10.009   .     S
Er44     V82    10.009   .     S
Ti45     Er41    9.982   1_455     S
Ti45     Er42    9.982   1_455     S
Er46     Ti50    9.982   1_556     S
Er46     V67    10.009   .     S
Er46     V66    10.009   1_556     S
Er47     Ti50    9.982   1_556     S
Er47     V67    10.009   .     S
Er47     V84    10.009   1_556     S
Er48     Ti50    9.982   .     S
Er48     V64    10.009   .     S
Er48     V66    10.009   .     S
Er49     Ti50    9.982   .     S
Er49     V64    10.009   .     S
Er49     V84    10.009   .     S
Ti50     Er46    9.982   1_554     S
Ti50     Er47    9.982   1_554     S
Er51     Ti55    9.982   1_655     S
Er51     V64    10.009   .     S
Er51     V61    10.009   1_655     S
Er52     Ti55    9.982   1_655     S
Er52     V64    10.009   .     S
Er52     V79    10.009   1_655     S
Er53     Ti55    9.982   .     S
Er53     V65    10.009   .     S
Er53     V61    10.009   .     S
Er54     Ti55    9.982   .     S
Er54     V65    10.009   .     S
Er54     V79    10.009   .     S
Ti55     Er51    9.982   1_455     S
Ti55     Er52    9.982   1_455     S
Er56     Ti60    9.982   1_655     S
Er56     V62    10.009   .     S
Er56     V61    10.009   1_655     S
Er57     Ti60    9.982   1_655     S
Er57     V62    10.009   .     S
Er57     V68    10.009   1_655     S
Er58     Ti60    9.982   .     S
Er58     V63    10.009   .     S
Er58     V61    10.009   .     S
Er59     Ti60    9.982   .     S
Er59     V63    10.009   .     S
Er59     V68    10.009   .     S
Ti60     Er56    9.982   1_455     S
Ti60     Er57    9.982   1_455     S
V61     Er51    10.009   1_455     S
V61     Er56    10.009   1_455     S
V66     Er32    10.009   1_554     S
V66     Er46    10.009   1_554     S
V68     Er41    10.009   1_455     S
V68     Er57    10.009   1_455     S
V70     Er31    10.009   1_554     S
V70     Er36    10.009   1_554     S
V73     Er12    10.009   1_545     S
V73     Er26    10.009   1_545     S
V75     Er21    10.009   1_554     S
V75     Er37    10.009   1_554     S
V77     Er11    10.009   1_545     S
V77     Er16    10.009   1_545     S
V79     Er6    10.009   1_455     S
V79     Er52    10.009   1_455     S
V81     Er1    10.009   1_545     S
V81     Er17    10.009   1_545     S
V82     Er7    10.009   1_455     S
V82     Er42    10.009   1_455     S
V83     Er2    10.009   1_545     S
V83     Er27    10.009   1_545     S
V84     Er22    10.009   1_554     S
V84     Er47    10.009   1_554     S
