data_epf
_audit_creation_date              2020-02-02
_audit_creation_method            'Pymatgen'
_symmetry_space_group_name_H-M    'P1'
_symmetry_Int_Tables_number       1
loop_
_symmetry_equiv_pos_as_xyz
  x,y,z
_cell_length_a                    18.5406
_cell_length_b                    18.5406
_cell_length_c                    103.5917
_cell_angle_alpha                 90.0
_cell_angle_beta                 90.0
_cell_angle_gamma                 90.0
loop_
_atom_site_label
_atom_site_type_symbol
_atom_site_fract_x
_atom_site_fract_y
_atom_site_fract_z
Ti1     Ti     0.75   0.75   0.75
Ti2     Ti     0.25   0.75   0.75
Er3     Er     0.6817   0.25   0.7158
Er4     Er     0.3183   0.25   0.7158
Er5     Er     0.5   0.4317   0.5342
Er6     Er     0.5   0.0683   0.5342
V7     V     0.5   0.25   0.625
Er8     Er     0.8183   0.25   0.7842
Er9     Er     0.1817   0.25   0.7842
Er10     Er     0.0   0.0683   0.9658
Er11     Er     0.0   0.4317   0.9658
V12     V     0.0   0.25   0.875
Ti13     Ti     0.0   0.5   0.5
Ti14     Ti     0.0   0.0   0.5
Ti15     Ti     0.5   0.5   0.0
Er16     Er     0.1817   0.75   0.2158
Er17     Er     0.8183   0.75   0.2158
Er18     Er     0.0   0.5683   0.0342
Er19     Er     0.0   0.9317   0.0342
V20     V     0.0   0.75   0.125
Ti21     Ti     0.5   0.0   0.0
Ti22     Ti     0.25   0.25   0.25
Er23     Er     0.5   0.9317   0.4658
Er24     Er     0.5   0.5683   0.4658
Er25     Er     0.3183   0.75   0.2842
Er26     Er     0.6817   0.75   0.2842
V27     V     0.5   0.75   0.375
Ti28     Ti     0.75   0.25   0.25
loop_
_geom_bond_atom_site_label_1
_geom_bond_atom_site_label_2
_geom_bond_distance
_geom_bond_site_symmetry_2
_ccdc_geom_bond_type
Ti1     Er3    10.005   .     S
Ti1     Er8    10.005   .     S
Ti1     Er8    10.005   1_565     S
Ti1     Er3    10.005   1_565     S
Ti2     Er9    10.005   .     S
Ti2     Er4    10.005   .     S
Ti2     Er4    10.005   1_565     S
Ti2     Er9    10.005   1_565     S
Er3     Ti1    10.005   1_545     S
Er3     V7    9.989   .     S
Er4     Ti2    10.005   1_545     S
Er4     V7    9.989   .     S
Er5     V7    9.989   .     S
Er5     Ti13    10.005   .     S
Er5     Ti13    10.005   1_655     S
Er6     V7    9.989   .     S
Er6     Ti14    10.005   .     S
Er6     Ti14    10.005   1_655     S
Er8     Ti1    10.005   1_545     S
Er8     V12    9.989   1_655     S
Er9     Ti2    10.005   1_545     S
Er9     V12    9.989   .     S
Er10     V12    9.989   .     S
Er10     Ti21    10.005   1_456     S
Er10     Ti21    10.005   1_556     S
Er11     V12    9.989   .     S
Er11     Ti15    10.005   1_456     S
Er11     Ti15    10.005   1_556     S
V12     Er8    9.989   1_455     S
Ti13     Er24    10.005   .     S
Ti13     Er24    10.005   1_455     S
Ti13     Er5    10.005   1_455     S
Ti14     Er23    10.005   1_545     S
Ti14     Er6    10.005   1_455     S
Ti14     Er23    10.005   1_445     S
Ti15     Er11    10.005   1_654     S
Ti15     Er18    10.005   1_655     S
Ti15     Er18    10.005   .     S
Ti15     Er11    10.005   1_554     S
Er16     V20    9.989   .     S
Er16     Ti22    10.005   .     S
Er16     Ti22    10.005   1_565     S
Er17     V20    9.989   1_655     S
Er17     Ti28    10.005   .     S
Er17     Ti28    10.005   1_565     S
Er18     Ti15    10.005   1_455     S
Er18     V20    9.989   .     S
Er19     V20    9.989   .     S
Er19     Ti21    10.005   1_465     S
Er19     Ti21    10.005   1_565     S
V20     Er17    9.989   1_455     S
Ti21     Er19    10.005   1_645     S
Ti21     Er10    10.005   1_654     S
Ti21     Er10    10.005   1_554     S
Ti21     Er19    10.005   1_545     S
Ti22     Er25    10.005   .     S
Ti22     Er16    10.005   1_545     S
Ti22     Er25    10.005   1_545     S
Er23     Ti14    10.005   1_565     S
Er23     Ti14    10.005   1_665     S
Er23     V27    9.989   .     S
Er24     Ti13    10.005   1_655     S
Er24     V27    9.989   .     S
Er25     Ti22    10.005   1_565     S
Er25     V27    9.989   .     S
Er26     V27    9.989   .     S
Er26     Ti28    10.005   .     S
Er26     Ti28    10.005   1_565     S
Ti28     Er26    10.005   1_545     S
Ti28     Er17    10.005   1_545     S
