data_epn
_audit_creation_date              2020-02-02
_audit_creation_method            'Pymatgen'
_symmetry_space_group_name_H-M    'P1'
_symmetry_Int_Tables_number       1
loop_
_symmetry_equiv_pos_as_xyz
  x,y,z
_cell_length_a                    52.785
_cell_length_b                    52.785
_cell_length_c                    52.785
_cell_angle_alpha                 90.0
_cell_angle_beta                 90.0
_cell_angle_gamma                 90.0
loop_
_atom_site_label
_atom_site_type_symbol
_atom_site_fract_x
_atom_site_fract_y
_atom_site_fract_z
V1     V     0.2114   0.2114   0.7886
V2     V     0.2114   0.7886   0.2114
Er3     Er     0.866   0.5   0.0
Ti4     Ti     0.8661   0.6339   0.1339
Er5     Er     0.0   0.5   0.134
Er6     Er     0.134   0.5   0.0
Ti7     Ti     0.1339   0.6339   0.1339
Er8     Er     0.0   0.5   0.866
Ti9     Ti     0.1339   0.6339   0.8661
Ti10     Ti     0.8661   0.6339   0.8661
Ti11     Ti     0.1339   0.3661   0.1339
Ti12     Ti     0.8661   0.3661   0.1339
Ti13     Ti     0.1339   0.3661   0.8661
Ti14     Ti     0.8661   0.3661   0.8661
Er15     Er     0.5   0.0   0.866
Ti16     Ti     0.6339   0.1339   0.8661
Er17     Er     0.5   0.0   0.134
Er18     Er     0.5   0.134   0.0
Ti19     Ti     0.6339   0.1339   0.1339
Er20     Er     0.5   0.866   0.0
Ti21     Ti     0.6339   0.8661   0.1339
Ti22     Ti     0.6339   0.8661   0.8661
Ti23     Ti     0.3661   0.1339   0.1339
Ti24     Ti     0.3661   0.8661   0.1339
Ti25     Ti     0.3661   0.1339   0.8661
Ti26     Ti     0.3661   0.8661   0.8661
Er27     Er     0.866   0.0   0.5
Ti28     Ti     0.8661   0.1339   0.6339
Er29     Er     0.134   0.0   0.5
Er30     Er     0.0   0.134   0.5
Ti31     Ti     0.1339   0.1339   0.6339
Er32     Er     0.0   0.866   0.5
Ti33     Ti     0.1339   0.8661   0.6339
Ti34     Ti     0.8661   0.8661   0.6339
Ti35     Ti     0.1339   0.1339   0.3661
Ti36     Ti     0.8661   0.1339   0.3661
Ti37     Ti     0.1339   0.8661   0.3661
Ti38     Ti     0.8661   0.8661   0.3661
V39     V     0.2114   0.2114   0.2114
V40     V     0.7886   0.2114   0.2114
V41     V     0.7886   0.7886   0.2114
V42     V     0.2114   0.7886   0.7886
V43     V     0.7886   0.2114   0.7886
V44     V     0.7886   0.7886   0.7886
loop_
_geom_bond_atom_site_label_1
_geom_bond_atom_site_label_2
_geom_bond_distance
_geom_bond_site_symmetry_2
_ccdc_geom_bond_type
V1     Ti31    10.006   .     S
V1     Ti13    10.006   .     S
V1     Ti25    10.006   .     S
V2     Ti7    10.006   .     S
V2     Ti24    10.006   .     S
V2     Ti37    10.006   .     S
Er3     Ti14    9.997   1_554     S
Er3     Ti10    9.997   1_554     S
Er3     Ti4    9.997   .     S
Er3     Ti12    9.997   .     S
Ti4     Er5    9.997   1_655     S
Ti4     V41    10.006   .     S
Er5     Ti12    9.997   1_455     S
Er5     Ti4    9.997   1_455     S
Er5     Ti7    9.997   .     S
Er5     Ti11    9.997   .     S
Er6     Ti9    9.997   1_554     S
Er6     Ti13    9.997   1_554     S
Er6     Ti11    9.997   .     S
Er6     Ti7    9.997   .     S
Er8     Ti10    9.997   1_455     S
Er8     Ti14    9.997   1_455     S
Er8     Ti9    9.997   .     S
Er8     Ti13    9.997   .     S
Ti9     Er6    9.997   1_556     S
Ti9     V42    10.006   .     S
Ti10     Er3    9.997   1_556     S
Ti10     Er8    9.997   1_655     S
Ti10     V44    10.006   .     S
Ti11     V39    10.006   .     S
Ti12     Er5    9.997   1_655     S
Ti12     V40    10.006   .     S
Ti13     Er6    9.997   1_556     S
Ti14     Er3    9.997   1_556     S
Ti14     Er8    9.997   1_655     S
Ti14     V43    10.006   .     S
Er15     Ti26    9.997   1_545     S
Er15     Ti22    9.997   1_545     S
Er15     Ti16    9.997   .     S
Er15     Ti25    9.997   .     S
Ti16     Er18    9.997   1_556     S
Ti16     V43    10.006   .     S
Er17     Ti21    9.997   1_545     S
Er17     Ti24    9.997   1_545     S
Er17     Ti19    9.997   .     S
Er17     Ti23    9.997   .     S
Er18     Ti25    9.997   1_554     S
Er18     Ti16    9.997   1_554     S
Er18     Ti23    9.997   .     S
Er18     Ti19    9.997   .     S
Ti19     V40    10.006   .     S
Er20     Ti22    9.997   1_554     S
Er20     Ti26    9.997   1_554     S
Er20     Ti21    9.997   .     S
Er20     Ti24    9.997   .     S
Ti21     Er17    9.997   1_565     S
Ti21     V41    10.006   .     S
Ti22     Er15    9.997   1_565     S
Ti22     Er20    9.997   1_556     S
Ti22     V44    10.006   .     S
Ti23     V39    10.006   .     S
Ti24     Er17    9.997   1_565     S
Ti25     Er18    9.997   1_556     S
Ti26     Er15    9.997   1_565     S
Ti26     Er20    9.997   1_556     S
Ti26     V42    10.006   .     S
Er27     Ti34    9.997   1_545     S
Er27     Ti38    9.997   1_545     S
Er27     Ti28    9.997   .     S
Er27     Ti36    9.997   .     S
Ti28     Er30    9.997   1_655     S
Ti28     V43    10.006   .     S
Er29     Ti37    9.997   1_545     S
Er29     Ti33    9.997   1_545     S
Er29     Ti31    9.997   .     S
Er29     Ti35    9.997   .     S
Er30     Ti28    9.997   1_455     S
Er30     Ti36    9.997   1_455     S
Er30     Ti35    9.997   .     S
Er30     Ti31    9.997   .     S
Er32     Ti38    9.997   1_455     S
Er32     Ti34    9.997   1_455     S
Er32     Ti33    9.997   .     S
Er32     Ti37    9.997   .     S
Ti33     Er29    9.997   1_565     S
Ti33     V42    10.006   .     S
Ti34     Er27    9.997   1_565     S
Ti34     Er32    9.997   1_655     S
Ti34     V44    10.006   .     S
Ti35     V39    10.006   .     S
Ti36     Er30    9.997   1_655     S
Ti36     V40    10.006   .     S
Ti37     Er29    9.997   1_565     S
Ti38     Er27    9.997   1_565     S
Ti38     Er32    9.997   1_655     S
Ti38     V41    10.006   .     S
