data_epra
_audit_creation_date              2020-02-02
_audit_creation_method            'Pymatgen'
_symmetry_space_group_name_H-M    'P1'
_symmetry_Int_Tables_number       1
loop_
_symmetry_equiv_pos_as_xyz
  x,y,z
_cell_length_a                    67.3073
_cell_length_b                    67.3073
_cell_length_c                    67.3073
_cell_angle_alpha                 90.0
_cell_angle_beta                 90.0
_cell_angle_gamma                 90.0
loop_
_atom_site_label
_atom_site_type_symbol
_atom_site_fract_x
_atom_site_fract_y
_atom_site_fract_z
Er1     Er     0.8125   0.75   0.6875
Er2     Er     0.75   0.6875   0.8125
Er3     Er     0.6875   0.8125   0.75
Er4     Er     0.1875   0.75   0.6875
Er5     Er     0.3125   0.8125   0.75
Er6     Er     0.25   0.6875   0.8125
Er7     Er     0.6875   0.1875   0.75
Er8     Er     0.75   0.3125   0.8125
Er9     Er     0.8125   0.25   0.6875
Er10     Er     0.75   0.6875   0.1875
Er11     Er     0.8125   0.75   0.3125
Er12     Er     0.6875   0.8125   0.25
Er13     Er     0.75   0.3125   0.1875
Er14     Er     0.6875   0.1875   0.25
Er15     Er     0.8125   0.25   0.3125
Er16     Er     0.1875   0.25   0.6875
Er17     Er     0.3125   0.1875   0.75
Er18     Er     0.25   0.3125   0.8125
Er19     Er     0.25   0.6875   0.1875
Er20     Er     0.3125   0.8125   0.25
Er21     Er     0.1875   0.75   0.3125
Er22     Er     0.1875   0.25   0.3125
Er23     Er     0.25   0.3125   0.1875
Er24     Er     0.3125   0.1875   0.25
V25     V     0.4241   0.7025   0.0
Ce26     Ce     0.3752   0.5706   0.0
V27     V     0.4241   0.2975   0.0
Ce28     Ce     0.3752   0.4294   0.0
V29     V     0.5   0.7975   0.0759
Ce30     Ce     0.5   0.9294   0.1248
V31     V     0.5   0.2025   0.0759
Ce32     Ce     0.5   0.0706   0.1248
V33     V     0.5   0.7975   0.9241
Ce34     Ce     0.5   0.9294   0.8752
V35     V     0.5   0.2025   0.9241
Ce36     Ce     0.5   0.0706   0.8752
V37     V     0.5759   0.7025   0.0
Ce38     Ce     0.6248   0.5706   0.0
V39     V     0.5759   0.2975   0.0
Ce40     Ce     0.6248   0.4294   0.0
Ti41     Ti     0.75   0.4227   0.9227
Ti42     Ti     0.75   0.5773   0.9227
Ti43     Ti     0.25   0.5773   0.9227
Ti44     Ti     0.75   0.4227   0.0773
Ti45     Ti     0.25   0.4227   0.9227
Ti46     Ti     0.75   0.5773   0.0773
Ti47     Ti     0.25   0.5773   0.0773
V48     V     0.0   0.4241   0.7025
Ce49     Ce     0.0   0.3752   0.5706
V50     V     0.0   0.4241   0.2975
Ce51     Ce     0.0   0.3752   0.4294
V52     V     0.0759   0.5   0.7975
Ce53     Ce     0.1248   0.5   0.9294
V54     V     0.0759   0.5   0.2025
Ce55     Ce     0.1248   0.5   0.0706
V56     V     0.9241   0.5   0.7975
Ce57     Ce     0.8752   0.5   0.9294
V58     V     0.9241   0.5   0.2025
Ce59     Ce     0.8752   0.5   0.0706
V60     V     0.0   0.5759   0.7025
Ce61     Ce     0.0   0.6248   0.5706
V62     V     0.0   0.5759   0.2975
Ce63     Ce     0.0   0.6248   0.4294
Ti64     Ti     0.9227   0.75   0.4227
Ti65     Ti     0.9227   0.75   0.5773
Ti66     Ti     0.9227   0.25   0.5773
Ti67     Ti     0.9227   0.25   0.4227
Ti68     Ti     0.0773   0.75   0.5773
Ti69     Ti     0.0773   0.75   0.4227
Ti70     Ti     0.0773   0.25   0.4227
Ti71     Ti     0.25   0.4227   0.0773
Ti72     Ti     0.0773   0.25   0.5773
V73     V     0.7025   0.0   0.4241
Ce74     Ce     0.5706   0.0   0.3752
V75     V     0.2975   0.0   0.4241
Ce76     Ce     0.4294   0.0   0.3752
V77     V     0.7975   0.0759   0.5
Ce78     Ce     0.9294   0.1248   0.5
V79     V     0.2025   0.0759   0.5
Ce80     Ce     0.0706   0.1248   0.5
V81     V     0.7975   0.9241   0.5
Ce82     Ce     0.9294   0.8752   0.5
V83     V     0.2025   0.9241   0.5
Ce84     Ce     0.0706   0.8752   0.5
V85     V     0.7025   0.0   0.5759
Ce86     Ce     0.5706   0.0   0.6248
V87     V     0.2975   0.0   0.5759
Ce88     Ce     0.4294   0.0   0.6248
Ti89     Ti     0.4227   0.9227   0.75
Ti90     Ti     0.5773   0.9227   0.75
Ti91     Ti     0.4227   0.9227   0.25
Ti92     Ti     0.5773   0.9227   0.25
Ti93     Ti     0.5773   0.0773   0.75
Ti94     Ti     0.4227   0.0773   0.75
Ti95     Ti     0.5773   0.0773   0.25
Ti96     Ti     0.4227   0.0773   0.25
loop_
_geom_bond_atom_site_label_1
_geom_bond_atom_site_label_2
_geom_bond_distance
_geom_bond_site_symmetry_2
_ccdc_geom_bond_type
Er1     Ti65    10.49   .     S
Er1     Er2    10.298   .     S
Er1     Er3    10.298   .     S
Er2     Ti42    10.49   .     S
Er2     Er3    10.298   .     S
Er3     Ti90    10.49   .     S
Er4     Ti68    10.49   .     S
Er4     Er5    10.298   .     S
Er4     Er6    10.298   .     S
Er5     Ti89    10.49   .     S
Er5     Er6    10.298   .     S
Er6     Ti43    10.49   .     S
Er7     Ti93    10.49   .     S
Er7     Er8    10.298   .     S
Er7     Er9    10.298   .     S
Er8     Ti41    10.49   .     S
Er8     Er9    10.298   .     S
Er9     Ti66    10.49   .     S
Er10     Ti46    10.49   .     S
Er10     Er11    10.298   .     S
Er10     Er12    10.298   .     S
Er11     Ti64    10.49   .     S
Er11     Er12    10.298   .     S
Er12     Ti92    10.49   .     S
Er13     Ti44    10.49   .     S
Er13     Er15    10.298   .     S
Er13     Er14    10.298   .     S
Er14     Ti95    10.49   .     S
Er14     Er15    10.298   .     S
Er15     Ti67    10.49   .     S
Er16     Ti72    10.49   .     S
Er16     Er17    10.298   .     S
Er16     Er18    10.298   .     S
Er17     Ti94    10.49   .     S
Er17     Er18    10.298   .     S
Er18     Ti45    10.49   .     S
Er19     Ti47    10.49   .     S
Er19     Er21    10.298   .     S
Er19     Er20    10.298   .     S
Er20     Ti91    10.49   .     S
Er20     Er21    10.298   .     S
Er21     Ti69    10.49   .     S
Er22     Ti70    10.49   .     S
Er22     Er23    10.298   .     S
Er22     Er24    10.298   .     S
Er23     Ti71    10.49   .     S
Er23     Er24    10.298   .     S
Er24     Ti96    10.49   .     S
V25     Ce26    9.474   .     S
V25     V33    9.643   1_554     S
V25     V29    9.643   .     S
V25     V37    10.215   .     S
Ce26     Ti47    9.914   .     S
Ce26     Ti43    9.914   1_554     S
Ce26     Ce28    9.5   .     S
V27     Ce28    9.474   .     S
V27     V35    9.643   1_554     S
V27     V31    9.643   .     S
V27     V39    10.215   .     S
Ce28     Ti71    9.914   .     S
Ce28     Ti45    9.914   1_554     S
V29     Ce30    9.474   .     S
V29     V37    9.643   .     S
V29     V33    10.215   1_554     S
Ce30     Ti91    9.914   .     S
Ce30     Ti92    9.914   .     S
Ce30     Ce32    9.5   1_565     S
V31     Ce32    9.474   .     S
V31     V39    9.643   .     S
V31     V35    10.215   1_554     S
Ce32     Ti95    9.914   .     S
Ce32     Ti96    9.914   .     S
Ce32     Ce30    9.5   1_545     S
V33     Ce34    9.474   .     S
V33     V25    9.643   1_556     S
V33     V37    9.643   1_556     S
V33     V29    10.215   1_556     S
Ce34     Ti89    9.914   .     S
Ce34     Ti90    9.914   .     S
Ce34     Ce36    9.5   1_565     S
V35     Ce36    9.474   .     S
V35     V27    9.643   1_556     S
V35     V39    9.643   1_556     S
V35     V31    10.215   1_556     S
Ce36     Ti93    9.914   .     S
Ce36     Ti94    9.914   .     S
Ce36     Ce34    9.5   1_545     S
V37     Ce38    9.474   .     S
V37     V33    9.643   1_554     S
Ce38     Ti46    9.914   .     S
Ce38     Ti42    9.914   1_554     S
Ce38     Ce40    9.5   .     S
V39     Ce40    9.474   .     S
V39     V35    9.643   1_554     S
Ce40     Ti44    9.914   .     S
Ce40     Ti41    9.914   1_554     S
Ti41     Ce40    9.914   1_556     S
Ti41     Ce57    9.914   .     S
Ti41     Ti44    10.411   1_556     S
Ti41     Ti42    10.411   .     S
Ti42     Ce38    9.914   1_556     S
Ti42     Ce57    9.914   .     S
Ti42     Ti46    10.411   1_556     S
Ti43     Ce26    9.914   1_556     S
Ti43     Ce53    9.914   .     S
Ti43     Ti47    10.411   1_556     S
Ti43     Ti45    10.411   .     S
Ti44     Ce59    9.914   .     S
Ti44     Ti41    10.411   1_554     S
Ti44     Ti46    10.411   .     S
Ti45     Ce28    9.914   1_556     S
Ti45     Ce53    9.914   .     S
Ti45     Ti71    10.411   1_556     S
Ti46     Ce59    9.914   .     S
Ti46     Ti42    10.411   1_554     S
Ti47     Ce55    9.914   .     S
Ti47     Ti43    10.411   1_554     S
Ti47     Ti71    10.411   .     S
V48     Ce49    9.474   .     S
V48     V56    9.643   1_455     S
V48     V52    9.643   .     S
V48     V60    10.215   .     S
Ce49     Ti72    9.914   .     S
Ce49     Ti66    9.914   1_455     S
Ce49     Ce51    9.5   .     S
V50     Ce51    9.474   .     S
V50     V58    9.643   1_455     S
V50     V54    9.643   .     S
V50     V62    10.215   .     S
Ce51     Ti70    9.914   .     S
Ce51     Ti67    9.914   1_455     S
V52     Ce53    9.474   .     S
V52     V60    9.643   .     S
V52     V56    10.215   1_455     S
Ce53     Ce55    9.5   1_556     S
V54     Ce55    9.474   .     S
V54     V62    9.643   .     S
V54     V58    10.215   1_455     S
Ce55     Ti71    9.914   .     S
Ce55     Ce53    9.5   1_554     S
V56     Ce57    9.474   .     S
V56     V48    9.643   1_655     S
V56     V60    9.643   1_655     S
V56     V52    10.215   1_655     S
Ce57     Ce59    9.5   1_556     S
V58     Ce59    9.474   .     S
V58     V50    9.643   1_655     S
V58     V62    9.643   1_655     S
V58     V54    10.215   1_655     S
Ce59     Ce57    9.5   1_554     S
V60     Ce61    9.474   .     S
V60     V56    9.643   1_455     S
Ce61     Ti68    9.914   .     S
Ce61     Ti65    9.914   1_455     S
Ce61     Ce63    9.5   .     S
V62     Ce63    9.474   .     S
V62     V58    9.643   1_455     S
Ce63     Ti69    9.914   .     S
Ce63     Ti64    9.914   1_455     S
Ti64     Ce63    9.914   1_655     S
Ti64     Ce82    9.914   .     S
Ti64     Ti69    10.411   1_655     S
Ti64     Ti65    10.411   .     S
Ti65     Ce61    9.914   1_655     S
Ti65     Ce82    9.914   .     S
Ti65     Ti68    10.411   1_655     S
Ti66     Ce49    9.914   1_655     S
Ti66     Ce78    9.914   .     S
Ti66     Ti72    10.411   1_655     S
Ti66     Ti67    10.411   .     S
Ti67     Ce51    9.914   1_655     S
Ti67     Ce78    9.914   .     S
Ti67     Ti70    10.411   1_655     S
Ti68     Ce84    9.914   .     S
Ti68     Ti65    10.411   1_455     S
Ti68     Ti69    10.411   .     S
Ti69     Ce84    9.914   .     S
Ti69     Ti64    10.411   1_455     S
Ti70     Ce80    9.914   .     S
Ti70     Ti67    10.411   1_455     S
Ti70     Ti72    10.411   .     S
Ti71     Ti45    10.411   1_554     S
Ti72     Ce80    9.914   .     S
Ti72     Ti66    10.411   1_455     S
V73     Ce74    9.474   .     S
V73     V81    9.643   1_545     S
V73     V77    9.643   .     S
V73     V85    10.215   .     S
Ce74     Ti95    9.914   .     S
Ce74     Ti92    9.914   1_545     S
Ce74     Ce76    9.5   .     S
V75     Ce76    9.474   .     S
V75     V83    9.643   1_545     S
V75     V79    9.643   .     S
V75     V87    10.215   .     S
Ce76     Ti96    9.914   .     S
Ce76     Ti91    9.914   1_545     S
V77     Ce78    9.474   .     S
V77     V85    9.643   .     S
V77     V81    10.215   1_545     S
Ce78     Ce80    9.5   1_655     S
V79     Ce80    9.474   .     S
V79     V87    9.643   .     S
V79     V83    10.215   1_545     S
Ce80     Ce78    9.5   1_455     S
V81     Ce82    9.474   .     S
V81     V73    9.643   1_565     S
V81     V85    9.643   1_565     S
V81     V77    10.215   1_565     S
Ce82     Ce84    9.5   1_655     S
V83     Ce84    9.474   .     S
V83     V75    9.643   1_565     S
V83     V87    9.643   1_565     S
V83     V79    10.215   1_565     S
Ce84     Ce82    9.5   1_455     S
V85     Ce86    9.474   .     S
V85     V81    9.643   1_545     S
Ce86     Ti93    9.914   .     S
Ce86     Ti90    9.914   1_545     S
Ce86     Ce88    9.5   .     S
V87     Ce88    9.474   .     S
V87     V83    9.643   1_545     S
Ce88     Ti94    9.914   .     S
Ce88     Ti89    9.914   1_545     S
Ti89     Ce88    9.914   1_565     S
Ti89     Ti94    10.411   1_565     S
Ti89     Ti90    10.411   .     S
Ti90     Ce86    9.914   1_565     S
Ti90     Ti93    10.411   1_565     S
Ti91     Ce76    9.914   1_565     S
Ti91     Ti96    10.411   1_565     S
Ti91     Ti92    10.411   .     S
Ti92     Ce74    9.914   1_565     S
Ti92     Ti95    10.411   1_565     S
Ti93     Ti90    10.411   1_545     S
Ti93     Ti94    10.411   .     S
Ti94     Ti89    10.411   1_545     S
Ti95     Ti92    10.411   1_545     S
Ti95     Ti96    10.411   .     S
Ti96     Ti91    10.411   1_545     S
