data_epsa
_audit_creation_date              2020-02-02
_audit_creation_method            'Pymatgen'
_symmetry_space_group_name_H-M    'P1'
_symmetry_Int_Tables_number       1
loop_
_symmetry_equiv_pos_as_xyz
  x,y,z
_cell_length_a                    63.9549
_cell_length_b                    63.9549
_cell_length_c                    63.9549
_cell_angle_alpha                 90.0
_cell_angle_beta                 90.0
_cell_angle_gamma                 90.0
loop_
_atom_site_label
_atom_site_type_symbol
_atom_site_fract_x
_atom_site_fract_y
_atom_site_fract_z
Ce1     Ce     0.1106   0.4215   0.0
Ce2     Ce     0.0   0.4215   0.1106
Ce3     Ce     0.8894   0.4215   0.0
Ce4     Ce     0.0   0.4215   0.8894
Ce5     Ce     0.0   0.5785   0.1106
Ce6     Ce     0.1106   0.5785   0.0
Ce7     Ce     0.8894   0.5785   0.0
Ce8     Ce     0.0   0.5785   0.8894
Ti9     Ti     0.4222   0.4222   0.0
V10     V     0.3124   0.3124   0.0
Ti11     Ti     0.5778   0.4222   0.0
V12     V     0.6876   0.3124   0.0
Ti13     Ti     0.5778   0.5778   0.0
V14     V     0.6876   0.6876   0.0
Ti15     Ti     0.4222   0.5778   0.0
V16     V     0.3124   0.6876   0.0
Er17     Er     0.2729   0.8383   0.0
Er18     Er     0.8383   0.2729   0.0
Er19     Er     0.7271   0.8383   0.0
Er20     Er     0.8383   0.7271   0.0
Er21     Er     0.2729   0.1617   0.0
Er22     Er     0.1617   0.2729   0.0
Er23     Er     0.1617   0.7271   0.0
Er24     Er     0.7271   0.1617   0.0
Ce25     Ce     0.4215   0.0   0.1106
Ce26     Ce     0.4215   0.1106   0.0
Ce27     Ce     0.4215   0.0   0.8894
Ce28     Ce     0.4215   0.8894   0.0
Ce29     Ce     0.5785   0.0   0.1106
Ce30     Ce     0.5785   0.1106   0.0
Ce31     Ce     0.5785   0.8894   0.0
Ce32     Ce     0.5785   0.0   0.8894
Ti33     Ti     0.0   0.4222   0.5778
V34     V     0.0   0.3124   0.6876
Ti35     Ti     0.0   0.4222   0.4222
V36     V     0.0   0.3124   0.3124
Ti37     Ti     0.0   0.5778   0.5778
V38     V     0.0   0.6876   0.6876
Ti39     Ti     0.0   0.5778   0.4222
V40     V     0.0   0.6876   0.3124
Er41     Er     0.0   0.8383   0.2729
Er42     Er     0.0   0.2729   0.8383
Er43     Er     0.0   0.8383   0.7271
Er44     Er     0.0   0.7271   0.8383
Er45     Er     0.0   0.1617   0.2729
Er46     Er     0.0   0.2729   0.1617
Er47     Er     0.0   0.1617   0.7271
Er48     Er     0.0   0.7271   0.1617
Ti49     Ti     0.5778   0.0   0.4222
V50     V     0.6876   0.0   0.3124
Ti51     Ti     0.5778   0.0   0.5778
V52     V     0.6876   0.0   0.6876
Ti53     Ti     0.4222   0.0   0.5778
V54     V     0.3124   0.0   0.6876
Ti55     Ti     0.4222   0.0   0.4222
V56     V     0.3124   0.0   0.3124
Er57     Er     0.8383   0.0   0.2729
Er58     Er     0.2729   0.0   0.8383
Er59     Er     0.8383   0.0   0.7271
Er60     Er     0.7271   0.0   0.8383
Er61     Er     0.1617   0.0   0.2729
Er62     Er     0.2729   0.0   0.1617
Er63     Er     0.1617   0.0   0.7271
Er64     Er     0.7271   0.0   0.1617
Ce65     Ce     0.1106   0.0   0.4215
Ce66     Ce     0.0   0.1106   0.4215
Ce67     Ce     0.8894   0.0   0.4215
Ce68     Ce     0.0   0.8894   0.4215
Ce69     Ce     0.0   0.1106   0.5785
Ce70     Ce     0.1106   0.0   0.5785
Ce71     Ce     0.8894   0.0   0.5785
Ce72     Ce     0.0   0.8894   0.5785
loop_
_geom_bond_atom_site_label_1
_geom_bond_atom_site_label_2
_geom_bond_distance
_geom_bond_site_symmetry_2
_ccdc_geom_bond_type
Ce1     Ce4    10.002   1_554     S
Ce1     Ce2    10.002   .     S
Ce1     Ce6    10.045   .     S
Ce1     Er22    10.048   .     S
Ce2     Ce3    10.002   1_455     S
Ce2     Ce5    10.045   .     S
Ce2     Er46    10.048   .     S
Ce3     Ce2    10.002   1_655     S
Ce3     Ce4    10.002   1_654     S
Ce3     Ce7    10.045   .     S
Ce3     Er18    10.048   .     S
Ce4     Ce1    10.002   1_556     S
Ce4     Ce3    10.002   1_456     S
Ce4     Ce8    10.045   .     S
Ce4     Er42    10.048   .     S
Ce5     Ce7    10.002   1_455     S
Ce5     Ce6    10.002   .     S
Ce5     Er48    10.048   .     S
Ce6     Ce8    10.002   1_554     S
Ce6     Er23    10.048   .     S
Ce7     Ce5    10.002   1_655     S
Ce7     Ce8    10.002   1_654     S
Ce7     Er20    10.048   .     S
Ce8     Ce6    10.002   1_556     S
Ce8     Ce7    10.002   1_456     S
Ce8     Er44    10.048   .     S
Ti9     V10    9.935   .     S
Ti9     Ti11    9.95   .     S
Ti9     Ti15    9.95   .     S
V10     Er21    9.957   .     S
V10     Er22    9.957   .     S
Ti11     V12    9.935   .     S
Ti11     Ti13    9.95   .     S
V12     Er18    9.957   .     S
V12     Er24    9.957   .     S
Ti13     V14    9.935   .     S
Ti13     Ti15    9.95   .     S
V14     Er19    9.957   .     S
V14     Er20    9.957   .     S
Ti15     V16    9.935   .     S
V16     Er17    9.957   .     S
V16     Er23    9.957   .     S
Er17     Er23    10.057   .     S
Er17     Ce28    10.048   .     S
Er18     Er24    10.057   .     S
Er19     Er20    10.057   .     S
Er19     Ce31    10.048   .     S
Er21     Er22    10.057   .     S
Er21     Ce26    10.048   .     S
Er24     Ce30    10.048   .     S
Ce25     Ce28    10.002   1_545     S
Ce25     Ce26    10.002   .     S
Ce25     Ce29    10.045   .     S
Ce25     Er62    10.048   .     S
Ce26     Ce27    10.002   1_554     S
Ce26     Ce30    10.045   .     S
Ce27     Ce26    10.002   1_556     S
Ce27     Ce28    10.002   1_546     S
Ce27     Ce32    10.045   .     S
Ce27     Er58    10.048   .     S
Ce28     Ce25    10.002   1_565     S
Ce28     Ce27    10.002   1_564     S
Ce28     Ce31    10.045   .     S
Ce29     Ce31    10.002   1_545     S
Ce29     Ce30    10.002   .     S
Ce29     Er64    10.048   .     S
Ce30     Ce32    10.002   1_554     S
Ce31     Ce29    10.002   1_565     S
Ce31     Ce32    10.002   1_564     S
Ce32     Ce30    10.002   1_556     S
Ce32     Ce31    10.002   1_546     S
Ce32     Er60    10.048   .     S
Ti33     V34    9.935   .     S
Ti33     Ti35    9.95   .     S
Ti33     Ti37    9.95   .     S
V34     Er42    9.957   .     S
V34     Er47    9.957   .     S
Ti35     V36    9.935   .     S
Ti35     Ti39    9.95   .     S
V36     Er45    9.957   .     S
V36     Er46    9.957   .     S
Ti37     V38    9.935   .     S
Ti37     Ti39    9.95   .     S
V38     Er43    9.957   .     S
V38     Er44    9.957   .     S
Ti39     V40    9.935   .     S
V40     Er41    9.957   .     S
V40     Er48    9.957   .     S
Er41     Er48    10.057   .     S
Er41     Ce68    10.048   .     S
Er42     Er47    10.057   .     S
Er43     Er44    10.057   .     S
Er43     Ce72    10.048   .     S
Er45     Er46    10.057   .     S
Er45     Ce66    10.048   .     S
Er47     Ce69    10.048   .     S
Ti49     V50    9.935   .     S
Ti49     Ti51    9.95   .     S
Ti49     Ti55    9.95   .     S
V50     Er57    9.957   .     S
V50     Er64    9.957   .     S
Ti51     V52    9.935   .     S
Ti51     Ti53    9.95   .     S
V52     Er59    9.957   .     S
V52     Er60    9.957   .     S
Ti53     V54    9.935   .     S
Ti53     Ti55    9.95   .     S
V54     Er58    9.957   .     S
V54     Er63    9.957   .     S
Ti55     V56    9.935   .     S
V56     Er61    9.957   .     S
V56     Er62    9.957   .     S
Er57     Er64    10.057   .     S
Er57     Ce67    10.048   .     S
Er58     Er63    10.057   .     S
Er59     Er60    10.057   .     S
Er59     Ce71    10.048   .     S
Er61     Er62    10.057   .     S
Er61     Ce65    10.048   .     S
Er63     Ce70    10.048   .     S
Ce65     Ce68    10.002   1_545     S
Ce65     Ce66    10.002   .     S
Ce65     Ce70    10.045   .     S
Ce66     Ce67    10.002   1_455     S
Ce66     Ce69    10.045   .     S
Ce67     Ce66    10.002   1_655     S
Ce67     Ce68    10.002   1_645     S
Ce67     Ce71    10.045   .     S
Ce68     Ce65    10.002   1_565     S
Ce68     Ce67    10.002   1_465     S
Ce68     Ce72    10.045   .     S
Ce69     Ce71    10.002   1_455     S
Ce69     Ce70    10.002   .     S
Ce70     Ce72    10.002   1_545     S
Ce71     Ce69    10.002   1_655     S
Ce71     Ce72    10.002   1_645     S
Ce72     Ce70    10.002   1_565     S
Ce72     Ce71    10.002   1_465     S
