data_epta
_audit_creation_date              2020-02-02
_audit_creation_method            'Pymatgen'
_symmetry_space_group_name_H-M    'P1'
_symmetry_Int_Tables_number       1
loop_
_symmetry_equiv_pos_as_xyz
  x,y,z
_cell_length_a                    50.3269
_cell_length_b                    50.3269
_cell_length_c                    110.1513
_cell_angle_alpha                 90.0
_cell_angle_beta                 90.0
_cell_angle_gamma                 90.0
loop_
_atom_site_label
_atom_site_type_symbol
_atom_site_fract_x
_atom_site_fract_y
_atom_site_fract_z
Ti1     Ti     0.2499   0.3494   0.4679
Ti2     Ti     0.1506   0.2501   0.5321
Ti3     Ti     0.3494   0.2499   0.5321
Ti4     Ti     0.2501   0.1506   0.4679
Ti5     Ti     0.6506   0.7501   0.4679
Ti6     Ti     0.7499   0.8494   0.5321
Ti7     Ti     0.8494   0.7499   0.4679
Ti8     Ti     0.7501   0.6506   0.5321
Ti9     Ti     0.2499   0.1506   0.0321
Ti10     Ti     0.1506   0.2499   0.9679
Ti11     Ti     0.2501   0.3494   0.0321
Ti12     Ti     0.3494   0.2501   0.9679
V13     V     0.0001   0.8594   0.064
V14     V     0.1406   0.9999   0.064
Er15     Er     0.1194   0.8806   0.1359
V16     V     0.1406   0.5001   0.436
V17     V     0.0001   0.6406   0.436
Er18     Er     0.1194   0.6194   0.3641
V19     V     0.4999   0.8594   0.436
V20     V     0.3594   0.9999   0.436
Er21     Er     0.3806   0.8806   0.3641
Ce22     Ce     0.1798   0.6798   0.2821
Ce23     Ce     0.3202   0.8202   0.2821
Ce24     Ce     0.1798   0.8202   0.2179
Ce25     Ce     0.3202   0.6798   0.2179
V26     V     0.3594   0.5001   0.064
V27     V     0.4999   0.6406   0.064
Er28     Er     0.3806   0.6194   0.1359
V29     V     0.5001   0.1406   0.564
V30     V     0.6406   0.0001   0.564
Er31     Er     0.6194   0.1194   0.6359
V32     V     0.9999   0.3594   0.564
V33     V     0.8594   0.4999   0.564
Er34     Er     0.8806   0.3806   0.6359
V35     V     0.8594   0.0001   0.936
V36     V     0.9999   0.1406   0.936
Er37     Er     0.8806   0.1194   0.8641
Ce38     Ce     0.8202   0.1798   0.7821
Ce39     Ce     0.6798   0.3202   0.7821
Ce40     Ce     0.6798   0.1798   0.7179
Ce41     Ce     0.8202   0.3202   0.7179
V42     V     0.5001   0.3594   0.936
V43     V     0.6406   0.4999   0.936
Er44     Er     0.6194   0.3806   0.8641
Ti45     Ti     0.6506   0.7499   0.0321
Ti46     Ti     0.7499   0.6506   0.9679
Ti47     Ti     0.8494   0.7501   0.0321
Ti48     Ti     0.7501   0.8494   0.9679
loop_
_geom_bond_atom_site_label_1
_geom_bond_atom_site_label_2
_geom_bond_distance
_geom_bond_site_symmetry_2
_ccdc_geom_bond_type
Ti1     Ti2    9.991   .     S
Ti1     Ti3    10.004   .     S
Ti1     Ti4    10.0   .     S
Ti1     V16    10.006   .     S
Ti2     Ti3    10.0   .     S
Ti2     Ti4    10.004   .     S
Ti2     V32    10.006   1_455     S
Ti3     Ti4    9.991   .     S
Ti3     V29    10.006   .     S
Ti4     V20    10.006   1_545     S
Ti5     Ti6    9.991   .     S
Ti5     Ti8    10.004   .     S
Ti5     Ti7    10.0   .     S
Ti5     V19    10.006   .     S
Ti6     Ti7    10.004   .     S
Ti6     Ti8    10.0   .     S
Ti6     V30    10.006   1_565     S
Ti7     Ti8    9.991   .     S
Ti7     V17    10.006   1_655     S
Ti8     V33    10.006   .     S
Ti9     Ti10    9.991   1_554     S
Ti9     Ti12    10.004   1_554     S
Ti9     Ti11    10.0   .     S
Ti9     V14    10.006   1_545     S
Ti10     Ti9    9.991   1_556     S
Ti10     Ti11    10.004   1_556     S
Ti10     Ti12    10.0   .     S
Ti10     V36    10.006   1_455     S
Ti11     Ti12    9.991   1_554     S
Ti11     Ti10    10.004   1_554     S
Ti11     V26    10.006   .     S
Ti12     Ti11    9.991   1_556     S
Ti12     Ti9    10.004   1_556     S
Ti12     V42    10.006   .     S
V13     Er15    9.998   .     S
V13     V14    10.003   .     S
V13     Ti47    10.006   1_455     S
V14     Ti9    10.006   1_565     S
V14     Er15    9.998   .     S
Er15     Ce24    10.003   .     S
V16     V17    10.003   .     S
V16     Er18    9.998   .     S
V17     Ti7    10.006   1_455     S
V17     Er18    9.998   .     S
Er18     Ce22    10.003   .     S
V19     V20    10.003   .     S
V19     Er21    9.998   .     S
V20     Ti4    10.006   1_565     S
V20     Er21    9.998   .     S
Er21     Ce23    10.003   .     S
Ce22     Ce23    9.99   .     S
Ce22     Ce24    9.998   .     S
Ce22     Ce25    9.998   .     S
Ce23     Ce24    9.998   .     S
Ce23     Ce25    9.998   .     S
Ce24     Ce25    9.99   .     S
Ce25     Er28    10.003   .     S
V26     Er28    9.998   .     S
V26     V27    10.003   .     S
V27     Er28    9.998   .     S
V27     Ti45    10.006   .     S
V29     Er31    9.998   .     S
V29     V30    10.003   .     S
V30     Ti6    10.006   1_545     S
V30     Er31    9.998   .     S
Er31     Ce40    10.003   .     S
V32     Ti2    10.006   1_655     S
V32     Er34    9.998   .     S
V32     V33    10.003   .     S
V33     Er34    9.998   .     S
Er34     Ce41    10.003   .     S
V35     Er37    9.998   .     S
V35     V36    10.003   .     S
V35     Ti48    10.006   1_545     S
V36     Ti10    10.006   1_655     S
V36     Er37    9.998   .     S
Er37     Ce38    10.003   .     S
Ce38     Ce39    9.99   .     S
Ce38     Ce41    9.998   .     S
Ce38     Ce40    9.998   .     S
Ce39     Ce40    9.998   .     S
Ce39     Ce41    9.998   .     S
Ce39     Er44    10.003   .     S
Ce40     Ce41    9.99   .     S
V42     Er44    9.998   .     S
V42     V43    10.003   .     S
V43     Er44    9.998   .     S
V43     Ti46    10.006   .     S
Ti45     Ti46    9.991   1_554     S
Ti45     Ti48    10.004   1_554     S
Ti45     Ti47    10.0   .     S
Ti46     Ti45    9.991   1_556     S
Ti46     Ti47    10.004   1_556     S
Ti46     Ti48    10.0   .     S
Ti47     Ti46    10.004   1_554     S
Ti47     Ti48    9.991   1_554     S
Ti47     V13    10.006   1_655     S
Ti48     Ti45    10.004   1_556     S
Ti48     Ti47    9.991   1_556     S
Ti48     V35    10.006   1_565     S
