data_epva
_audit_creation_date              2020-02-02
_audit_creation_method            'Pymatgen'
_symmetry_space_group_name_H-M    'P1'
_symmetry_Int_Tables_number       1
loop_
_symmetry_equiv_pos_as_xyz
  x,y,z
_cell_length_a                    48.2634
_cell_length_b                    48.2634
_cell_length_c                    181.4379
_cell_angle_alpha                 90.0
_cell_angle_beta                 90.0
_cell_angle_gamma                 120.0
loop_
_atom_site_label
_atom_site_type_symbol
_atom_site_fract_x
_atom_site_fract_y
_atom_site_fract_z
Ti1     Ti     0.4024   0.5976   0.1442
Ti2     Ti     0.4024   0.8048   0.1442
Ti3     Ti     0.1952   0.5976   0.1442
Ti4     Ti     0.2643   0.5285   0.1892
Ti5     Ti     0.4715   0.7357   0.1892
Ti6     Ti     0.2643   0.7357   0.1892
Ce7     Ce     0.5638   0.4362   0.9087
Ce8     Ce     0.8724   0.4362   0.9087
Ce9     Ce     0.5638   0.1276   0.9087
V10     V     0.2072   0.0   0.9724
Er11     Er     0.4161   0.0394   0.9519
Er12     Er     0.6233   0.0394   0.9519
V13     V     0.7928   0.0   0.9724
V14     V     0.2072   0.2072   0.9724
Er15     Er     0.4161   0.3767   0.9519
Er16     Er     0.6233   0.5839   0.9519
V17     V     0.7928   0.7928   0.9724
V18     V     0.0   0.2072   0.9724
Er19     Er     0.9606   0.3767   0.9519
Er20     Er     0.9606   0.5839   0.9519
V21     V     0.0   0.7928   0.9724
Ce22     Ce     0.4362   0.5638   0.0913
Ce23     Ce     0.1276   0.5638   0.0913
Ce24     Ce     0.4362   0.8724   0.0913
V25     V     0.2072   0.0   0.0276
Er26     Er     0.5839   0.9606   0.0481
Er27     Er     0.3767   0.9606   0.0481
V28     V     0.7928   0.0   0.0276
V29     V     0.7928   0.7928   0.0276
Er30     Er     0.5839   0.6233   0.0481
Er31     Er     0.3767   0.4161   0.0481
V32     V     0.2072   0.2072   0.0276
V33     V     0.0   0.7928   0.0276
Er34     Er     0.0394   0.4161   0.0481
Er35     Er     0.0394   0.6233   0.0481
V36     V     0.0   0.2072   0.0276
Ti37     Ti     0.5976   0.4024   0.8558
Ti38     Ti     0.7357   0.2643   0.8108
Ti39     Ti     0.7357   0.4715   0.8108
Ti40     Ti     0.5285   0.2643   0.8108
Ti41     Ti     0.8048   0.4024   0.8558
Ti42     Ti     0.5976   0.1952   0.8558
Ce43     Ce     0.7695   0.5391   0.758
Ce44     Ce     0.7695   0.2305   0.758
Ce45     Ce     0.4609   0.2305   0.758
Er46     Er     0.71   0.6272   0.7148
V47     V     0.5405   0.6667   0.6942
V48     V     0.1261   0.6667   0.6942
Er49     Er     0.9172   0.6272   0.7148
V50     V     0.5405   0.8739   0.6942
Er51     Er     0.9172   0.29   0.7148
Er52     Er     0.71   0.0828   0.7148
V53     V     0.1261   0.4595   0.6942
Er54     Er     0.3728   0.0828   0.7148
V55     V     0.3333   0.8739   0.6942
V56     V     0.3333   0.4595   0.6942
Er57     Er     0.3728   0.29   0.7148
Ce58     Ce     0.2057   0.1029   0.5754
Ce59     Ce     0.8971   0.1029   0.5754
Ce60     Ce     0.8971   0.7943   0.5754
Er61     Er     0.7495   0.7061   0.6186
V62     V     0.5405   0.6667   0.6391
V63     V     0.1261   0.6667   0.6391
Er64     Er     0.9567   0.7061   0.6186
Er65     Er     0.2939   0.0433   0.6186
V66     V     0.3333   0.8739   0.6391
V67     V     0.5405   0.8739   0.6391
Er68     Er     0.7495   0.0433   0.6186
Er69     Er     0.9567   0.2505   0.6186
V70     V     0.1261   0.4595   0.6391
V71     V     0.3333   0.4595   0.6391
Er72     Er     0.2939   0.2505   0.6186
Ti73     Ti     0.9309   0.0691   0.5225
Ti74     Ti     0.1381   0.0691   0.5225
Ti75     Ti     0.9309   0.8619   0.5225
Ti76     Ti     0.0691   0.9309   0.4775
Ti77     Ti     0.0691   0.1381   0.4775
Ti78     Ti     0.8619   0.9309   0.4775
Ce79     Ce     0.1029   0.2057   0.4246
Ce80     Ce     0.1029   0.8971   0.4246
Ce81     Ce     0.7943   0.8971   0.4246
Er82     Er     0.0433   0.2939   0.3814
V83     V     0.8739   0.3333   0.3609
V84     V     0.4595   0.3333   0.3609
Er85     Er     0.2505   0.2939   0.3814
V86     V     0.8739   0.5405   0.3609
Er87     Er     0.0433   0.7495   0.3814
Er88     Er     0.2505   0.9567   0.3814
V89     V     0.4595   0.1261   0.3609
V90     V     0.6667   0.1261   0.3609
Er91     Er     0.7061   0.9567   0.3814
Er92     Er     0.7061   0.7495   0.3814
V93     V     0.6667   0.5405   0.3609
Ce94     Ce     0.5391   0.7695   0.242
Ce95     Ce     0.2305   0.7695   0.242
Ce96     Ce     0.2305   0.4609   0.242
Er97     Er     0.6272   0.71   0.2852
V98     V     0.6667   0.5405   0.3058
Er99     Er     0.0828   0.3728   0.2852
V100     V     0.8739   0.3333   0.3058
V101     V     0.4595   0.3333   0.3058
Er102     Er     0.29   0.3728   0.2852
V103     V     0.6667   0.1261   0.3058
Er104     Er     0.6272   0.9172   0.2852
V105     V     0.4595   0.1261   0.3058
Er106     Er     0.0828   0.71   0.2852
Er107     Er     0.29   0.9172   0.2852
V108     V     0.8739   0.5405   0.3058
loop_
_geom_bond_atom_site_label_1
_geom_bond_atom_site_label_2
_geom_bond_distance
_geom_bond_site_symmetry_2
_ccdc_geom_bond_type
Ti1     Ti2    10.0   .     S
Ti1     Ti4    10.0   .     S
Ti1     Ti5    10.0   .     S
Ti1     Ti3    10.0   .     S
Ti1     Ce22    10.0   .     S
Ti2     Ti3    10.0   .     S
Ti2     Ti5    10.0   .     S
Ti2     Ti6    10.0   .     S
Ti2     Ce24    10.0   .     S
Ti3     Ti6    10.0   .     S
Ti3     Ti4    10.0   .     S
Ti3     Ce23    10.0   .     S
Ti4     Ti5    10.0   .     S
Ti4     Ti6    10.0   .     S
Ti4     Ce96    10.0   .     S
Ti5     Ti6    10.0   .     S
Ti5     Ce94    10.0   .     S
Ti6     Ce95    10.0   .     S
Ce7     Ti37    10.0   .     S
Ce7     Er16    10.0   .     S
Ce7     Er15    10.0   .     S
Ce8     Ti41    10.0   .     S
Ce8     Er19    10.0   .     S
Ce8     Er20    10.0   .     S
Ce9     Ti42    10.0   .     S
Ce9     Er11    10.0   .     S
Ce9     Er12    10.0   .     S
V10     Er11    10.0   .     S
V10     V21    10.0   1_545     S
V10     V14    10.0   .     S
V10     V25    10.001   1_556     S
Er11     Er12    10.0   .     S
Er12     V13    10.0   .     S
V13     V18    10.0   1_655     S
V13     V17    10.0   1_545     S
V13     V28    10.001   1_556     S
V14     Er15    10.0   .     S
V14     V18    10.0   .     S
V14     V32    10.001   1_556     S
Er15     Er16    10.0   .     S
Er16     V17    10.0   .     S
V17     V21    10.0   1_655     S
V17     V13    10.0   1_565     S
V17     V29    10.001   1_556     S
V18     Er19    10.0   1_455     S
V18     V13    10.0   1_455     S
V18     V36    10.001   1_556     S
Er19     V18    10.0   1_655     S
Er19     Er20    10.0   .     S
Er20     V21    10.0   1_655     S
V21     V17    10.0   1_455     S
V21     Er20    10.0   1_455     S
V21     V10    10.0   1_565     S
V21     V33    10.001   1_556     S
Ce22     Er30    10.0   .     S
Ce22     Er31    10.0   .     S
Ce23     Er34    10.0   .     S
Ce23     Er35    10.0   .     S
Ce24     Er27    10.0   .     S
Ce24     Er26    10.0   .     S
V25     Er27    10.0   1_545     S
V25     V33    10.0   1_545     S
V25     V32    10.0   .     S
V25     V10    10.001   1_554     S
Er26     Er27    10.0   .     S
Er26     V28    10.0   1_565     S
Er27     V25    10.0   1_565     S
V28     Er26    10.0   1_545     S
V28     V29    10.0   1_545     S
V28     V36    10.0   1_655     S
V28     V13    10.001   1_554     S
V29     Er30    10.0   .     S
V29     V33    10.0   1_655     S
V29     V28    10.0   1_565     S
V29     V17    10.001   1_554     S
Er30     Er31    10.0   .     S
Er31     V32    10.0   .     S
V32     V36    10.0   .     S
V32     V14    10.001   1_554     S
V33     V29    10.0   1_455     S
V33     Er35    10.0   .     S
V33     V25    10.0   1_565     S
V33     V21    10.001   1_554     S
Er34     Er35    10.0   .     S
Er34     V36    10.0   .     S
V36     V28    10.0   1_455     S
V36     V18    10.001   1_554     S
Ti37     Ti42    10.0   .     S
Ti37     Ti41    10.0   .     S
Ti37     Ti39    10.0   .     S
Ti37     Ti40    10.0   .     S
Ti38     Ti39    10.0   .     S
Ti38     Ti40    10.0   .     S
Ti38     Ti42    10.0   .     S
Ti38     Ti41    10.0   .     S
Ti38     Ce44    10.0   .     S
Ti39     Ti40    10.0   .     S
Ti39     Ti41    10.0   .     S
Ti39     Ce43    10.0   .     S
Ti40     Ti42    10.0   .     S
Ti40     Ce45    10.0   .     S
Ti41     Ti42    10.0   .     S
Ce43     Er46    10.0   .     S
Ce43     Er49    10.0   .     S
Ce44     Er51    10.0   .     S
Ce44     Er52    10.0   .     S
Ce45     Er54    10.0   .     S
Ce45     Er57    10.0   .     S
Er46     Er49    10.0   .     S
Er46     V47    10.0   .     S
V47     V56    10.0   .     S
V47     V50    10.0   .     S
V47     V62    10.001   .     S
V48     Er49    10.0   1_455     S
V48     V53    10.0   .     S
V48     V55    10.0   .     S
V48     V63    10.001   .     S
Er49     V48    10.0   1_655     S
V50     Er52    10.0   1_565     S
V50     V55    10.0   .     S
V50     V67    10.001   .     S
Er51     Er52    10.0   .     S
Er51     V53    10.0   1_655     S
Er52     V50    10.0   1_545     S
V53     Er51    10.0   1_455     S
V53     V56    10.0   .     S
V53     V70    10.001   .     S
Er54     Er57    10.0   .     S
Er54     V55    10.0   1_545     S
V55     Er54    10.0   1_565     S
V55     V66    10.001   .     S
V56     Er57    10.0   .     S
V56     V71    10.001   .     S
Ce58     Ti74    10.0   .     S
Ce58     Er65    10.0   .     S
Ce58     Er72    10.0   .     S
Ce59     Ti73    10.0   .     S
Ce59     Er69    10.0   .     S
Ce59     Er68    10.0   .     S
Ce60     Ti75    10.0   .     S
Ce60     Er61    10.0   .     S
Ce60     Er64    10.0   .     S
Er61     Er64    10.0   .     S
Er61     V62    10.0   .     S
V62     V71    10.0   .     S
V62     V67    10.0   .     S
V63     Er64    10.0   1_455     S
V63     V70    10.0   .     S
V63     V66    10.0   .     S
Er64     V63    10.0   1_655     S
Er65     Er72    10.0   .     S
Er65     V66    10.0   1_545     S
V66     Er65    10.0   1_565     S
V66     V67    10.0   .     S
V67     Er68    10.0   1_565     S
Er68     V67    10.0   1_545     S
Er68     Er69    10.0   .     S
Er69     V70    10.0   1_655     S
V70     Er69    10.0   1_455     S
V70     V71    10.0   .     S
V71     Er72    10.0   .     S
Ti73     Ti75    10.0   1_545     S
Ti73     Ti74    10.0   1_655     S
Ti73     Ti77    10.0   1_655     S
Ti73     Ti78    10.0   1_545     S
Ti74     Ti73    10.0   1_455     S
Ti74     Ti75    10.0   1_445     S
Ti74     Ti77    10.0   .     S
Ti74     Ti76    10.0   1_545     S
Ti75     Ti73    10.0   1_565     S
Ti75     Ti74    10.0   1_665     S
Ti75     Ti76    10.0   1_655     S
Ti75     Ti78    10.0   .     S
Ti76     Ti78    10.0   1_455     S
Ti76     Ti77    10.0   1_565     S
Ti76     Ti75    10.0   1_455     S
Ti76     Ti74    10.0   1_565     S
Ti76     Ce80    10.0   .     S
Ti77     Ti78    10.0   1_445     S
Ti77     Ti76    10.0   1_545     S
Ti77     Ti73    10.0   1_455     S
Ti77     Ce79    10.0   .     S
Ti78     Ti76    10.0   1_655     S
Ti78     Ti77    10.0   1_665     S
Ti78     Ti73    10.0   1_565     S
Ti78     Ce81    10.0   .     S
Ce79     Er82    10.0   .     S
Ce79     Er85    10.0   .     S
Ce80     Er88    10.0   .     S
Ce80     Er87    10.0   .     S
Ce81     Er92    10.0   .     S
Ce81     Er91    10.0   .     S
Er82     Er85    10.0   .     S
Er82     V83    10.0   1_455     S
V83     Er82    10.0   1_655     S
V83     V90    10.0   .     S
V83     V86    10.0   .     S
V83     V100    10.001   .     S
V84     Er85    10.0   .     S
V84     V89    10.0   .     S
V84     V93    10.0   .     S
V84     V101    10.001   .     S
V86     Er87    10.0   1_655     S
V86     V93    10.0   .     S
V86     V108    10.001   .     S
Er87     V86    10.0   1_455     S
Er87     Er88    10.0   .     S
Er88     V89    10.0   1_565     S
V89     Er88    10.0   1_545     S
V89     V90    10.0   .     S
V89     V105    10.001   .     S
V90     Er91    10.0   1_545     S
V90     V103    10.001   .     S
Er91     V90    10.0   1_565     S
Er91     Er92    10.0   .     S
Er92     V93    10.0   .     S
V93     V98    10.001   .     S
Ce94     Er97    10.0   .     S
Ce94     Er104    10.0   .     S
Ce95     Er107    10.0   .     S
Ce95     Er106    10.0   .     S
Ce96     Er99    10.0   .     S
Ce96     Er102    10.0   .     S
Er97     Er104    10.0   .     S
Er97     V98    10.0   .     S
V98     V101    10.0   .     S
V98     V108    10.0   .     S
Er99     Er102    10.0   .     S
Er99     V100    10.0   1_455     S
V100     Er99    10.0   1_655     S
V100     V108    10.0   .     S
V100     V103    10.0   .     S
V101     Er102    10.0   .     S
V101     V105    10.0   .     S
V103     Er104    10.0   1_545     S
V103     V105    10.0   .     S
Er104     V103    10.0   1_565     S
V105     Er107    10.0   1_545     S
Er106     Er107    10.0   .     S
Er106     V108    10.0   1_455     S
Er107     V105    10.0   1_565     S
V108     Er106    10.0   1_655     S
