data_epxa
_audit_creation_date              2020-02-02
_audit_creation_method            'Pymatgen'
_symmetry_space_group_name_H-M    'P1'
_symmetry_Int_Tables_number       1
loop_
_symmetry_equiv_pos_as_xyz
  x,y,z
_cell_length_a                    34.1378
_cell_length_b                    34.1378
_cell_length_c                    77.1653
_cell_angle_alpha                 90.0
_cell_angle_beta                 90.0
_cell_angle_gamma                 90.0
loop_
_atom_site_label
_atom_site_type_symbol
_atom_site_fract_x
_atom_site_fract_y
_atom_site_fract_z
Er1     Er     0.1463   0.6463   0.25
Er2     Er     0.1463   0.3537   0.25
Er3     Er     0.8537   0.3537   0.25
Er4     Er     0.8537   0.6463   0.25
V5     V     0.8534   0.5   0.3622
V6     V     0.1466   0.5   0.3622
V7     V     0.0   0.3534   0.1378
V8     V     0.0   0.6466   0.1378
Ti9     Ti     0.3536   0.8536   0.25
Ti10     Ti     0.3536   0.1464   0.25
Ti11     Ti     0.6464   0.1464   0.25
Ti12     Ti     0.6464   0.8536   0.25
Ce13     Ce     0.3537   0.5   0.4541
Ce14     Ce     0.6463   0.5   0.4541
Ce15     Ce     0.5   0.3537   0.5459
Ce16     Ce     0.5   0.6463   0.5459
Ce17     Ce     0.1463   0.0   0.9541
Ce18     Ce     0.8537   0.0   0.9541
Ce19     Ce     0.0   0.1463   0.0459
Ce20     Ce     0.0   0.8537   0.0459
Er21     Er     0.3537   0.1463   0.75
Er22     Er     0.6463   0.1463   0.75
Er23     Er     0.6463   0.8537   0.75
Er24     Er     0.3537   0.8537   0.75
V25     V     0.5   0.8534   0.6378
V26     V     0.5   0.1466   0.6378
V27     V     0.6466   0.0   0.8622
V28     V     0.3534   0.0   0.8622
Ti29     Ti     0.1464   0.3536   0.75
Ti30     Ti     0.8536   0.3536   0.75
Ti31     Ti     0.1464   0.6464   0.75
Ti32     Ti     0.8536   0.6464   0.75
loop_
_geom_bond_atom_site_label_1
_geom_bond_atom_site_label_2
_geom_bond_distance
_geom_bond_site_symmetry_2
_ccdc_geom_bond_type
Er1     V6    9.997   .     S
Er1     V8    9.997   .     S
Er1     Er4    9.991   1_455     S
Er1     Er2    9.991   .     S
Er1     Ti9    10.005   .     S
Er2     V6    9.997   .     S
Er2     V7    9.997   .     S
Er2     Er3    9.991   1_455     S
Er2     Ti10    10.005   .     S
Er3     V5    9.997   .     S
Er3     V7    9.997   1_655     S
Er3     Er2    9.991   1_655     S
Er3     Er4    9.991   .     S
Er3     Ti11    10.005   .     S
Er4     V5    9.997   .     S
Er4     V8    9.997   1_655     S
Er4     Er1    9.991   1_655     S
Er4     Ti12    10.005   .     S
V5     V6    10.006   1_655     S
V5     Ce14    10.016   .     S
V6     V5    10.006   1_455     S
V6     Ce13    10.016   .     S
V7     Er3    9.997   1_455     S
V7     V8    10.006   .     S
V7     Ce19    10.016   .     S
V8     Er4    9.997   1_455     S
V8     Ce20    10.016   .     S
Ti9     Ti12    9.998   .     S
Ti9     Ti10    9.998   1_565     S
Ti10     Ti11    9.998   .     S
Ti10     Ti9    9.998   1_545     S
Ti11     Ti12    9.998   1_545     S
Ti12     Ti11    9.998   1_565     S
Ce13     Ce14    9.99   .     S
Ce13     Ce15    10.0   .     S
Ce13     Ce16    10.0   .     S
Ce14     Ce16    10.0   .     S
Ce14     Ce15    10.0   .     S
Ce15     Ce16    9.99   .     S
Ce15     V26    10.016   .     S
Ce16     V25    10.016   .     S
Ce17     Ce18    9.99   1_455     S
Ce17     Ce19    10.0   1_556     S
Ce17     Ce20    10.0   1_546     S
Ce17     V28    10.016   .     S
Ce18     Ce17    9.99   1_655     S
Ce18     Ce20    10.0   1_646     S
Ce18     Ce19    10.0   1_656     S
Ce18     V27    10.016   .     S
Ce19     Ce20    9.99   1_545     S
Ce19     Ce17    10.0   1_554     S
Ce19     Ce18    10.0   1_454     S
Ce20     Ce19    9.99   1_565     S
Ce20     Ce17    10.0   1_564     S
Ce20     Ce18    10.0   1_464     S
Er21     V26    9.997   .     S
Er21     V28    9.997   .     S
Er21     Er24    9.991   1_545     S
Er21     Er22    9.991   .     S
Er21     Ti29    10.005   .     S
Er22     V26    9.997   .     S
Er22     V27    9.997   .     S
Er22     Er23    9.991   1_545     S
Er22     Ti30    10.005   .     S
Er23     V25    9.997   .     S
Er23     V27    9.997   1_565     S
Er23     Er22    9.991   1_565     S
Er23     Er24    9.991   .     S
Er23     Ti32    10.005   .     S
Er24     V25    9.997   .     S
Er24     V28    9.997   1_565     S
Er24     Er21    9.991   1_565     S
Er24     Ti31    10.005   .     S
V25     V26    10.006   1_565     S
V26     V25    10.006   1_545     S
V27     Er23    9.997   1_545     S
V27     V28    10.006   .     S
V28     Er24    9.997   1_545     S
Ti29     Ti30    9.998   1_455     S
Ti29     Ti31    9.998   .     S
Ti30     Ti29    9.998   1_655     S
Ti30     Ti32    9.998   .     S
Ti31     Ti32    9.998   1_455     S
Ti32     Ti31    9.998   1_655     S
