data_epy
_audit_creation_date              2020-02-02
_audit_creation_method            'Pymatgen'
_symmetry_space_group_name_H-M    'P1'
_symmetry_Int_Tables_number       1
loop_
_symmetry_equiv_pos_as_xyz
  x,y,z
_cell_length_a                    77.274
_cell_length_b                    77.274
_cell_length_c                    77.274
_cell_angle_alpha                 90.0
_cell_angle_beta                 90.0
_cell_angle_gamma                 90.0
loop_
_atom_site_label
_atom_site_type_symbol
_atom_site_fract_x
_atom_site_fract_y
_atom_site_fract_z
Er1     Er     0.75   0.25   0.0
Er2     Er     0.75   0.5   0.75
Er3     Er     0.5   0.75   0.75
Er4     Er     0.25   0.75   0.0
Er5     Er     0.5   0.5   0.5
Er6     Er     0.25   0.0   0.75
Er7     Er     0.75   0.75   0.5
Er8     Er     0.0   0.75   0.25
Er9     Er     0.25   0.25   0.5
Er10     Er     0.25   0.5   0.25
Er11     Er     0.5   0.25   0.25
Er12     Er     0.0   0.25   0.75
Er13     Er     0.0   0.5   0.0
Er14     Er     0.5   0.0   0.0
Er15     Er     0.75   0.0   0.25
Er16     Er     0.0   0.0   0.5
V17     V     0.5915   0.75   0.8415
V18     V     0.5915   0.8415   0.75
V19     V     0.5   0.6585   0.8415
V20     V     0.4085   0.6585   0.75
V21     V     0.5   0.8415   0.6585
V22     V     0.4085   0.75   0.6585
Ti23     Ti     0.375   0.875   0.6586
Ti24     Ti     0.375   0.6586   0.875
V25     V     0.6585   0.8415   0.5
V26     V     0.8415   0.75   0.5915
V27     V     0.75   0.8415   0.5915
V28     V     0.8415   0.6585   0.5
V29     V     0.75   0.6585   0.4085
V30     V     0.6585   0.75   0.4085
Ti31     Ti     0.875   0.6586   0.375
Ti32     Ti     0.6586   0.875   0.375
V33     V     0.8415   0.5915   0.75
V34     V     0.75   0.5915   0.8415
V35     V     0.6585   0.5   0.8415
V36     V     0.6585   0.4085   0.75
V37     V     0.8415   0.5   0.6585
V38     V     0.75   0.4085   0.6585
Ti39     Ti     0.875   0.375   0.6586
Ti40     Ti     0.6586   0.375   0.875
V41     V     0.25   0.8415   0.0915
V42     V     0.3415   0.6585   0.0
V43     V     0.25   0.6585   0.9085
V44     V     0.1585   0.8415   0.0
V45     V     0.1585   0.75   0.9085
V46     V     0.3415   0.75   0.0915
V47     V     0.0   0.8415   0.1585
V48     V     0.9085   0.75   0.1585
V49     V     0.0915   0.8415   0.25
V50     V     0.0   0.6585   0.3415
V51     V     0.9085   0.6585   0.25
V52     V     0.0915   0.75   0.3415
V53     V     0.0   0.5915   0.9085
V54     V     0.9085   0.5915   0.0
V55     V     0.0   0.4085   0.0915
V56     V     0.9085   0.5   0.0915
V57     V     0.0915   0.4085   0.0
V58     V     0.0915   0.5   0.9085
V59     V     0.3415   0.5915   0.25
V60     V     0.25   0.4085   0.1585
V61     V     0.3415   0.5   0.1585
V62     V     0.1585   0.4085   0.25
V63     V     0.1585   0.5   0.3415
V64     V     0.25   0.5915   0.3415
V65     V     0.4085   0.5915   0.5
V66     V     0.5915   0.4085   0.5
V67     V     0.5915   0.5   0.4085
V68     V     0.5   0.4085   0.5915
V69     V     0.4085   0.5   0.5915
V70     V     0.5   0.5915   0.4085
V71     V     0.6585   0.3415   0.0
V72     V     0.6585   0.25   0.9085
V73     V     0.8415   0.25   0.0915
V74     V     0.8415   0.1585   0.0
V75     V     0.75   0.1585   0.9085
V76     V     0.75   0.3415   0.0915
V77     V     0.5915   0.0   0.9085
V78     V     0.5915   0.9085   0.0
V79     V     0.4085   0.0915   0.0
V80     V     0.5   0.0915   0.9085
V81     V     0.4085   0.0   0.0915
V82     V     0.5   0.9085   0.0915
V83     V     0.8415   0.0915   0.25
V84     V     0.8415   0.0   0.1585
V85     V     0.75   0.9085   0.1585
V86     V     0.6585   0.0   0.3415
V87     V     0.6585   0.9085   0.25
V88     V     0.75   0.0915   0.3415
V89     V     0.5915   0.3415   0.25
V90     V     0.4085   0.1585   0.25
V91     V     0.5   0.1585   0.3415
V92     V     0.5915   0.25   0.3415
V93     V     0.5   0.3415   0.1585
V94     V     0.4085   0.25   0.1585
V95     V     0.1585   0.3415   0.5
V96     V     0.3415   0.25   0.5915
V97     V     0.3415   0.1585   0.5
V98     V     0.25   0.3415   0.5915
V99     V     0.1585   0.25   0.4085
V100     V     0.25   0.1585   0.4085
V101     V     0.0   0.3415   0.6585
V102     V     0.9085   0.25   0.6585
V103     V     0.0915   0.3415   0.75
V104     V     0.0915   0.25   0.8415
V105     V     0.0   0.1585   0.8415
V106     V     0.9085   0.1585   0.75
V107     V     0.25   0.0915   0.8415
V108     V     0.3415   0.0   0.6585
V109     V     0.25   0.9085   0.6585
V110     V     0.1585   0.0   0.8415
V111     V     0.1585   0.9085   0.75
V112     V     0.3415   0.0915   0.75
V113     V     0.0   0.9085   0.5915
V114     V     0.9085   0.0   0.5915
V115     V     0.0915   0.0   0.4085
V116     V     0.0915   0.9085   0.5
V117     V     0.0   0.0915   0.4085
V118     V     0.9085   0.0915   0.5
Ti119     Ti     0.125   0.125   0.4086
Ti120     Ti     0.125   0.9086   0.625
Ti121     Ti     0.9086   0.125   0.625
Ti122     Ti     0.125   0.125   0.8414
Ti123     Ti     0.3414   0.125   0.625
Ti124     Ti     0.375   0.0914   0.875
Ti125     Ti     0.0914   0.375   0.875
Ti126     Ti     0.125   0.3414   0.625
Ti127     Ti     0.375   0.375   0.5914
Ti128     Ti     0.375   0.1586   0.375
Ti129     Ti     0.1586   0.375   0.375
Ti130     Ti     0.625   0.125   0.3414
Ti131     Ti     0.4086   0.125   0.125
Ti132     Ti     0.625   0.3414   0.125
Ti133     Ti     0.5914   0.375   0.375
Ti134     Ti     0.375   0.375   0.1586
Ti135     Ti     0.8414   0.125   0.125
Ti136     Ti     0.625   0.125   0.9086
Ti137     Ti     0.625   0.9086   0.125
Ti138     Ti     0.875   0.375   0.0914
Ti139     Ti     0.375   0.5914   0.375
Ti140     Ti     0.125   0.4086   0.125
Ti141     Ti     0.125   0.625   0.9086
Ti142     Ti     0.9086   0.625   0.125
Ti143     Ti     0.125   0.8414   0.125
Ti144     Ti     0.125   0.625   0.3414
Ti145     Ti     0.0914   0.875   0.375
Ti146     Ti     0.375   0.875   0.0914
Ti147     Ti     0.875   0.0914   0.375
Ti148     Ti     0.3414   0.625   0.125
Ti149     Ti     0.875   0.875   0.1586
Ti150     Ti     0.875   0.875   0.5914
Ti151     Ti     0.875   0.5914   0.875
Ti152     Ti     0.5914   0.875   0.875
Ti153     Ti     0.4086   0.625   0.625
Ti154     Ti     0.875   0.1586   0.875
Ti155     Ti     0.625   0.625   0.4086
Ti156     Ti     0.625   0.625   0.8414
Ti157     Ti     0.625   0.8414   0.625
Ti158     Ti     0.625   0.4086   0.625
Ti159     Ti     0.1586   0.875   0.875
Ti160     Ti     0.8414   0.625   0.625
loop_
_geom_bond_atom_site_label_1
_geom_bond_atom_site_label_2
_geom_bond_distance
_geom_bond_site_symmetry_2
_ccdc_geom_bond_type
Er1     V73    10.0   .     S
Er1     V76    10.0   .     S
Er1     V71    10.0   .     S
Er1     V74    10.0   .     S
Er1     V75    10.0   1_554     S
Er1     V72    10.0   1_554     S
Er2     V36    10.0   .     S
Er2     V38    10.0   .     S
Er2     V34    10.0   .     S
Er2     V37    10.0   .     S
Er2     V35    10.0   .     S
Er2     V33    10.0   .     S
Er3     V20    10.0   .     S
Er3     V22    10.0   .     S
Er3     V17    10.0   .     S
Er3     V18    10.0   .     S
Er3     V19    10.0   .     S
Er3     V21    10.0   .     S
Er4     V45    10.0   1_554     S
Er4     V43    10.0   1_554     S
Er4     V46    10.0   .     S
Er4     V42    10.0   .     S
Er4     V41    10.0   .     S
Er4     V44    10.0   .     S
Er5     V67    10.0   .     S
Er5     V70    10.0   .     S
Er5     V65    10.0   .     S
Er5     V69    10.0   .     S
Er5     V66    10.0   .     S
Er5     V68    10.0   .     S
Er6     V112    10.0   .     S
Er6     V107    10.0   .     S
Er6     V110    10.0   .     S
Er6     V108    10.0   .     S
Er6     V111    10.0   1_545     S
Er6     V109    10.0   1_545     S
Er7     V29    10.0   .     S
Er7     V30    10.0   .     S
Er7     V25    10.0   .     S
Er7     V26    10.0   .     S
Er7     V28    10.0   .     S
Er7     V27    10.0   .     S
Er8     V51    10.0   1_455     S
Er8     V48    10.0   1_455     S
Er8     V52    10.0   .     S
Er8     V49    10.0   .     S
Er8     V50    10.0   .     S
Er8     V47    10.0   .     S
Er9     V96    10.0   .     S
Er9     V97    10.0   .     S
Er9     V100    10.0   .     S
Er9     V98    10.0   .     S
Er9     V95    10.0   .     S
Er9     V99    10.0   .     S
Er10     V59    10.0   .     S
Er10     V61    10.0   .     S
Er10     V64    10.0   .     S
Er10     V63    10.0   .     S
Er10     V62    10.0   .     S
Er10     V60    10.0   .     S
Er11     V89    10.0   .     S
Er11     V93    10.0   .     S
Er11     V92    10.0   .     S
Er11     V90    10.0   .     S
Er11     V91    10.0   .     S
Er11     V94    10.0   .     S
Er12     V101    10.0   .     S
Er12     V103    10.0   .     S
Er12     V102    10.0   1_455     S
Er12     V105    10.0   .     S
Er12     V104    10.0   .     S
Er12     V106    10.0   1_455     S
Er13     V53    10.0   1_554     S
Er13     V54    10.0   1_455     S
Er13     V56    10.0   1_455     S
Er13     V58    10.0   1_554     S
Er13     V57    10.0   .     S
Er13     V55    10.0   .     S
Er14     V77    10.0   1_554     S
Er14     V78    10.0   1_545     S
Er14     V80    10.0   1_554     S
Er14     V82    10.0   1_545     S
Er14     V81    10.0   .     S
Er14     V79    10.0   .     S
Er15     V86    10.0   .     S
Er15     V84    10.0   .     S
Er15     V83    10.0   .     S
Er15     V88    10.0   .     S
Er15     V87    10.0   1_545     S
Er15     V85    10.0   1_545     S
Er16     V114    10.0   1_455     S
Er16     V113    10.0   1_545     S
Er16     V116    10.0   1_545     S
Er16     V118    10.0   1_455     S
Er16     V117    10.0   .     S
Er16     V115    10.0   .     S
V17     Ti152    10.0   .     S
V17     Ti156    10.0   .     S
V18     Ti157    10.0   .     S
V18     Ti152    10.0   .     S
V19     Ti156    10.0   .     S
V19     Ti24    10.0   .     S
V20     Ti24    10.0   .     S
V20     Ti153    10.0   .     S
V21     Ti157    10.0   .     S
V21     Ti23    10.0   .     S
V22     Ti153    10.0   .     S
V22     Ti23    10.0   .     S
Ti23     V109    10.0   .     S
Ti23     V108    10.0   1_565     S
Ti24     V43    10.0   .     S
Ti24     V42    10.0   1_556     S
V25     Ti157    10.0   .     S
V25     Ti32    10.0   .     S
V26     Ti150    10.0   .     S
V26     Ti160    10.0   .     S
V27     Ti157    10.0   .     S
V27     Ti150    10.0   .     S
V28     Ti160    10.0   .     S
V28     Ti31    10.0   .     S
V29     Ti155    10.0   .     S
V29     Ti31    10.0   .     S
V30     Ti32    10.0   .     S
V30     Ti155    10.0   .     S
Ti31     V50    10.0   1_655     S
Ti31     V51    10.0   .     S
Ti32     V87    10.0   .     S
Ti32     V86    10.0   1_565     S
V33     Ti160    10.0   .     S
V33     Ti151    10.0   .     S
V34     Ti156    10.0   .     S
V34     Ti151    10.0   .     S
V35     Ti156    10.0   .     S
V35     Ti40    10.0   .     S
V36     Ti40    10.0   .     S
V36     Ti158    10.0   .     S
V37     Ti160    10.0   .     S
V37     Ti39    10.0   .     S
V38     Ti158    10.0   .     S
V38     Ti39    10.0   .     S
Ti39     V102    10.0   .     S
Ti39     V101    10.0   1_655     S
Ti40     V71    10.0   1_556     S
Ti40     V72    10.0   .     S
V41     Ti146    10.0   .     S
V41     Ti143    10.0   .     S
V42     Ti148    10.0   .     S
V42     Ti24    10.0   1_554     S
V43     Er4    10.0   1_556     S
V43     Ti141    10.0   .     S
V44     Ti143    10.0   .     S
V44     Ti159    10.0   1_554     S
V45     Er4    10.0   1_556     S
V45     Ti141    10.0   .     S
V45     Ti159    10.0   .     S
V46     Ti146    10.0   .     S
V46     Ti148    10.0   .     S
V47     Ti149    10.0   1_455     S
V47     Ti143    10.0   .     S
V48     Er8    10.0   1_655     S
V48     Ti149    10.0   .     S
V48     Ti142    10.0   .     S
V49     Ti143    10.0   .     S
V49     Ti145    10.0   .     S
V50     Ti144    10.0   .     S
V50     Ti31    10.0   1_455     S
V51     Er8    10.0   1_655     S
V51     Ti142    10.0   .     S
V52     Ti145    10.0   .     S
V52     Ti144    10.0   .     S
V53     Er13    10.0   1_556     S
V53     Ti151    10.0   1_455     S
V53     Ti141    10.0   .     S
V54     Er13    10.0   1_655     S
V54     Ti142    10.0   .     S
V54     Ti151    10.0   1_554     S
V55     Ti138    10.0   1_455     S
V55     Ti140    10.0   .     S
V56     Er13    10.0   1_655     S
V56     Ti142    10.0   .     S
V56     Ti138    10.0   .     S
V57     Ti140    10.0   .     S
V57     Ti125    10.0   1_554     S
V58     Er13    10.0   1_556     S
V58     Ti141    10.0   .     S
V58     Ti125    10.0   .     S
V59     Ti139    10.0   .     S
V59     Ti148    10.0   .     S
V60     Ti140    10.0   .     S
V60     Ti134    10.0   .     S
V61     Ti148    10.0   .     S
V61     Ti134    10.0   .     S
V62     Ti129    10.0   .     S
V62     Ti140    10.0   .     S
V63     Ti144    10.0   .     S
V63     Ti129    10.0   .     S
V64     Ti139    10.0   .     S
V64     Ti144    10.0   .     S
V65     Ti139    10.0   .     S
V65     Ti153    10.0   .     S
V66     Ti133    10.0   .     S
V66     Ti158    10.0   .     S
V67     Ti155    10.0   .     S
V67     Ti133    10.0   .     S
V68     Ti127    10.0   .     S
V68     Ti158    10.0   .     S
V69     Ti153    10.0   .     S
V69     Ti127    10.0   .     S
V70     Ti155    10.0   .     S
V70     Ti139    10.0   .     S
V71     Ti132    10.0   .     S
V71     Ti40    10.0   1_554     S
V72     Er1    10.0   1_556     S
V72     Ti136    10.0   .     S
V73     Ti138    10.0   .     S
V73     Ti135    10.0   .     S
V74     Ti135    10.0   .     S
V74     Ti154    10.0   1_554     S
V75     Er1    10.0   1_556     S
V75     Ti136    10.0   .     S
V75     Ti154    10.0   .     S
V76     Ti132    10.0   .     S
V76     Ti138    10.0   .     S
V77     Er14    10.0   1_556     S
V77     Ti152    10.0   1_545     S
V77     Ti136    10.0   .     S
V78     Er14    10.0   1_565     S
V78     Ti137    10.0   .     S
V78     Ti152    10.0   1_554     S
V79     Ti124    10.0   1_554     S
V79     Ti131    10.0   .     S
V80     Er14    10.0   1_556     S
V80     Ti136    10.0   .     S
V80     Ti124    10.0   .     S
V81     Ti131    10.0   .     S
V81     Ti146    10.0   1_545     S
V82     Er14    10.0   1_565     S
V82     Ti137    10.0   .     S
V82     Ti146    10.0   .     S
V83     Ti135    10.0   .     S
V83     Ti147    10.0   .     S
V84     Ti135    10.0   .     S
V84     Ti149    10.0   1_545     S
V85     Er15    10.0   1_565     S
V85     Ti149    10.0   .     S
V85     Ti137    10.0   .     S
V86     Ti32    10.0   1_545     S
V86     Ti130    10.0   .     S
V87     Er15    10.0   1_565     S
V87     Ti137    10.0   .     S
V88     Ti147    10.0   .     S
V88     Ti130    10.0   .     S
V89     Ti132    10.0   .     S
V89     Ti133    10.0   .     S
V90     Ti131    10.0   .     S
V90     Ti128    10.0   .     S
V91     Ti130    10.0   .     S
V91     Ti128    10.0   .     S
V92     Ti133    10.0   .     S
V92     Ti130    10.0   .     S
V93     Ti134    10.0   .     S
V93     Ti132    10.0   .     S
V94     Ti131    10.0   .     S
V94     Ti134    10.0   .     S
V95     Ti129    10.0   .     S
V95     Ti126    10.0   .     S
V96     Ti127    10.0   .     S
V96     Ti123    10.0   .     S
V97     Ti128    10.0   .     S
V97     Ti123    10.0   .     S
V98     Ti126    10.0   .     S
V98     Ti127    10.0   .     S
V99     Ti119    10.0   .     S
V99     Ti129    10.0   .     S
V100     Ti128    10.0   .     S
V100     Ti119    10.0   .     S
V101     Ti39    10.0   1_455     S
V101     Ti126    10.0   .     S
V102     Er12    10.0   1_655     S
V102     Ti121    10.0   .     S
V103     Ti126    10.0   .     S
V103     Ti125    10.0   .     S
V104     Ti125    10.0   .     S
V104     Ti122    10.0   .     S
V105     Ti122    10.0   .     S
V105     Ti154    10.0   1_455     S
V106     Er12    10.0   1_655     S
V106     Ti121    10.0   .     S
V106     Ti154    10.0   .     S
V107     Ti124    10.0   .     S
V107     Ti122    10.0   .     S
V108     Ti123    10.0   .     S
V108     Ti23    10.0   1_545     S
V109     Er6    10.0   1_565     S
V109     Ti120    10.0   .     S
V110     Ti122    10.0   .     S
V110     Ti159    10.0   1_545     S
V111     Er6    10.0   1_565     S
V111     Ti120    10.0   .     S
V111     Ti159    10.0   .     S
V112     Ti124    10.0   .     S
V112     Ti123    10.0   .     S
V113     Er16    10.0   1_565     S
V113     Ti150    10.0   1_455     S
V113     Ti120    10.0   .     S
V114     Er16    10.0   1_655     S
V114     Ti121    10.0   .     S
V114     Ti150    10.0   1_545     S
V115     Ti145    10.0   1_545     S
V115     Ti119    10.0   .     S
V116     Er16    10.0   1_565     S
V116     Ti120    10.0   .     S
V116     Ti145    10.0   .     S
V117     Ti119    10.0   .     S
V117     Ti147    10.0   1_455     S
V118     Er16    10.0   1_655     S
V118     Ti121    10.0   .     S
V118     Ti147    10.0   .     S
Ti124     V79    10.0   1_556     S
Ti125     V57    10.0   1_556     S
Ti138     V55    10.0   1_655     S
Ti145     V115    10.0   1_565     S
Ti146     V81    10.0   1_565     S
Ti147     V117    10.0   1_655     S
Ti149     V47    10.0   1_655     S
Ti149     V84    10.0   1_565     S
Ti150     V114    10.0   1_565     S
Ti150     V113    10.0   1_655     S
Ti151     V53    10.0   1_655     S
Ti151     V54    10.0   1_556     S
Ti152     V77    10.0   1_565     S
Ti152     V78    10.0   1_556     S
Ti154     V74    10.0   1_556     S
Ti154     V105    10.0   1_655     S
Ti159     V44    10.0   1_556     S
Ti159     V110    10.0   1_565     S
