data_ete
_audit_creation_date              2020-02-02
_audit_creation_method            'Pymatgen'
_symmetry_space_group_name_H-M    'P1'
_symmetry_Int_Tables_number       1
loop_
_symmetry_equiv_pos_as_xyz
  x,y,z
_cell_length_a                    25.1074
_cell_length_b                    25.1074
_cell_length_c                    60.6663
_cell_angle_alpha                 90.0
_cell_angle_beta                 90.0
_cell_angle_gamma                 120.0
loop_
_atom_site_label
_atom_site_type_symbol
_atom_site_fract_x
_atom_site_fract_y
_atom_site_fract_z
Er1     Er     0.0   0.5   0.4158
Er2     Er     0.5   0.0   0.0824
Er3     Er     0.0   0.5   0.2509
V4     V     0.885   0.115   0.1667
V5     V     0.115   0.885   0.1667
Er6     Er     0.5   0.0   0.9176
V7     V     0.77   0.885   0.8333
V8     V     0.23   0.115   0.8333
Er9     Er     0.5   0.5   0.7491
Er10     Er     0.5   0.5   0.5842
V11     V     0.115   0.23   0.5
V12     V     0.885   0.77   0.5
loop_
_geom_bond_atom_site_label_1
_geom_bond_atom_site_label_2
_geom_bond_distance
_geom_bond_site_symmetry_2
_ccdc_geom_bond_type
Er1     V12    10.0   1_455     S
Er1     V11    10.0   .     S
Er1     Er3    10.0   .     S
Er2     V4    10.0   .     S
Er2     V5    10.0   1_545     S
Er2     Er6    10.0   1_554     S
Er3     V4    10.0   1_455     S
Er3     V5    10.0   .     S
V4     Er3    10.0   1_655     S
V4     V5    10.0   1_645     S
V5     Er2    10.0   1_565     S
V5     V4    10.0   1_465     S
Er6     V7    10.0   1_545     S
Er6     V8    10.0   .     S
Er6     Er2    10.0   1_556     S
V7     Er6    10.0   1_565     S
V7     V8    10.0   1_665     S
V7     Er9    10.0   .     S
V8     V7    10.0   1_445     S
V8     Er9    10.0   .     S
Er9     Er10    10.0   .     S
Er10     V12    10.0   .     S
Er10     V11    10.0   .     S
V11     V12    10.0   1_445     S
V12     Er1    10.0   1_655     S
V12     V11    10.0   1_665     S
