data_eth
_audit_creation_date              2020-02-02
_audit_creation_method            'Pymatgen'
_symmetry_space_group_name_H-M    'P1'
_symmetry_Int_Tables_number       1
loop_
_symmetry_equiv_pos_as_xyz
  x,y,z
_cell_length_a                    53.6872
_cell_length_b                    21.8626
_cell_length_c                    31.0353
_cell_angle_alpha                 90.0
_cell_angle_beta                 90.0
_cell_angle_gamma                 90.0
loop_
_atom_site_label
_atom_site_type_symbol
_atom_site_fract_x
_atom_site_fract_y
_atom_site_fract_z
Er1     Er     0.4069   0.5   0.0
Er2     Er     0.5931   0.5   0.0
V3     V     0.2039   0.833   0.61
V4     V     0.2039   0.167   0.39
V5     V     0.2961   0.167   0.11
V6     V     0.2961   0.833   0.89
Er7     Er     0.0931   0.5   0.5
Er8     Er     0.9069   0.5   0.5
V9     V     0.7039   0.167   0.11
V10     V     0.7039   0.833   0.89
V11     V     0.7961   0.833   0.61
V12     V     0.7961   0.167   0.39
loop_
_geom_bond_atom_site_label_1
_geom_bond_atom_site_label_2
_geom_bond_distance
_geom_bond_site_symmetry_2
_ccdc_geom_bond_type
Er1     Er2    10.0   .     S
Er1     V5    10.0   .     S
Er1     V6    10.0   1_554     S
Er2     V9    10.0   .     S
Er2     V10    10.0   1_554     S
V3     Er7    10.0   .     S
V3     V4    10.0   1_565     S
V3     V6    10.0   .     S
V4     Er7    10.0   .     S
V4     V3    10.0   1_545     S
V4     V5    10.0   .     S
V5     V6    10.0   1_544     S
V6     Er1    10.0   1_556     S
V6     V5    10.0   1_566     S
Er7     Er8    10.0   1_455     S
Er8     Er7    10.0   1_655     S
Er8     V11    10.0   .     S
Er8     V12    10.0   .     S
V9     V10    10.0   1_544     S
V9     V12    10.0   .     S
V10     Er2    10.0   1_556     S
V10     V9    10.0   1_566     S
V10     V11    10.0   .     S
V11     V12    10.0   1_565     S
V12     V11    10.0   1_545     S
