data_etm
_audit_creation_date              2020-02-02
_audit_creation_method            'Pymatgen'
_symmetry_space_group_name_H-M    'P1'
_symmetry_Int_Tables_number       1
loop_
_symmetry_equiv_pos_as_xyz
  x,y,z
_cell_length_a                    51.7711
_cell_length_b                    33.505
_cell_length_c                    39.0113
_cell_angle_alpha                 90.0
_cell_angle_beta                 90.0
_cell_angle_gamma                 90.0
loop_
_atom_site_label
_atom_site_type_symbol
_atom_site_fract_x
_atom_site_fract_y
_atom_site_fract_z
Er1     Er     0.0889   0.9398   0.0
V2     V     0.2018   0.1354   0.3023
V3     V     0.2018   0.8646   0.1977
V4     V     0.2018   0.1354   0.6977
V5     V     0.2018   0.8646   0.8023
Er6     Er     0.0889   0.0602   0.5
V7     V     0.2982   0.3646   0.1977
V8     V     0.2982   0.6354   0.3023
Er9     Er     0.4111   0.4398   0.0
V10     V     0.2982   0.3646   0.8023
V11     V     0.2982   0.6354   0.6977
Er12     Er     0.4111   0.5602   0.5
Er13     Er     0.5889   0.5602   0.0
V14     V     0.7018   0.3646   0.3023
V15     V     0.7018   0.6354   0.1977
V16     V     0.7018   0.3646   0.6977
V17     V     0.7018   0.6354   0.8023
Er18     Er     0.5889   0.4398   0.5
Er19     Er     0.9111   0.0602   0.0
V20     V     0.7982   0.1354   0.1977
V21     V     0.7982   0.8646   0.3023
V22     V     0.7982   0.1354   0.8023
V23     V     0.7982   0.8646   0.6977
Er24     Er     0.9111   0.9398   0.5
loop_
_geom_bond_atom_site_label_1
_geom_bond_atom_site_label_2
_geom_bond_distance
_geom_bond_site_symmetry_2
_ccdc_geom_bond_type
Er1     V5    9.999   1_554     S
Er1     V3    9.999   .     S
Er1     Er19    10.049   1_465     S
V2     V7    10.028   .     S
V2     V3    9.95   1_545     S
V2     Er6    9.999   .     S
V3     V8    10.028   .     S
V3     V2    9.95   1_565     S
V4     V10    10.028   .     S
V4     V5    9.95   1_545     S
V4     Er6    9.999   .     S
V5     V11    10.028   .     S
V5     V4    9.95   1_565     S
V5     Er1    9.999   1_556     S
Er6     Er24    10.049   1_445     S
V7     V8    9.95   .     S
V7     Er9    9.999   .     S
V8     Er12    9.999   .     S
Er9     V10    9.999   1_554     S
Er9     Er13    10.049   .     S
V10     V11    9.95   .     S
V10     Er9    9.999   1_556     S
V11     Er12    9.999   .     S
Er12     Er18    10.049   .     S
Er13     V17    9.999   1_554     S
Er13     V15    9.999   .     S
V14     V20    10.028   .     S
V14     V15    9.95   .     S
V14     Er18    9.999   .     S
V15     V21    10.028   .     S
V16     V22    10.028   .     S
V16     V17    9.95   .     S
V16     Er18    9.999   .     S
V17     V23    10.028   .     S
V17     Er13    9.999   1_556     S
Er19     V22    9.999   1_554     S
Er19     V20    9.999   .     S
Er19     Er1    10.049   1_645     S
V20     V21    9.95   1_545     S
V21     V20    9.95   1_565     S
V21     Er24    9.999   .     S
V22     V23    9.95   1_545     S
V22     Er19    9.999   1_556     S
V23     V22    9.95   1_565     S
V23     Er24    9.999   .     S
Er24     Er6    10.049   1_665     S
