data_etq
_audit_creation_date              2020-02-02
_audit_creation_method            'Pymatgen'
_symmetry_space_group_name_H-M    'P1'
_symmetry_Int_Tables_number       1
loop_
_symmetry_equiv_pos_as_xyz
  x,y,z
_cell_length_a                    39.723
_cell_length_b                    39.723
_cell_length_c                    39.723
_cell_angle_alpha                 90.0
_cell_angle_beta                 90.0
_cell_angle_gamma                 90.0
loop_
_atom_site_label
_atom_site_type_symbol
_atom_site_fract_x
_atom_site_fract_y
_atom_site_fract_z
V1     V     0.25   0.25   0.25
Er2     Er     0.1002   0.3998   0.25
Er3     Er     0.25   0.1002   0.3998
Er4     Er     0.3998   0.25   0.1002
Er5     Er     0.8998   0.25   0.3998
V6     V     0.75   0.25   0.25
Er7     Er     0.75   0.3998   0.1002
Er8     Er     0.6002   0.1002   0.25
Er9     Er     0.25   0.3998   0.8998
V10     V     0.25   0.25   0.75
Er11     Er     0.3998   0.1002   0.75
Er12     Er     0.1002   0.25   0.6002
Er13     Er     0.3998   0.75   0.8998
V14     V     0.25   0.75   0.75
Er15     Er     0.25   0.8998   0.6002
Er16     Er     0.1002   0.6002   0.75
Er17     Er     0.8998   0.3998   0.75
V18     V     0.75   0.25   0.75
Er19     Er     0.6002   0.25   0.8998
Er20     Er     0.75   0.1002   0.6002
Er21     Er     0.8998   0.75   0.6002
V22     V     0.75   0.75   0.75
Er23     Er     0.6002   0.8998   0.75
Er24     Er     0.75   0.6002   0.8998
Er25     Er     0.75   0.8998   0.3998
V26     V     0.75   0.75   0.25
Er27     Er     0.8998   0.6002   0.25
Er28     Er     0.6002   0.75   0.1002
Er29     Er     0.3998   0.8998   0.25
V30     V     0.25   0.75   0.25
Er31     Er     0.1002   0.75   0.3998
Er32     Er     0.25   0.6002   0.1002
loop_
_geom_bond_atom_site_label_1
_geom_bond_atom_site_label_2
_geom_bond_distance
_geom_bond_site_symmetry_2
_ccdc_geom_bond_type
V1     Er2    8.416   .     S
V1     Er3    8.416   .     S
V1     Er4    8.416   .     S
Er2     Er32    11.584   .     S
Er2     Er5    11.584   1_455     S
Er3     Er12    11.584   .     S
Er3     Er29    11.584   1_545     S
Er4     Er8    11.584   .     S
Er4     Er9    11.584   1_554     S
Er5     V6    8.416   .     S
Er5     Er20    11.584   .     S
Er5     Er2    11.584   1_655     S
V6     Er8    8.416   .     S
V6     Er7    8.416   .     S
Er7     Er27    11.584   .     S
Er7     Er19    11.584   1_554     S
Er8     Er25    11.584   1_545     S
Er9     V10    8.416   .     S
Er9     Er16    11.584   .     S
Er9     Er4    11.584   1_556     S
V10     Er11    8.416   .     S
V10     Er12    8.416   .     S
Er11     Er19    11.584   .     S
Er11     Er15    11.584   1_545     S
Er12     Er17    11.584   1_455     S
Er13     V14    8.416   .     S
Er13     Er23    11.584   .     S
Er13     Er32    11.584   1_556     S
V14     Er16    8.416   .     S
V14     Er15    8.416   .     S
Er15     Er31    11.584   .     S
Er15     Er11    11.584   1_565     S
Er16     Er21    11.584   1_455     S
Er17     V18    8.416   .     S
Er17     Er24    11.584   .     S
Er17     Er12    11.584   1_655     S
V18     Er20    8.416   .     S
V18     Er19    8.416   .     S
Er19     Er7    11.584   1_556     S
Er20     Er23    11.584   1_545     S
Er21     V22    8.416   .     S
Er21     Er25    11.584   .     S
Er21     Er16    11.584   1_655     S
V22     Er23    8.416   .     S
V22     Er24    8.416   .     S
Er23     Er20    11.584   1_565     S
Er24     Er28    11.584   1_556     S
Er25     V26    8.416   .     S
Er25     Er8    11.584   1_565     S
V26     Er28    8.416   .     S
V26     Er27    8.416   .     S
Er27     Er31    11.584   1_655     S
Er28     Er29    11.584   .     S
Er28     Er24    11.584   1_554     S
Er29     V30    8.416   .     S
Er29     Er3    11.584   1_565     S
V30     Er32    8.416   .     S
V30     Er31    8.416   .     S
Er31     Er27    11.584   1_455     S
Er32     Er13    11.584   1_554     S
