data_ets
_audit_creation_date              2020-02-02
_audit_creation_method            'Pymatgen'
_symmetry_space_group_name_H-M    'P1'
_symmetry_Int_Tables_number       1
loop_
_symmetry_equiv_pos_as_xyz
  x,y,z
_cell_length_a                    57.7975
_cell_length_b                    57.7975
_cell_length_c                    57.7975
_cell_angle_alpha                 90.0
_cell_angle_beta                 90.0
_cell_angle_gamma                 90.0
loop_
_atom_site_label
_atom_site_type_symbol
_atom_site_fract_x
_atom_site_fract_y
_atom_site_fract_z
Er1     Er     0.1783   0.4848   0.0483
Er2     Er     0.3217   0.4848   0.9517
Er3     Er     0.2348   0.5717   0.2983
Er4     Er     0.2348   0.4283   0.2017
Er5     Er     0.3217   0.5152   0.5483
Er6     Er     0.1783   0.5152   0.4517
Er7     Er     0.2652   0.5717   0.7017
Er8     Er     0.2652   0.4283   0.7983
Er9     Er     0.5152   0.5483   0.3217
Er10     Er     0.5152   0.4517   0.1783
Er11     Er     0.5717   0.7017   0.2652
Er12     Er     0.4283   0.7983   0.2652
Er13     Er     0.4283   0.2017   0.2348
Er14     Er     0.5717   0.2983   0.2348
Er15     Er     0.4848   0.0483   0.1783
Er16     Er     0.4848   0.9517   0.3217
Er17     Er     0.7017   0.2652   0.5717
Er18     Er     0.7983   0.2652   0.4283
Er19     Er     0.0483   0.1783   0.4848
Er20     Er     0.9517   0.3217   0.4848
Er21     Er     0.4517   0.1783   0.5152
Er22     Er     0.5483   0.3217   0.5152
Er23     Er     0.2983   0.2348   0.5717
Er24     Er     0.2017   0.2348   0.4283
Er25     Er     0.7348   0.9283   0.7017
Er26     Er     0.7348   0.0717   0.7983
Er27     Er     0.6783   0.9848   0.5483
Er28     Er     0.8217   0.9848   0.4517
Er29     Er     0.7652   0.0717   0.2017
Er30     Er     0.7652   0.9283   0.2983
Er31     Er     0.6783   0.0152   0.9517
Er32     Er     0.8217   0.0152   0.0483
V33     V     0.5382   0.9618   0.0382
V34     V     0.5382   0.0382   0.4618
Er35     Er     0.7017   0.7348   0.9283
Er36     Er     0.7983   0.7348   0.0717
Er37     Er     0.5483   0.6783   0.9848
Er38     Er     0.4517   0.8217   0.9848
Er39     Er     0.9517   0.6783   0.0152
Er40     Er     0.0483   0.8217   0.0152
Er41     Er     0.2983   0.7652   0.9283
Er42     Er     0.2017   0.7652   0.0717
V43     V     0.0382   0.5382   0.9618
V44     V     0.4618   0.5382   0.0382
Er45     Er     0.9283   0.7017   0.7348
Er46     Er     0.0717   0.7983   0.7348
Er47     Er     0.9848   0.5483   0.6783
Er48     Er     0.9848   0.4517   0.8217
Er49     Er     0.0152   0.9517   0.6783
Er50     Er     0.0152   0.0483   0.8217
Er51     Er     0.0717   0.2017   0.7652
Er52     Er     0.9283   0.2983   0.7652
V53     V     0.9618   0.0382   0.5382
V54     V     0.0382   0.4618   0.5382
V55     V     0.9618   0.9618   0.9618
V56     V     0.7882   0.7882   0.7882
V57     V     0.2118   0.7118   0.7882
V58     V     0.7882   0.2118   0.7118
V59     V     0.7118   0.7882   0.2118
V60     V     0.7118   0.2118   0.2882
V61     V     0.2118   0.2882   0.7118
V62     V     0.2882   0.7118   0.2118
V63     V     0.4618   0.4618   0.4618
V64     V     0.2882   0.2882   0.2882
loop_
_geom_bond_atom_site_label_1
_geom_bond_atom_site_label_2
_geom_bond_distance
_geom_bond_site_symmetry_2
_ccdc_geom_bond_type
Er1     Er2    9.995   1_554     S
Er1     Er4    10.001   .     S
Er1     V43    10.002   1_554     S
Er2     Er1    9.995   1_556     S
Er2     Er8    10.001   .     S
Er2     V44    10.002   1_556     S
Er3     Er4    9.995   .     S
Er3     Er6    10.001   .     S
Er3     V62    10.002   .     S
Er4     V64    10.002   .     S
Er5     Er6    9.995   .     S
Er5     Er7    10.001   .     S
Er5     V63    10.002   .     S
Er6     V54    10.002   .     S
Er7     Er8    9.995   .     S
Er7     V57    10.002   .     S
Er8     V61    10.002   .     S
Er9     Er10    9.995   .     S
Er9     Er11    10.001   .     S
Er9     V63    10.002   .     S
Er10     Er14    10.001   .     S
Er10     V44    10.002   .     S
Er11     Er12    9.995   .     S
Er11     V59    10.002   .     S
Er12     Er16    10.001   .     S
Er12     V62    10.002   .     S
Er13     Er14    9.995   .     S
Er13     Er15    10.001   .     S
Er13     V64    10.002   .     S
Er14     V60    10.002   .     S
Er15     Er16    9.995   1_545     S
Er15     V33    10.002   1_545     S
Er16     Er15    9.995   1_565     S
Er16     V34    10.002   1_565     S
Er17     Er18    9.995   .     S
Er17     Er22    10.001   .     S
Er17     V58    10.002   .     S
Er18     Er20    10.001   .     S
Er18     V60    10.002   .     S
Er19     Er20    9.995   1_455     S
Er19     Er24    10.001   .     S
Er19     V53    10.002   1_455     S
Er20     Er19    9.995   1_655     S
Er20     V54    10.002   1_655     S
Er21     Er22    9.995   .     S
Er21     Er23    10.001   .     S
Er21     V34    10.002   .     S
Er22     V63    10.002   .     S
Er23     Er24    9.995   .     S
Er23     V61    10.002   .     S
Er24     V64    10.002   .     S
Er25     Er26    9.995   1_565     S
Er25     Er27    10.001   .     S
Er25     V56    10.002   .     S
Er26     Er25    9.995   1_545     S
Er26     Er31    10.001   .     S
Er26     V58    10.002   .     S
Er27     Er28    9.995   .     S
Er27     V34    10.002   1_565     S
Er28     Er30    10.001   .     S
Er28     V53    10.002   1_565     S
Er29     Er30    9.995   1_545     S
Er29     Er32    10.001   .     S
Er29     V60    10.002   .     S
Er30     Er29    9.995   1_565     S
Er30     V59    10.002   .     S
Er31     Er32    9.995   1_556     S
Er31     V33    10.002   1_546     S
Er32     Er31    9.995   1_554     S
Er32     V55    10.002   1_544     S
V33     Er15    10.002   1_565     S
V33     Er31    10.002   1_564     S
V33     Er38    10.002   1_554     S
V34     Er16    10.002   1_545     S
V34     Er27    10.002   1_545     S
Er35     Er36    9.995   1_556     S
Er35     Er37    10.001   .     S
Er35     V56    10.002   .     S
Er36     Er35    9.995   1_554     S
Er36     Er39    10.001   .     S
Er36     V59    10.002   .     S
Er37     Er38    9.995   .     S
Er37     V44    10.002   1_556     S
Er38     Er41    10.001   .     S
Er38     V33    10.002   1_556     S
Er39     Er40    9.995   1_655     S
Er39     V43    10.002   1_654     S
Er40     Er39    9.995   1_455     S
Er40     Er42    10.001   .     S
Er40     V55    10.002   1_454     S
Er41     Er42    9.995   1_556     S
Er41     V57    10.002   .     S
Er42     Er41    9.995   1_554     S
Er42     V62    10.002   .     S
V43     Er1    10.002   1_556     S
V43     Er39    10.002   1_456     S
V43     Er48    10.002   1_455     S
V44     Er2    10.002   1_554     S
V44     Er37    10.002   1_554     S
Er45     Er46    9.995   1_655     S
Er45     Er47    10.001   .     S
Er45     V56    10.002   .     S
Er46     Er45    9.995   1_455     S
Er46     Er49    10.001   .     S
Er46     V57    10.002   .     S
Er47     Er48    9.995   .     S
Er47     V54    10.002   1_655     S
Er48     Er52    10.001   .     S
Er48     V43    10.002   1_655     S
Er49     Er50    9.995   1_565     S
Er49     V53    10.002   1_465     S
Er50     Er49    9.995   1_545     S
Er50     Er51    10.001   .     S
Er50     V55    10.002   1_445     S
Er51     Er52    9.995   1_455     S
Er51     V61    10.002   .     S
Er52     Er51    9.995   1_655     S
Er52     V58    10.002   .     S
V53     Er19    10.002   1_655     S
V53     Er28    10.002   1_545     S
V53     Er49    10.002   1_645     S
V54     Er20    10.002   1_455     S
V54     Er47    10.002   1_455     S
V55     Er32    10.002   1_566     S
V55     Er40    10.002   1_656     S
V55     Er50    10.002   1_665     S
