data_eyea
_audit_creation_date              2020-02-02
_audit_creation_method            'Pymatgen'
_symmetry_space_group_name_H-M    'P1'
_symmetry_Int_Tables_number       1
loop_
_symmetry_equiv_pos_as_xyz
  x,y,z
_cell_length_a                    52.907
_cell_length_b                    52.907
_cell_length_c                    40.3933
_cell_angle_alpha                 90.0
_cell_angle_beta                 90.0
_cell_angle_gamma                 120.0
loop_
_atom_site_label
_atom_site_type_symbol
_atom_site_fract_x
_atom_site_fract_y
_atom_site_fract_z
Ti1     Ti     0.1091   0.7019   0.5
Ti2     Ti     0.8909   0.5927   0.5
V3     V     0.1091   0.5546   0.6551
V4     V     0.8909   0.4454   0.3449
Ti5     Ti     0.7019   0.1091   0.5
Ti6     Ti     0.5927   0.8909   0.5
V7     V     0.5546   0.1091   0.3449
V8     V     0.4454   0.8909   0.6551
V9     V     0.5546   0.4454   0.3449
V10     V     0.4454   0.5546   0.3449
V11     V     0.4454   0.5546   0.6551
Ti12     Ti     0.2981   0.4073   0.5
Ti13     Ti     0.4073   0.2981   0.5
V14     V     0.5546   0.4454   0.6551
Ti15     Ti     0.5927   0.7019   0.5
Ti16     Ti     0.7019   0.5927   0.5
Er17     Er     0.6037   0.3963   0.8762
Er18     Er     0.6037   0.2073   0.8762
Er19     Er     0.7927   0.3963   0.8762
Er20     Er     0.6037   0.2073   0.1238
Er21     Er     0.7927   0.3963   0.1238
Er22     Er     0.6037   0.3963   0.1238
Er23     Er     0.3963   0.6037   0.8762
Er24     Er     0.3963   0.7927   0.8762
Er25     Er     0.2073   0.6037   0.8762
Er26     Er     0.3963   0.6037   0.1238
Er27     Er     0.2073   0.6037   0.1238
Er28     Er     0.3963   0.7927   0.1238
Ti29     Ti     0.1091   0.4073   0.5
Ti30     Ti     0.8909   0.2981   0.5
V31     V     0.8909   0.4454   0.6551
V32     V     0.1091   0.5546   0.3449
Ti33     Ti     0.4073   0.1091   0.5
Ti34     Ti     0.2981   0.8909   0.5
V35     V     0.5546   0.1091   0.6551
V36     V     0.4454   0.8909   0.3449
loop_
_geom_bond_atom_site_label_1
_geom_bond_atom_site_label_2
_geom_bond_distance
_geom_bond_site_symmetry_2
_ccdc_geom_bond_type
Ti1     V32    10.0   .     S
Ti1     V3    10.0   .     S
Ti1     Ti2    9.999   1_455     S
Ti1     Ti34    10.0   .     S
Ti2     V4    10.0   .     S
Ti2     V31    10.0   .     S
Ti2     Ti1    9.999   1_655     S
Ti2     Ti16    10.0   .     S
V3     Er25    10.0   .     S
V3     Ti29    10.0   .     S
V3     V31    10.0   1_455     S
V4     Er21    10.0   .     S
V4     Ti30    10.0   .     S
V4     V32    10.0   1_655     S
Ti5     V7    10.0   .     S
Ti5     V35    10.0   .     S
Ti5     Ti6    9.999   1_545     S
Ti5     Ti30    10.0   .     S
Ti6     V36    10.0   .     S
Ti6     V8    10.0   .     S
Ti6     Ti5    9.999   1_565     S
Ti6     Ti15    10.0   .     S
V7     Er20    10.0   .     S
V7     Ti33    10.0   .     S
V7     V36    10.0   1_545     S
V8     Er24    10.0   .     S
V8     Ti34    10.0   .     S
V8     V35    10.0   1_565     S
V9     Ti13    10.0   .     S
V9     Ti16    10.0   .     S
V9     Er22    10.0   .     S
V9     V10    10.0   .     S
V10     Ti12    10.0   .     S
V10     Ti15    10.0   .     S
V10     Er26    10.0   .     S
V11     Ti12    10.0   .     S
V11     Ti15    10.0   .     S
V11     Er23    10.0   .     S
V11     V14    10.0   .     S
Ti12     Ti13    9.999   .     S
Ti12     Ti29    10.0   .     S
Ti13     V14    10.0   .     S
Ti13     Ti33    10.0   .     S
V14     Er17    10.0   .     S
V14     Ti16    10.0   .     S
Ti15     Ti16    9.999   .     S
Er17     Er22    10.0   1_556     S
Er17     Er18    10.0   .     S
Er17     Er19    10.0   .     S
Er18     Er19    10.0   .     S
Er18     Er20    10.0   1_556     S
Er18     V35    10.0   .     S
Er19     V31    10.0   .     S
Er19     Er21    10.0   1_556     S
Er20     Er21    10.0   .     S
Er20     Er22    10.0   .     S
Er20     Er18    10.0   1_554     S
Er21     Er19    10.0   1_554     S
Er21     Er22    10.0   .     S
Er22     Er17    10.0   1_554     S
Er23     Er26    10.0   1_556     S
Er23     Er25    10.0   .     S
Er23     Er24    10.0   .     S
Er24     Er28    10.0   1_556     S
Er24     Er25    10.0   .     S
Er25     Er27    10.0   1_556     S
Er26     Er23    10.0   1_554     S
Er26     Er27    10.0   .     S
Er26     Er28    10.0   .     S
Er27     Er28    10.0   .     S
Er27     Er25    10.0   1_554     S
Er27     V32    10.0   .     S
Er28     Er24    10.0   1_554     S
Er28     V36    10.0   .     S
Ti29     V32    10.0   .     S
Ti29     Ti30    9.999   1_455     S
Ti30     V31    10.0   .     S
Ti30     Ti29    9.999   1_655     S
V31     V3    10.0   1_655     S
V32     V4    10.0   1_455     S
Ti33     V35    10.0   .     S
Ti33     Ti34    9.999   1_545     S
Ti34     V36    10.0   .     S
Ti34     Ti33    9.999   1_565     S
V35     V8    10.0   1_545     S
V36     V7    10.0   1_565     S
