data_fau
_audit_creation_date              2020-02-02
_audit_creation_method            'Pymatgen'
_symmetry_space_group_name_H-M    'P1'
_symmetry_Int_Tables_number       1
loop_
_symmetry_equiv_pos_as_xyz
  x,y,z
_cell_length_a                    79.6625
_cell_length_b                    79.6625
_cell_length_c                    79.6625
_cell_angle_alpha                 90.0
_cell_angle_beta                 90.0
_cell_angle_gamma                 90.0
loop_
_atom_site_label
_atom_site_type_symbol
_atom_site_fract_x
_atom_site_fract_y
_atom_site_fract_z
V1     V     0.5525   0.9638   0.875
V2     V     0.5525   0.875   0.7862
V3     V     0.5525   0.875   0.9638
V4     V     0.5525   0.7862   0.875
V5     V     0.9638   0.5525   0.875
V6     V     0.875   0.5525   0.7862
V7     V     0.7862   0.5525   0.875
V8     V     0.875   0.5525   0.9638
V9     V     0.875   0.9638   0.5525
V10     V     0.7862   0.875   0.5525
V11     V     0.9638   0.875   0.5525
V12     V     0.875   0.7862   0.5525
V13     V     0.625   0.2138   0.9475
V14     V     0.7138   0.125   0.9475
V15     V     0.625   0.0362   0.9475
V16     V     0.5362   0.125   0.9475
V17     V     0.6975   0.4638   0.875
V18     V     0.6975   0.2862   0.875
V19     V     0.6975   0.375   0.7862
V20     V     0.6975   0.375   0.9638
V21     V     0.8025   0.625   0.5362
V22     V     0.8025   0.5362   0.625
V23     V     0.8025   0.625   0.7138
V24     V     0.8025   0.7138   0.625
V25     V     0.625   0.5362   0.8025
V26     V     0.5362   0.625   0.8025
V27     V     0.625   0.7138   0.8025
V28     V     0.7138   0.625   0.8025
V29     V     0.5362   0.8025   0.625
V30     V     0.625   0.8025   0.5362
V31     V     0.7138   0.8025   0.625
V32     V     0.625   0.8025   0.7138
V33     V     0.4638   0.5525   0.375
V34     V     0.2862   0.5525   0.375
V35     V     0.375   0.5525   0.2862
V36     V     0.375   0.5525   0.4638
V37     V     0.8025   0.125   0.2138
V38     V     0.8025   0.125   0.0362
V39     V     0.8025   0.2138   0.125
V40     V     0.8025   0.0362   0.125
V41     V     0.0362   0.125   0.8025
V42     V     0.125   0.0362   0.8025
V43     V     0.2138   0.125   0.8025
V44     V     0.125   0.2138   0.8025
V45     V     0.9638   0.1975   0.875
V46     V     0.875   0.1975   0.9638
V47     V     0.7862   0.1975   0.875
V48     V     0.875   0.1975   0.7862
V49     V     0.2862   0.6975   0.875
V50     V     0.375   0.6975   0.7862
V51     V     0.4638   0.6975   0.875
V52     V     0.375   0.6975   0.9638
V53     V     0.4475   0.625   0.5362
V54     V     0.4475   0.5362   0.625
V55     V     0.4475   0.625   0.7138
V56     V     0.4475   0.7138   0.625
V57     V     0.375   0.7862   0.6975
V58     V     0.2862   0.875   0.6975
V59     V     0.375   0.9638   0.6975
V60     V     0.4638   0.875   0.6975
V61     V     0.6975   0.9638   0.375
V62     V     0.6975   0.875   0.4638
V63     V     0.6975   0.7862   0.375
V64     V     0.6975   0.875   0.2862
V65     V     0.5362   0.625   0.4475
V66     V     0.625   0.7138   0.4475
V67     V     0.7138   0.625   0.4475
V68     V     0.625   0.5362   0.4475
V69     V     0.7862   0.6975   0.375
V70     V     0.875   0.6975   0.4638
V71     V     0.9638   0.6975   0.375
V72     V     0.875   0.6975   0.2862
V73     V     0.5362   0.4475   0.625
V74     V     0.7138   0.4475   0.625
V75     V     0.625   0.4475   0.7138
V76     V     0.625   0.4475   0.5362
V77     V     0.875   0.4638   0.6975
V78     V     0.9638   0.375   0.6975
V79     V     0.7862   0.375   0.6975
V80     V     0.875   0.2862   0.6975
V81     V     0.625   0.9475   0.2138
V82     V     0.5362   0.9475   0.125
V83     V     0.625   0.9475   0.0362
V84     V     0.7138   0.9475   0.125
V85     V     0.9475   0.125   0.5362
V86     V     0.9475   0.0362   0.625
V87     V     0.9475   0.125   0.7138
V88     V     0.9475   0.2138   0.625
V89     V     0.125   0.9475   0.5362
V90     V     0.2138   0.9475   0.625
V91     V     0.125   0.9475   0.7138
V92     V     0.0362   0.9475   0.625
V93     V     0.9475   0.7138   0.125
V94     V     0.9475   0.625   0.2138
V95     V     0.9475   0.625   0.0362
V96     V     0.9475   0.5362   0.125
V97     V     0.9638   0.875   0.1975
V98     V     0.875   0.9638   0.1975
V99     V     0.7862   0.875   0.1975
V100     V     0.875   0.7862   0.1975
V101     V     0.125   0.5362   0.9475
V102     V     0.125   0.7138   0.9475
V103     V     0.2138   0.625   0.9475
V104     V     0.0362   0.625   0.9475
V105     V     0.1975   0.875   0.9638
V106     V     0.1975   0.9638   0.875
V107     V     0.1975   0.7862   0.875
V108     V     0.1975   0.875   0.7862
V109     V     0.0362   0.8025   0.125
V110     V     0.2138   0.8025   0.125
V111     V     0.125   0.8025   0.2138
V112     V     0.125   0.8025   0.0362
V113     V     0.5525   0.375   0.4638
V114     V     0.5525   0.4638   0.375
V115     V     0.5525   0.375   0.2862
V116     V     0.5525   0.2862   0.375
V117     V     0.5362   0.3025   0.125
V118     V     0.625   0.3025   0.2138
V119     V     0.7138   0.3025   0.125
V120     V     0.625   0.3025   0.0362
V121     V     0.2862   0.0525   0.875
V122     V     0.375   0.0525   0.7862
V123     V     0.4638   0.0525   0.875
V124     V     0.375   0.0525   0.9638
V125     V     0.375   0.7862   0.0525
V126     V     0.2862   0.875   0.0525
V127     V     0.375   0.9638   0.0525
V128     V     0.4638   0.875   0.0525
V129     V     0.3025   0.625   0.2138
V130     V     0.3025   0.625   0.0362
V131     V     0.3025   0.5362   0.125
V132     V     0.3025   0.7138   0.125
V133     V     0.4638   0.375   0.1975
V134     V     0.375   0.4638   0.1975
V135     V     0.2862   0.375   0.1975
V136     V     0.375   0.2862   0.1975
V137     V     0.4475   0.125   0.2138
V138     V     0.4475   0.0362   0.125
V139     V     0.4475   0.2138   0.125
V140     V     0.4475   0.125   0.0362
V141     V     0.875   0.4638   0.0525
V142     V     0.7862   0.375   0.0525
V143     V     0.9638   0.375   0.0525
V144     V     0.875   0.2862   0.0525
V145     V     0.2138   0.4475   0.125
V146     V     0.125   0.4475   0.2138
V147     V     0.125   0.4475   0.0362
V148     V     0.0362   0.4475   0.125
V149     V     0.0525   0.375   0.9638
V150     V     0.0525   0.4638   0.875
V151     V     0.0525   0.375   0.7862
V152     V     0.0525   0.2862   0.875
V153     V     0.125   0.3025   0.5362
V154     V     0.2138   0.3025   0.625
V155     V     0.125   0.3025   0.7138
V156     V     0.0362   0.3025   0.625
V157     V     0.2138   0.625   0.3025
V158     V     0.125   0.7138   0.3025
V159     V     0.0362   0.625   0.3025
V160     V     0.125   0.5362   0.3025
V161     V     0.1975   0.4638   0.375
V162     V     0.1975   0.2862   0.375
V163     V     0.1975   0.375   0.2862
V164     V     0.1975   0.375   0.4638
V165     V     0.4638   0.375   0.5525
V166     V     0.375   0.4638   0.5525
V167     V     0.2862   0.375   0.5525
V168     V     0.375   0.2862   0.5525
V169     V     0.3025   0.125   0.5362
V170     V     0.3025   0.2138   0.625
V171     V     0.3025   0.125   0.7138
V172     V     0.3025   0.0362   0.625
V173     V     0.2862   0.1975   0.375
V174     V     0.375   0.1975   0.4638
V175     V     0.4638   0.1975   0.375
V176     V     0.375   0.1975   0.2862
V177     V     0.0525   0.875   0.2862
V178     V     0.0525   0.875   0.4638
V179     V     0.0525   0.9638   0.375
V180     V     0.0525   0.7862   0.375
V181     V     0.0362   0.125   0.4475
V182     V     0.2138   0.125   0.4475
V183     V     0.125   0.2138   0.4475
V184     V     0.125   0.0362   0.4475
V185     V     0.9638   0.0525   0.375
V186     V     0.875   0.0525   0.2862
V187     V     0.7862   0.0525   0.375
V188     V     0.875   0.0525   0.4638
V189     V     0.7138   0.125   0.3025
V190     V     0.625   0.2138   0.3025
V191     V     0.625   0.0362   0.3025
V192     V     0.5362   0.125   0.3025
loop_
_geom_bond_atom_site_label_1
_geom_bond_atom_site_label_2
_geom_bond_distance
_geom_bond_site_symmetry_2
_ccdc_geom_bond_type
V1     V2    10.0   .     S
V1     V3    10.0   .     S
V1     V15    10.0   1_565     S
V1     V123    10.001   1_565     S
V2     V4    10.0   .     S
V2     V32    10.0   .     S
V2     V60    10.001   .     S
V3     V4    10.0   .     S
V3     V83    10.0   1_556     S
V3     V128    10.001   1_556     S
V4     V27    10.0   .     S
V4     V51    10.001   .     S
V5     V6    10.0   .     S
V5     V8    10.0   .     S
V5     V104    10.0   1_655     S
V5     V150    10.001   1_655     S
V6     V7    10.0   .     S
V6     V23    10.0   .     S
V6     V77    10.001   .     S
V7     V8    10.0   .     S
V7     V28    10.0   .     S
V7     V17    10.001   .     S
V8     V95    10.0   1_556     S
V8     V141    10.001   1_556     S
V9     V10    10.0   .     S
V9     V11    10.0   .     S
V9     V86    10.0   1_565     S
V9     V188    10.001   1_565     S
V10     V12    10.0   .     S
V10     V31    10.0   .     S
V10     V62    10.001   .     S
V11     V12    10.0   .     S
V11     V92    10.0   1_655     S
V11     V178    10.001   1_655     S
V12     V24    10.0   .     S
V12     V70    10.001   .     S
V13     V14    10.0   .     S
V13     V16    10.0   .     S
V13     V18    10.0   .     S
V13     V120    10.001   1_556     S
V14     V15    10.0   .     S
V14     V47    10.0   .     S
V14     V38    10.001   1_556     S
V15     V16    10.0   .     S
V15     V1    10.0   1_545     S
V15     V83    10.001   1_546     S
V16     V123    10.0   .     S
V16     V140    10.001   1_556     S
V17     V20    10.0   .     S
V17     V19    10.0   .     S
V17     V25    10.0   .     S
V18     V20    10.0   .     S
V18     V19    10.0   .     S
V18     V47    10.001   .     S
V19     V75    10.0   .     S
V19     V79    10.001   .     S
V20     V120    10.0   1_556     S
V20     V142    10.001   1_556     S
V21     V24    10.0   .     S
V21     V22    10.0   .     S
V21     V70    10.0   .     S
V21     V67    10.001   .     S
V22     V23    10.0   .     S
V22     V77    10.0   .     S
V22     V74    10.001   .     S
V23     V24    10.0   .     S
V23     V28    10.001   .     S
V24     V31    10.001   .     S
V25     V28    10.0   .     S
V25     V26    10.0   .     S
V25     V75    10.001   .     S
V26     V27    10.0   .     S
V26     V51    10.0   .     S
V26     V55    10.001   .     S
V27     V28    10.0   .     S
V27     V32    10.001   .     S
V29     V32    10.0   .     S
V29     V30    10.0   .     S
V29     V60    10.0   .     S
V29     V56    10.001   .     S
V30     V31    10.0   .     S
V30     V62    10.0   .     S
V30     V66    10.001   .     S
V31     V32    10.0   .     S
V33     V35    10.0   .     S
V33     V36    10.0   .     S
V33     V65    10.0   .     S
V33     V114    10.001   .     S
V34     V36    10.0   .     S
V34     V35    10.0   .     S
V34     V157    10.0   .     S
V34     V161    10.001   .     S
V35     V129    10.0   .     S
V35     V134    10.001   .     S
V36     V53    10.0   .     S
V36     V166    10.001   .     S
V37     V39    10.0   .     S
V37     V40    10.0   .     S
V37     V186    10.0   .     S
V37     V189    10.001   .     S
V38     V39    10.0   .     S
V38     V40    10.0   .     S
V38     V46    10.0   1_554     S
V38     V14    10.001   1_554     S
V39     V144    10.0   .     S
V39     V119    10.001   .     S
V40     V98    10.0   1_545     S
V40     V84    10.001   1_545     S
V41     V44    10.0   .     S
V41     V42    10.0   .     S
V41     V45    10.0   1_455     S
V41     V87    10.001   1_455     S
V42     V43    10.0   .     S
V42     V106    10.0   1_545     S
V42     V91    10.001   1_545     S
V43     V44    10.0   .     S
V43     V121    10.0   .     S
V43     V171    10.001   .     S
V44     V152    10.0   .     S
V44     V155    10.001   .     S
V45     V46    10.0   .     S
V45     V48    10.0   .     S
V45     V41    10.0   1_655     S
V45     V152    10.001   1_655     S
V46     V47    10.0   .     S
V46     V38    10.0   1_556     S
V46     V144    10.001   1_556     S
V47     V48    10.0   .     S
V48     V87    10.0   .     S
V48     V80    10.001   .     S
V49     V52    10.0   .     S
V49     V50    10.0   .     S
V49     V103    10.0   .     S
V49     V107    10.001   .     S
V50     V51    10.0   .     S
V50     V55    10.0   .     S
V50     V57    10.001   .     S
V51     V52    10.0   .     S
V52     V130    10.0   1_556     S
V52     V125    10.001   1_556     S
V53     V56    10.0   .     S
V53     V54    10.0   .     S
V53     V65    10.001   .     S
V54     V55    10.0   .     S
V54     V166    10.0   .     S
V54     V73    10.001   .     S
V55     V56    10.0   .     S
V56     V57    10.0   .     S
V57     V58    10.0   .     S
V57     V60    10.0   .     S
V58     V59    10.0   .     S
V58     V90    10.0   .     S
V58     V108    10.001   .     S
V59     V60    10.0   .     S
V59     V172    10.0   1_565     S
V59     V122    10.001   1_565     S
V61     V64    10.0   .     S
V61     V62    10.0   .     S
V61     V191    10.0   1_565     S
V61     V187    10.001   1_565     S
V62     V63    10.0   .     S
V63     V64    10.0   .     S
V63     V66    10.0   .     S
V63     V69    10.001   .     S
V64     V81    10.0   .     S
V64     V99    10.001   .     S
V65     V66    10.0   .     S
V65     V68    10.0   .     S
V66     V67    10.0   .     S
V67     V68    10.0   .     S
V67     V69    10.0   .     S
V68     V114    10.0   .     S
V68     V76    10.001   .     S
V69     V72    10.0   .     S
V69     V70    10.0   .     S
V70     V71    10.0   .     S
V71     V72    10.0   .     S
V71     V159    10.0   1_655     S
V71     V180    10.001   1_655     S
V72     V94    10.0   .     S
V72     V100    10.001   .     S
V73     V75    10.0   .     S
V73     V76    10.0   .     S
V73     V165    10.0   .     S
V74     V75    10.0   .     S
V74     V76    10.0   .     S
V74     V79    10.0   .     S
V76     V113    10.0   .     S
V77     V78    10.0   .     S
V77     V79    10.0   .     S
V78     V80    10.0   .     S
V78     V156    10.0   1_655     S
V78     V151    10.001   1_655     S
V79     V80    10.0   .     S
V80     V88    10.0   .     S
V81     V84    10.0   .     S
V81     V82    10.0   .     S
V81     V191    10.001   1_565     S
V82     V83    10.0   .     S
V82     V128    10.0   .     S
V82     V138    10.001   1_565     S
V83     V84    10.0   .     S
V83     V3    10.0   1_554     S
V83     V15    10.001   1_564     S
V84     V99    10.0   .     S
V84     V40    10.001   1_565     S
V85     V88    10.0   .     S
V85     V86    10.0   .     S
V85     V188    10.0   .     S
V85     V181    10.001   1_655     S
V86     V87    10.0   .     S
V86     V9    10.0   1_545     S
V86     V92    10.001   1_645     S
V87     V88    10.0   .     S
V87     V41    10.001   1_655     S
V88     V156    10.001   1_655     S
V89     V90    10.0   .     S
V89     V92    10.0   .     S
V89     V178    10.0   .     S
V89     V184    10.001   1_565     S
V90     V91    10.0   .     S
V90     V172    10.001   1_565     S
V91     V92    10.0   .     S
V91     V108    10.0   .     S
V91     V42    10.001   1_565     S
V92     V11    10.0   1_455     S
V92     V86    10.001   1_465     S
V93     V94    10.0   .     S
V93     V95    10.0   .     S
V93     V100    10.0   .     S
V93     V109    10.001   1_655     S
V94     V96    10.0   .     S
V94     V159    10.001   1_655     S
V95     V96    10.0   .     S
V95     V8    10.0   1_554     S
V95     V104    10.001   1_654     S
V96     V141    10.0   .     S
V96     V148    10.001   1_655     S
V97     V98    10.0   .     S
V97     V100    10.0   .     S
V97     V109    10.0   1_655     S
V97     V177    10.001   1_655     S
V98     V99    10.0   .     S
V98     V40    10.0   1_565     S
V98     V186    10.001   1_565     S
V99     V100    10.0   .     S
V101     V103    10.0   .     S
V101     V104    10.0   .     S
V101     V150    10.0   .     S
V101     V147    10.001   1_556     S
V102     V104    10.0   .     S
V102     V103    10.0   .     S
V102     V107    10.0   .     S
V102     V112    10.001   1_556     S
V103     V130    10.001   1_556     S
V104     V5    10.0   1_455     S
V104     V95    10.001   1_456     S
V105     V106    10.0   .     S
V105     V107    10.0   .     S
V105     V112    10.0   1_556     S
V105     V126    10.001   1_556     S
V106     V108    10.0   .     S
V106     V42    10.0   1_565     S
V106     V121    10.001   1_565     S
V107     V108    10.0   .     S
V109     V97    10.0   1_455     S
V109     V111    10.0   .     S
V109     V112    10.0   .     S
V109     V93    10.001   1_455     S
V110     V112    10.0   .     S
V110     V111    10.0   .     S
V110     V126    10.0   .     S
V110     V132    10.001   .     S
V111     V177    10.0   .     S
V111     V158    10.001   .     S
V112     V105    10.0   1_554     S
V112     V102    10.001   1_554     S
V113     V116    10.0   .     S
V113     V114    10.0   .     S
V113     V165    10.001   .     S
V114     V115    10.0   .     S
V115     V116    10.0   .     S
V115     V118    10.0   .     S
V115     V133    10.001   .     S
V116     V190    10.0   .     S
V116     V175    10.001   .     S
V117     V118    10.0   .     S
V117     V120    10.0   .     S
V117     V133    10.0   .     S
V117     V139    10.001   .     S
V118     V119    10.0   .     S
V118     V190    10.001   .     S
V119     V120    10.0   .     S
V119     V142    10.0   .     S
V120     V20    10.0   1_554     S
V120     V13    10.001   1_554     S
V121     V124    10.0   .     S
V121     V122    10.0   .     S
V121     V106    10.001   1_545     S
V122     V123    10.0   .     S
V122     V171    10.0   .     S
V122     V59    10.001   1_545     S
V123     V124    10.0   .     S
V123     V1    10.001   1_545     S
V124     V140    10.0   1_556     S
V124     V127    10.001   1_546     S
V125     V126    10.0   .     S
V125     V128    10.0   .     S
V125     V132    10.0   .     S
V125     V52    10.001   1_554     S
V126     V127    10.0   .     S
V126     V105    10.001   1_554     S
V127     V128    10.0   .     S
V127     V138    10.0   1_565     S
V127     V124    10.001   1_564     S
V128     V3    10.001   1_554     S
V129     V132    10.0   .     S
V129     V131    10.0   .     S
V129     V157    10.001   .     S
V130     V132    10.0   .     S
V130     V131    10.0   .     S
V130     V52    10.0   1_554     S
V130     V103    10.001   1_554     S
V131     V134    10.0   .     S
V131     V145    10.001   .     S
V133     V134    10.0   .     S
V133     V136    10.0   .     S
V134     V135    10.0   .     S
V135     V136    10.0   .     S
V135     V145    10.0   .     S
V135     V163    10.001   .     S
V136     V139    10.0   .     S
V136     V176    10.001   .     S
V137     V138    10.0   .     S
V137     V139    10.0   .     S
V137     V176    10.0   .     S
V137     V192    10.001   .     S
V138     V140    10.0   .     S
V138     V127    10.0   1_545     S
V138     V82    10.001   1_545     S
V139     V140    10.0   .     S
V140     V124    10.0   1_554     S
V140     V16    10.001   1_554     S
V141     V142    10.0   .     S
V141     V143    10.0   .     S
V141     V8    10.001   1_554     S
V142     V144    10.0   .     S
V142     V20    10.001   1_554     S
V143     V144    10.0   .     S
V143     V148    10.0   1_655     S
V143     V149    10.001   1_654     S
V144     V46    10.001   1_554     S
V145     V147    10.0   .     S
V145     V146    10.0   .     S
V146     V148    10.0   .     S
V146     V163    10.0   .     S
V146     V160    10.001   .     S
V147     V148    10.0   .     S
V147     V149    10.0   1_554     S
V147     V101    10.001   1_554     S
V148     V143    10.0   1_455     S
V148     V96    10.001   1_455     S
V149     V147    10.0   1_556     S
V149     V152    10.0   .     S
V149     V150    10.0   .     S
V149     V143    10.001   1_456     S
V150     V151    10.0   .     S
V150     V5    10.001   1_455     S
V151     V152    10.0   .     S
V151     V155    10.0   .     S
V151     V78    10.001   1_455     S
V152     V45    10.001   1_455     S
V153     V154    10.0   .     S
V153     V156    10.0   .     S
V153     V164    10.0   .     S
V153     V183    10.001   .     S
V154     V155    10.0   .     S
V154     V167    10.0   .     S
V154     V170    10.001   .     S
V155     V156    10.0   .     S
V156     V78    10.0   1_455     S
V156     V88    10.001   1_455     S
V157     V158    10.0   .     S
V157     V160    10.0   .     S
V158     V159    10.0   .     S
V158     V180    10.0   .     S
V159     V160    10.0   .     S
V159     V71    10.0   1_455     S
V159     V94    10.001   1_455     S
V160     V161    10.0   .     S
V161     V164    10.0   .     S
V161     V163    10.0   .     S
V162     V164    10.0   .     S
V162     V163    10.0   .     S
V162     V183    10.0   .     S
V162     V173    10.001   .     S
V164     V167    10.001   .     S
V165     V168    10.0   .     S
V165     V166    10.0   .     S
V166     V167    10.0   .     S
V167     V168    10.0   .     S
V168     V170    10.0   .     S
V168     V174    10.001   .     S
V169     V170    10.0   .     S
V169     V172    10.0   .     S
V169     V174    10.0   .     S
V169     V182    10.001   .     S
V170     V171    10.0   .     S
V171     V172    10.0   .     S
V172     V59    10.0   1_545     S
V172     V90    10.001   1_545     S
V173     V176    10.0   .     S
V173     V174    10.0   .     S
V173     V182    10.0   .     S
V174     V175    10.0   .     S
V175     V176    10.0   .     S
V175     V192    10.0   .     S
V177     V179    10.0   .     S
V177     V180    10.0   .     S
V177     V97    10.001   1_455     S
V178     V179    10.0   .     S
V178     V180    10.0   .     S
V178     V11    10.001   1_455     S
V179     V184    10.0   1_565     S
V179     V185    10.001   1_465     S
V180     V71    10.001   1_455     S
V181     V183    10.0   .     S
V181     V184    10.0   .     S
V181     V185    10.0   1_455     S
V181     V85    10.001   1_455     S
V182     V184    10.0   .     S
V182     V183    10.0   .     S
V184     V179    10.0   1_545     S
V184     V89    10.001   1_545     S
V185     V181    10.0   1_655     S
V185     V186    10.0   .     S
V185     V188    10.0   .     S
V185     V179    10.001   1_645     S
V186     V187    10.0   .     S
V186     V98    10.001   1_545     S
V187     V188    10.0   .     S
V187     V189    10.0   .     S
V187     V61    10.001   1_545     S
V188     V9    10.001   1_545     S
V189     V190    10.0   .     S
V189     V191    10.0   .     S
V190     V192    10.0   .     S
V191     V192    10.0   .     S
V191     V61    10.0   1_545     S
V191     V81    10.001   1_545     S
