data_fca
_audit_creation_date              2020-02-02
_audit_creation_method            'Pymatgen'
_symmetry_space_group_name_H-M    'P1'
_symmetry_Int_Tables_number       1
loop_
_symmetry_equiv_pos_as_xyz
  x,y,z
_cell_length_a                    34.4944
_cell_length_b                    34.4944
_cell_length_c                    34.4944
_cell_angle_alpha                 90.0
_cell_angle_beta                 90.0
_cell_angle_gamma                 90.0
loop_
_atom_site_label
_atom_site_type_symbol
_atom_site_fract_x
_atom_site_fract_y
_atom_site_fract_z
V1     V     0.645   0.3214   0.0
V2     V     0.355   0.3214   0.0
V3     V     0.3214   0.0   0.645
V4     V     0.3214   0.0   0.355
V5     V     0.0   0.645   0.3214
V6     V     0.0   0.355   0.3214
V7     V     0.855   0.1786   0.5
V8     V     0.145   0.1786   0.5
V9     V     0.1786   0.5   0.855
V10     V     0.1786   0.5   0.145
V11     V     0.0   0.645   0.6786
V12     V     0.0   0.355   0.6786
V13     V     0.8214   0.5   0.855
V14     V     0.8214   0.5   0.145
V15     V     0.5   0.145   0.1786
V16     V     0.5   0.855   0.1786
V17     V     0.645   0.6786   0.0
V18     V     0.355   0.6786   0.0
V19     V     0.5   0.855   0.8214
V20     V     0.5   0.145   0.8214
V21     V     0.6786   0.0   0.645
V22     V     0.6786   0.0   0.355
V23     V     0.855   0.8214   0.5
V24     V     0.145   0.8214   0.5
loop_
_geom_bond_atom_site_label_1
_geom_bond_atom_site_label_2
_geom_bond_distance
_geom_bond_site_symmetry_2
_ccdc_geom_bond_type
V1     V2    10.0   .     S
V1     V13    10.0   1_554     S
V1     V14    10.0   .     S
V1     V15    10.0   .     S
V1     V20    10.0   1_554     S
V2     V10    10.0   .     S
V2     V9    10.0   1_554     S
V2     V15    10.0   .     S
V2     V20    10.0   1_554     S
V3     V4    10.0   .     S
V3     V19    10.0   1_545     S
V3     V20    10.0   .     S
V3     V8    10.0   .     S
V3     V24    10.0   1_545     S
V4     V15    10.0   .     S
V4     V16    10.0   1_545     S
V4     V8    10.0   .     S
V4     V24    10.0   1_545     S
V5     V6    10.0   .     S
V5     V23    10.0   1_455     S
V5     V24    10.0   .     S
V5     V10    10.0   .     S
V5     V14    10.0   1_455     S
V6     V8    10.0   .     S
V6     V7    10.0   1_455     S
V6     V10    10.0   .     S
V6     V14    10.0   1_455     S
V7     V6    10.0   1_655     S
V7     V8    10.0   1_655     S
V7     V22    10.0   .     S
V7     V21    10.0   .     S
V7     V12    10.0   1_655     S
V8     V7    10.0   1_455     S
V8     V12    10.0   .     S
V9     V2    10.0   1_556     S
V9     V10    10.0   1_556     S
V9     V12    10.0   .     S
V9     V11    10.0   .     S
V9     V18    10.0   1_556     S
V10     V9    10.0   1_554     S
V10     V18    10.0   .     S
V11     V12    10.0   .     S
V11     V24    10.0   .     S
V11     V23    10.0   1_455     S
V11     V13    10.0   1_455     S
V12     V7    10.0   1_455     S
V12     V13    10.0   1_455     S
V13     V1    10.0   1_556     S
V13     V14    10.0   1_556     S
V13     V12    10.0   1_655     S
V13     V11    10.0   1_655     S
V13     V17    10.0   1_556     S
V14     V13    10.0   1_554     S
V14     V6    10.0   1_655     S
V14     V5    10.0   1_655     S
V14     V17    10.0   .     S
V15     V16    10.0   1_545     S
V15     V22    10.0   .     S
V16     V4    10.0   1_565     S
V16     V15    10.0   1_565     S
V16     V18    10.0   .     S
V16     V17    10.0   .     S
V16     V22    10.0   1_565     S
V17     V18    10.0   .     S
V17     V13    10.0   1_554     S
V17     V19    10.0   1_554     S
V18     V9    10.0   1_554     S
V18     V19    10.0   1_554     S
V19     V3    10.0   1_565     S
V19     V20    10.0   1_565     S
V19     V18    10.0   1_556     S
V19     V17    10.0   1_556     S
V19     V21    10.0   1_565     S
V20     V19    10.0   1_545     S
V20     V2    10.0   1_556     S
V20     V1    10.0   1_556     S
V20     V21    10.0   .     S
V21     V22    10.0   .     S
V21     V19    10.0   1_545     S
V21     V23    10.0   1_545     S
V22     V16    10.0   1_545     S
V22     V23    10.0   1_545     S
V23     V5    10.0   1_655     S
V23     V11    10.0   1_655     S
V23     V24    10.0   1_655     S
V23     V22    10.0   1_565     S
V23     V21    10.0   1_565     S
V24     V23    10.0   1_455     S
V24     V4    10.0   1_565     S
V24     V3    10.0   1_565     S
