data_fcb
_audit_creation_date              2020-02-02
_audit_creation_method            'Pymatgen'
_symmetry_space_group_name_H-M    'P1'
_symmetry_Int_Tables_number       1
loop_
_symmetry_equiv_pos_as_xyz
  x,y,z
_cell_length_a                    31.6014
_cell_length_b                    31.6014
_cell_length_c                    31.6014
_cell_angle_alpha                 90.0
_cell_angle_beta                 90.0
_cell_angle_gamma                 90.0
loop_
_atom_site_label
_atom_site_type_symbol
_atom_site_fract_x
_atom_site_fract_y
_atom_site_fract_z
V1     V     0.618   0.25   0.882
V2     V     0.75   0.382   0.118
V3     V     0.882   0.618   0.25
V4     V     0.118   0.75   0.382
V5     V     0.25   0.882   0.618
V6     V     0.382   0.118   0.75
V7     V     0.118   0.25   0.618
V8     V     0.882   0.382   0.75
V9     V     0.75   0.618   0.882
V10     V     0.618   0.75   0.118
V11     V     0.382   0.882   0.25
V12     V     0.25   0.118   0.382
V13     V     0.618   0.118   0.25
V14     V     0.75   0.882   0.382
V15     V     0.882   0.75   0.618
V16     V     0.118   0.618   0.75
V17     V     0.25   0.382   0.882
V18     V     0.382   0.25   0.118
V19     V     0.25   0.618   0.118
V20     V     0.382   0.75   0.882
V21     V     0.618   0.882   0.75
V22     V     0.75   0.118   0.618
V23     V     0.882   0.25   0.382
V24     V     0.118   0.382   0.25
loop_
_geom_bond_atom_site_label_1
_geom_bond_atom_site_label_2
_geom_bond_distance
_geom_bond_site_symmetry_2
_ccdc_geom_bond_type
V1     V2    9.51   1_556     S
V1     V6    9.51   .     S
V1     V22    10.215   .     S
V1     V8    10.215   .     S
V1     V18    10.55   1_556     S
V2     V1    9.51   1_554     S
V2     V3    9.51   .     S
V2     V23    10.215   .     S
V2     V13    10.215   .     S
V2     V9    10.55   1_554     S
V3     V4    9.51   1_655     S
V3     V10    10.215   .     S
V3     V14    10.215   .     S
V3     V24    10.55   1_655     S
V4     V3    9.51   1_455     S
V4     V5    9.51   .     S
V4     V11    10.215   .     S
V4     V19    10.215   .     S
V4     V15    10.55   1_455     S
V5     V6    9.51   1_565     S
V5     V16    10.215   .     S
V5     V20    10.215   .     S
V5     V12    10.55   1_565     S
V6     V5    9.51   1_545     S
V6     V7    10.215   .     S
V6     V17    10.215   .     S
V6     V21    10.55   1_545     S
V7     V8    9.51   1_455     S
V7     V12    9.51   .     S
V7     V17    10.215   .     S
V7     V23    10.55   1_455     S
V8     V7    9.51   1_655     S
V8     V9    9.51   .     S
V8     V22    10.215   .     S
V8     V16    10.55   1_655     S
V9     V10    9.51   1_556     S
V9     V15    10.215   .     S
V9     V21    10.215   .     S
V9     V2    10.55   1_556     S
V10     V9    9.51   1_554     S
V10     V11    9.51   .     S
V10     V14    10.215   .     S
V10     V20    10.55   1_554     S
V11     V12    9.51   1_565     S
V11     V19    10.215   .     S
V11     V13    10.55   1_565     S
V12     V11    9.51   1_545     S
V12     V24    10.215   .     S
V12     V18    10.215   .     S
V12     V5    10.55   1_545     S
V13     V14    9.51   1_545     S
V13     V18    9.51   .     S
V13     V23    10.215   .     S
V13     V11    10.55   1_545     S
V14     V13    9.51   1_565     S
V14     V15    9.51   .     S
V14     V22    10.55   1_565     S
V15     V16    9.51   1_655     S
V15     V21    10.215   .     S
V15     V4    10.55   1_655     S
V16     V15    9.51   1_455     S
V16     V17    9.51   .     S
V16     V20    10.215   .     S
V16     V8    10.55   1_455     S
V17     V18    9.51   1_556     S
V17     V19    10.55   1_556     S
V18     V17    9.51   1_554     S
V18     V24    10.215   .     S
V18     V1    10.55   1_554     S
V19     V20    9.51   1_554     S
V19     V24    9.51   .     S
V19     V17    10.55   1_554     S
V20     V19    9.51   1_556     S
V20     V21    9.51   .     S
V20     V10    10.55   1_556     S
V21     V22    9.51   1_565     S
V21     V6    10.55   1_565     S
V22     V21    9.51   1_545     S
V22     V23    9.51   .     S
V22     V14    10.55   1_545     S
V23     V24    9.51   1_655     S
V23     V7    10.55   1_655     S
V24     V23    9.51   1_455     S
V24     V3    10.55   1_455     S
