data_fcd
_audit_creation_date              2020-02-02
_audit_creation_method            'Pymatgen'
_symmetry_space_group_name_H-M    'P1'
_symmetry_Int_Tables_number       1
loop_
_symmetry_equiv_pos_as_xyz
  x,y,z
_cell_length_a                    42.9649
_cell_length_b                    42.9649
_cell_length_c                    42.9649
_cell_angle_alpha                 90.0
_cell_angle_beta                 90.0
_cell_angle_gamma                 90.0
loop_
_atom_site_label
_atom_site_type_symbol
_atom_site_fract_x
_atom_site_fract_y
_atom_site_fract_z
V1     V     0.4013   0.3116   0.0944
V2     V     0.0987   0.3116   0.9056
V3     V     0.4056   0.0987   0.1884
V4     V     0.5944   0.4013   0.1884
V5     V     0.6884   0.5944   0.0987
V6     V     0.6884   0.4056   0.4013
V7     V     0.1884   0.4056   0.0987
V8     V     0.1884   0.5944   0.4013
V9     V     0.0944   0.0987   0.8116
V10     V     0.9056   0.4013   0.8116
V11     V     0.9013   0.1884   0.9056
V12     V     0.5987   0.1884   0.0944
V13     V     0.9013   0.3116   0.4056
V14     V     0.5987   0.3116   0.5944
V15     V     0.8116   0.4056   0.5987
V16     V     0.8116   0.5944   0.9013
V17     V     0.9013   0.6884   0.0944
V18     V     0.5987   0.6884   0.9056
V19     V     0.3116   0.4056   0.9013
V20     V     0.3116   0.5944   0.5987
V21     V     0.4056   0.5987   0.8116
V22     V     0.5944   0.9013   0.8116
V23     V     0.6884   0.0944   0.9013
V24     V     0.6884   0.9056   0.5987
V25     V     0.4013   0.6884   0.4056
V26     V     0.0987   0.6884   0.5944
V27     V     0.4013   0.1884   0.5944
V28     V     0.0987   0.1884   0.4056
V29     V     0.5944   0.0987   0.6884
V30     V     0.4056   0.4013   0.6884
V31     V     0.0944   0.4013   0.3116
V32     V     0.9056   0.0987   0.3116
V33     V     0.4056   0.9013   0.3116
V34     V     0.5944   0.5987   0.3116
V35     V     0.0944   0.9013   0.6884
V36     V     0.9056   0.5987   0.6884
V37     V     0.9013   0.8116   0.5944
V38     V     0.5987   0.8116   0.4056
V39     V     0.8116   0.0944   0.0987
V40     V     0.8116   0.9056   0.4013
V41     V     0.3116   0.0944   0.4013
V42     V     0.3116   0.9056   0.0987
V43     V     0.1884   0.9056   0.9013
V44     V     0.1884   0.0944   0.5987
V45     V     0.0987   0.8116   0.0944
V46     V     0.4013   0.8116   0.9056
V47     V     0.9056   0.9013   0.1884
V48     V     0.0944   0.5987   0.1884
loop_
_geom_bond_atom_site_label_1
_geom_bond_atom_site_label_2
_geom_bond_distance
_geom_bond_site_symmetry_2
_ccdc_geom_bond_type
V1     V7    10.0   .     S
V1     V19    10.0   1_554     S
V1     V3    10.0   .     S
V1     V4    10.0   .     S
V1     V12    10.0   .     S
V2     V19    10.0   .     S
V2     V7    10.0   1_556     S
V2     V9    10.0   .     S
V2     V10    10.0   1_455     S
V2     V11    10.0   1_455     S
V3     V12    10.0   .     S
V3     V41    10.0   .     S
V3     V42    10.0   1_545     S
V3     V33    10.0   1_545     S
V4     V12    10.0   .     S
V4     V5    10.0   .     S
V4     V6    10.0   .     S
V4     V34    10.0   .     S
V5     V34    10.0   .     S
V5     V17    10.0   .     S
V5     V18    10.0   1_554     S
V5     V16    10.0   1_554     S
V6     V34    10.0   .     S
V6     V13    10.0   .     S
V6     V14    10.0   .     S
V6     V15    10.0   .     S
V7     V2    10.0   1_554     S
V7     V19    10.0   1_554     S
V7     V31    10.0   .     S
V7     V48    10.0   .     S
V8     V48    10.0   .     S
V8     V31    10.0   .     S
V8     V25    10.0   .     S
V8     V26    10.0   .     S
V8     V20    10.0   .     S
V9     V11    10.0   1_455     S
V9     V43    10.0   1_545     S
V9     V44    10.0   .     S
V9     V35    10.0   1_545     S
V10     V11    10.0   .     S
V10     V2    10.0   1_655     S
V10     V15    10.0   .     S
V10     V16    10.0   .     S
V10     V36    10.0   .     S
V11     V9    10.0   1_655     S
V11     V2    10.0   1_655     S
V11     V23    10.0   .     S
V11     V39    10.0   1_556     S
V12     V39    10.0   .     S
V12     V23    10.0   1_554     S
V13     V15    10.0   .     S
V13     V31    10.0   1_655     S
V13     V32    10.0   .     S
V13     V28    10.0   1_655     S
V14     V15    10.0   .     S
V14     V29    10.0   .     S
V14     V30    10.0   .     S
V14     V27    10.0   .     S
V15     V36    10.0   .     S
V16     V36    10.0   .     S
V16     V17    10.0   1_556     S
V16     V18    10.0   .     S
V16     V5    10.0   1_556     S
V17     V16    10.0   1_554     S
V17     V47    10.0   .     S
V17     V48    10.0   1_655     S
V17     V45    10.0   1_655     S
V18     V5    10.0   1_556     S
V18     V21    10.0   .     S
V18     V22    10.0   .     S
V18     V46    10.0   .     S
V19     V1    10.0   1_556     S
V19     V7    10.0   1_556     S
V19     V30    10.0   .     S
V19     V21    10.0   .     S
V20     V21    10.0   .     S
V20     V30    10.0   .     S
V20     V25    10.0   .     S
V20     V26    10.0   .     S
V21     V30    10.0   .     S
V21     V46    10.0   .     S
V22     V46    10.0   .     S
V22     V23    10.0   1_565     S
V22     V24    10.0   .     S
V22     V29    10.0   1_565     S
V23     V12    10.0   1_556     S
V23     V39    10.0   1_556     S
V23     V29    10.0   .     S
V23     V22    10.0   1_545     S
V24     V29    10.0   1_565     S
V24     V37    10.0   .     S
V24     V38    10.0   .     S
V24     V40    10.0   .     S
V25     V33    10.0   .     S
V25     V34    10.0   .     S
V25     V38    10.0   .     S
V26     V35    10.0   .     S
V26     V36    10.0   1_455     S
V26     V37    10.0   1_455     S
V27     V44    10.0   .     S
V27     V41    10.0   .     S
V27     V29    10.0   .     S
V27     V30    10.0   .     S
V28     V41    10.0   .     S
V28     V44    10.0   .     S
V28     V31    10.0   .     S
V28     V32    10.0   1_455     S
V28     V13    10.0   1_455     S
V29     V24    10.0   1_545     S
V29     V22    10.0   1_545     S
V31     V48    10.0   .     S
V31     V13    10.0   1_455     S
V32     V28    10.0   1_655     S
V32     V39    10.0   .     S
V32     V40    10.0   1_545     S
V32     V47    10.0   1_545     S
V33     V38    10.0   .     S
V33     V41    10.0   1_565     S
V33     V42    10.0   .     S
V33     V3    10.0   1_565     S
V34     V38    10.0   .     S
V35     V37    10.0   1_455     S
V35     V43    10.0   .     S
V35     V44    10.0   1_565     S
V35     V9    10.0   1_565     S
V36     V37    10.0   .     S
V36     V26    10.0   1_655     S
V37     V35    10.0   1_655     S
V37     V26    10.0   1_655     S
V37     V40    10.0   .     S
V38     V40    10.0   .     S
V39     V11    10.0   1_554     S
V39     V23    10.0   1_554     S
V39     V47    10.0   1_545     S
V40     V47    10.0   .     S
V40     V32    10.0   1_565     S
V41     V44    10.0   .     S
V41     V33    10.0   1_545     S
V42     V3    10.0   1_565     S
V42     V45    10.0   .     S
V42     V46    10.0   1_554     S
V42     V43    10.0   1_554     S
V43     V9    10.0   1_565     S
V43     V45    10.0   1_556     S
V43     V46    10.0   .     S
V43     V42    10.0   1_556     S
V44     V35    10.0   1_545     S
V45     V43    10.0   1_554     S
V45     V47    10.0   1_455     S
V45     V48    10.0   .     S
V45     V17    10.0   1_455     S
V46     V42    10.0   1_556     S
V47     V39    10.0   1_565     S
V47     V32    10.0   1_565     S
V47     V45    10.0   1_655     S
V48     V17    10.0   1_455     S
