data_fch
_audit_creation_date              2020-02-02
_audit_creation_method            'Pymatgen'
_symmetry_space_group_name_H-M    'P1'
_symmetry_Int_Tables_number       1
loop_
_symmetry_equiv_pos_as_xyz
  x,y,z
_cell_length_a                    45.6769
_cell_length_b                    45.6769
_cell_length_c                    45.6769
_cell_angle_alpha                 90.0
_cell_angle_beta                 90.0
_cell_angle_gamma                 90.0
loop_
_atom_site_label
_atom_site_type_symbol
_atom_site_fract_x
_atom_site_fract_y
_atom_site_fract_z
V1     V     0.0921   0.643   0.4408
V2     V     0.0921   0.5592   0.643
V3     V     0.0921   0.4408   0.357
V4     V     0.0921   0.357   0.5592
V5     V     0.908   0.4408   0.643
V6     V     0.908   0.643   0.5592
V7     V     0.908   0.357   0.4408
V8     V     0.908   0.5592   0.357
V9     V     0.0592   0.857   0.408
V10     V     0.143   0.0592   0.408
V11     V     0.9408   0.143   0.408
V12     V     0.857   0.9408   0.408
V13     V     0.857   0.0592   0.592
V14     V     0.143   0.9408   0.592
V15     V     0.0592   0.143   0.592
V16     V     0.9408   0.857   0.592
V17     V     0.643   0.4408   0.0921
V18     V     0.5592   0.643   0.0921
V19     V     0.4408   0.357   0.0921
V20     V     0.357   0.5592   0.0921
V21     V     0.4408   0.643   0.908
V22     V     0.643   0.5592   0.908
V23     V     0.357   0.4408   0.908
V24     V     0.5592   0.357   0.908
V25     V     0.857   0.408   0.0592
V26     V     0.0592   0.408   0.143
V27     V     0.143   0.408   0.9408
V28     V     0.9408   0.408   0.857
V29     V     0.0592   0.592   0.857
V30     V     0.9408   0.592   0.143
V31     V     0.143   0.592   0.0592
V32     V     0.857   0.592   0.9408
V33     V     0.4408   0.0921   0.643
V34     V     0.643   0.0921   0.5592
V35     V     0.357   0.0921   0.4408
V36     V     0.5592   0.0921   0.357
V37     V     0.643   0.908   0.4408
V38     V     0.5592   0.908   0.643
V39     V     0.4408   0.908   0.357
V40     V     0.357   0.908   0.5592
V41     V     0.408   0.0592   0.857
V42     V     0.408   0.143   0.0592
V43     V     0.408   0.9408   0.143
V44     V     0.408   0.857   0.9408
V45     V     0.592   0.857   0.0592
V46     V     0.592   0.9408   0.857
V47     V     0.592   0.0592   0.143
V48     V     0.592   0.143   0.9408
loop_
_geom_bond_atom_site_label_1
_geom_bond_atom_site_label_2
_geom_bond_distance
_geom_bond_site_symmetry_2
_ccdc_geom_bond_type
V1     V3    10.0   .     S
V1     V2    10.0   .     S
V1     V6    10.0   1_455     S
V1     V8    10.0   1_455     S
V1     V9    10.0   .     S
V2     V4    10.0   .     S
V2     V5    10.0   1_455     S
V2     V6    10.0   1_455     S
V2     V29    10.0   .     S
V3     V4    10.0   .     S
V3     V8    10.0   1_455     S
V3     V7    10.0   1_455     S
V3     V26    10.0   .     S
V4     V7    10.0   1_455     S
V4     V5    10.0   1_455     S
V4     V15    10.0   .     S
V5     V7    10.0   .     S
V5     V6    10.0   .     S
V5     V2    10.0   1_655     S
V5     V4    10.0   1_655     S
V5     V28    10.0   .     S
V6     V8    10.0   .     S
V6     V1    10.0   1_655     S
V6     V2    10.0   1_655     S
V6     V16    10.0   .     S
V7     V8    10.0   .     S
V7     V3    10.0   1_655     S
V7     V4    10.0   1_655     S
V7     V11    10.0   .     S
V8     V3    10.0   1_655     S
V8     V1    10.0   1_655     S
V8     V30    10.0   .     S
V9     V10    10.0   1_565     S
V9     V12    10.0   1_455     S
V9     V16    10.0   1_455     S
V9     V14    10.0   .     S
V10     V9    10.0   1_545     S
V10     V11    10.0   1_455     S
V10     V15    10.0   .     S
V10     V14    10.0   1_545     S
V10     V35    10.0   .     S
V11     V10    10.0   1_655     S
V11     V12    10.0   1_545     S
V11     V15    10.0   1_655     S
V11     V13    10.0   .     S
V12     V9    10.0   1_655     S
V12     V11    10.0   1_565     S
V12     V13    10.0   1_565     S
V12     V16    10.0   .     S
V12     V37    10.0   .     S
V13     V12    10.0   1_545     S
V13     V15    10.0   1_655     S
V13     V16    10.0   1_545     S
V13     V34    10.0   .     S
V14     V10    10.0   1_565     S
V14     V15    10.0   1_565     S
V14     V16    10.0   1_455     S
V14     V40    10.0   .     S
V15     V11    10.0   1_455     S
V15     V13    10.0   1_455     S
V15     V14    10.0   1_545     S
V16     V9    10.0   1_655     S
V16     V13    10.0   1_565     S
V16     V14    10.0   1_655     S
V17     V19    10.0   .     S
V17     V18    10.0   .     S
V17     V22    10.0   1_554     S
V17     V24    10.0   1_554     S
V17     V25    10.0   .     S
V18     V20    10.0   .     S
V18     V21    10.0   1_554     S
V18     V22    10.0   1_554     S
V18     V45    10.0   .     S
V19     V20    10.0   .     S
V19     V23    10.0   1_554     S
V19     V24    10.0   1_554     S
V19     V42    10.0   .     S
V20     V23    10.0   1_554     S
V20     V21    10.0   1_554     S
V20     V31    10.0   .     S
V21     V23    10.0   .     S
V21     V22    10.0   .     S
V21     V18    10.0   1_556     S
V21     V20    10.0   1_556     S
V21     V44    10.0   .     S
V22     V24    10.0   .     S
V22     V17    10.0   1_556     S
V22     V18    10.0   1_556     S
V22     V32    10.0   .     S
V23     V24    10.0   .     S
V23     V20    10.0   1_556     S
V23     V19    10.0   1_556     S
V23     V27    10.0   .     S
V24     V19    10.0   1_556     S
V24     V17    10.0   1_556     S
V24     V48    10.0   .     S
V25     V26    10.0   1_655     S
V25     V28    10.0   1_554     S
V25     V30    10.0   .     S
V25     V32    10.0   1_554     S
V26     V25    10.0   1_455     S
V26     V27    10.0   1_554     S
V26     V31    10.0   .     S
V26     V30    10.0   1_455     S
V27     V26    10.0   1_556     S
V27     V28    10.0   1_455     S
V27     V29    10.0   .     S
V27     V31    10.0   1_556     S
V28     V25    10.0   1_556     S
V28     V27    10.0   1_655     S
V28     V29    10.0   1_655     S
V28     V32    10.0   .     S
V29     V28    10.0   1_455     S
V29     V31    10.0   1_556     S
V29     V32    10.0   1_455     S
V30     V26    10.0   1_655     S
V30     V31    10.0   1_655     S
V30     V32    10.0   1_554     S
V31     V27    10.0   1_554     S
V31     V29    10.0   1_554     S
V31     V30    10.0   1_455     S
V32     V25    10.0   1_556     S
V32     V29    10.0   1_655     S
V32     V30    10.0   1_556     S
V33     V35    10.0   .     S
V33     V34    10.0   .     S
V33     V38    10.0   1_545     S
V33     V40    10.0   1_545     S
V33     V41    10.0   .     S
V34     V36    10.0   .     S
V34     V37    10.0   1_545     S
V34     V38    10.0   1_545     S
V35     V36    10.0   .     S
V35     V39    10.0   1_545     S
V35     V40    10.0   1_545     S
V36     V39    10.0   1_545     S
V36     V37    10.0   1_545     S
V36     V47    10.0   .     S
V37     V39    10.0   .     S
V37     V38    10.0   .     S
V37     V34    10.0   1_565     S
V37     V36    10.0   1_565     S
V38     V40    10.0   .     S
V38     V33    10.0   1_565     S
V38     V34    10.0   1_565     S
V38     V46    10.0   .     S
V39     V40    10.0   .     S
V39     V36    10.0   1_565     S
V39     V35    10.0   1_565     S
V39     V43    10.0   .     S
V40     V35    10.0   1_565     S
V40     V33    10.0   1_565     S
V41     V42    10.0   1_556     S
V41     V44    10.0   1_545     S
V41     V48    10.0   .     S
V41     V46    10.0   1_545     S
V42     V41    10.0   1_554     S
V42     V43    10.0   1_545     S
V42     V47    10.0   .     S
V42     V48    10.0   1_554     S
V43     V42    10.0   1_565     S
V43     V44    10.0   1_554     S
V43     V47    10.0   1_565     S
V43     V45    10.0   .     S
V44     V41    10.0   1_565     S
V44     V43    10.0   1_556     S
V44     V45    10.0   1_556     S
V44     V46    10.0   .     S
V45     V44    10.0   1_554     S
V45     V47    10.0   1_565     S
V45     V46    10.0   1_554     S
V46     V41    10.0   1_565     S
V46     V45    10.0   1_556     S
V46     V48    10.0   1_565     S
V47     V43    10.0   1_545     S
V47     V45    10.0   1_545     S
V47     V48    10.0   1_554     S
V48     V42    10.0   1_556     S
V48     V47    10.0   1_556     S
V48     V46    10.0   1_545     S
