data_fct
_audit_creation_date              2020-02-02
_audit_creation_method            'Pymatgen'
_symmetry_space_group_name_H-M    'P1'
_symmetry_Int_Tables_number       1
loop_
_symmetry_equiv_pos_as_xyz
  x,y,z
_cell_length_a                    46.6882
_cell_length_b                    46.6882
_cell_length_c                    46.6882
_cell_angle_alpha                 90.0
_cell_angle_beta                 90.0
_cell_angle_gamma                 90.0
loop_
_atom_site_label
_atom_site_type_symbol
_atom_site_fract_x
_atom_site_fract_y
_atom_site_fract_z
V1     V     0.6709   0.125   0.4772
V2     V     0.4772   0.375   0.6709
V3     V     0.125   0.4772   0.6709
V4     V     0.375   0.6709   0.4772
V5     V     0.6709   0.4772   0.375
V6     V     0.4772   0.6709   0.125
V7     V     0.3291   0.5228   0.625
V8     V     0.5228   0.3291   0.875
V9     V     0.375   0.8291   0.0228
V10     V     0.125   0.0228   0.8291
V11     V     0.3291   0.625   0.9772
V12     V     0.5228   0.875   0.1709
V13     V     0.375   0.4772   0.8291
V14     V     0.125   0.6709   0.0228
V15     V     0.9772   0.875   0.3291
V16     V     0.1709   0.625   0.5228
V17     V     0.125   0.8291   0.4772
V18     V     0.375   0.0228   0.6709
V19     V     0.9772   0.1709   0.875
V20     V     0.1709   0.9772   0.625
V21     V     0.3291   0.9772   0.875
V22     V     0.5228   0.1709   0.625
V23     V     0.4772   0.125   0.8291
V24     V     0.6709   0.375   0.0228
V25     V     0.875   0.9772   0.1709
V26     V     0.625   0.1709   0.9772
V27     V     0.625   0.3291   0.5228
V28     V     0.875   0.5228   0.3291
V29     V     0.0228   0.375   0.8291
V30     V     0.8291   0.125   0.0228
V31     V     0.8291   0.375   0.4772
V32     V     0.0228   0.125   0.6709
V33     V     0.9772   0.3291   0.625
V34     V     0.1709   0.5228   0.875
V35     V     0.5228   0.625   0.3291
V36     V     0.3291   0.875   0.5228
V37     V     0.8291   0.0228   0.375
V38     V     0.0228   0.8291   0.125
V39     V     0.625   0.9772   0.3291
V40     V     0.875   0.1709   0.5228
V41     V     0.4772   0.8291   0.375
V42     V     0.6709   0.0228   0.125
V43     V     0.875   0.3291   0.9772
V44     V     0.625   0.5228   0.1709
V45     V     0.8291   0.4772   0.125
V46     V     0.0228   0.6709   0.375
V47     V     0.1709   0.875   0.9772
V48     V     0.9772   0.625   0.1709
loop_
_geom_bond_atom_site_label_1
_geom_bond_atom_site_label_2
_geom_bond_distance
_geom_bond_site_symmetry_2
_ccdc_geom_bond_type
V1     V22    10.0   .     S
V1     V40    10.0   .     S
V1     V27    10.0   .     S
V1     V39    10.0   1_545     S
V1     V37    10.0   .     S
V2     V27    10.0   .     S
V2     V8    10.0   .     S
V2     V7    10.0   .     S
V2     V13    10.0   .     S
V2     V22    10.0   .     S
V3     V16    10.0   .     S
V3     V34    10.0   .     S
V3     V7    10.0   .     S
V3     V33    10.0   1_455     S
V3     V29    10.0   .     S
V4     V7    10.0   .     S
V4     V36    10.0   .     S
V4     V16    10.0   .     S
V4     V35    10.0   .     S
V4     V41    10.0   .     S
V5     V35    10.0   .     S
V5     V28    10.0   .     S
V5     V27    10.0   .     S
V5     V31    10.0   .     S
V5     V44    10.0   .     S
V6     V44    10.0   .     S
V6     V12    10.0   .     S
V6     V11    10.0   1_554     S
V6     V9    10.0   .     S
V6     V35    10.0   .     S
V7     V16    10.0   .     S
V7     V13    10.0   .     S
V8     V13    10.0   .     S
V8     V23    10.0   .     S
V8     V24    10.0   1_556     S
V8     V26    10.0   .     S
V9     V21    10.0   1_554     S
V9     V11    10.0   1_554     S
V9     V12    10.0   .     S
V9     V47    10.0   1_554     S
V10     V47    10.0   1_545     S
V10     V20    10.0   1_545     S
V10     V19    10.0   1_455     S
V10     V32    10.0   .     S
V10     V21    10.0   1_545     S
V11     V9    10.0   1_556     S
V11     V6    10.0   1_556     S
V11     V14    10.0   1_556     S
V11     V13    10.0   .     S
V11     V34    10.0   .     S
V12     V41    10.0   .     S
V12     V42    10.0   1_565     S
V12     V39    10.0   .     S
V13     V34    10.0   .     S
V14     V11    10.0   1_554     S
V14     V34    10.0   1_554     S
V14     V47    10.0   1_554     S
V14     V38    10.0   .     S
V14     V48    10.0   1_455     S
V15     V17    10.0   1_655     S
V15     V38    10.0   1_655     S
V15     V37    10.0   1_565     S
V15     V25    10.0   .     S
V15     V46    10.0   1_655     S
V16     V46    10.0   .     S
V16     V17    10.0   .     S
V17     V15    10.0   1_455     S
V17     V46    10.0   .     S
V17     V20    10.0   .     S
V17     V36    10.0   .     S
V18     V36    10.0   1_545     S
V18     V21    10.0   1_545     S
V18     V20    10.0   1_545     S
V18     V23    10.0   .     S
V18     V22    10.0   .     S
V19     V10    10.0   1_655     S
V19     V29    10.0   1_655     S
V19     V30    10.0   1_556     S
V19     V43    10.0   .     S
V19     V32    10.0   1_655     S
V20     V10    10.0   1_565     S
V20     V36    10.0   .     S
V20     V32    10.0   1_565     S
V20     V18    10.0   1_565     S
V21     V9    10.0   1_556     S
V21     V47    10.0   .     S
V21     V18    10.0   1_565     S
V21     V23    10.0   1_565     S
V21     V10    10.0   1_565     S
V22     V27    10.0   .     S
V22     V23    10.0   .     S
V23     V21    10.0   1_545     S
V23     V26    10.0   .     S
V24     V8    10.0   1_554     S
V24     V43    10.0   1_554     S
V24     V26    10.0   1_554     S
V24     V45    10.0   .     S
V24     V44    10.0   .     S
V25     V30    10.0   1_565     S
V25     V37    10.0   1_565     S
V25     V38    10.0   1_655     S
V25     V42    10.0   1_565     S
V26     V42    10.0   1_556     S
V26     V24    10.0   1_556     S
V26     V30    10.0   1_556     S
V27     V31    10.0   .     S
V28     V31    10.0   .     S
V28     V45    10.0   .     S
V28     V46    10.0   1_655     S
V28     V48    10.0   .     S
V29     V19    10.0   1_455     S
V29     V43    10.0   1_455     S
V29     V33    10.0   1_455     S
V29     V34    10.0   .     S
V30     V25    10.0   1_545     S
V30     V42    10.0   .     S
V30     V19    10.0   1_554     S
V30     V26    10.0   1_554     S
V30     V43    10.0   1_554     S
V31     V33    10.0   .     S
V31     V40    10.0   .     S
V32     V20    10.0   1_545     S
V32     V40    10.0   1_455     S
V32     V19    10.0   1_455     S
V32     V33    10.0   1_455     S
V33     V29    10.0   1_655     S
V33     V40    10.0   .     S
V33     V3    10.0   1_655     S
V33     V32    10.0   1_655     S
V34     V14    10.0   1_556     S
V35     V44    10.0   .     S
V35     V41    10.0   .     S
V36     V18    10.0   1_565     S
V36     V41    10.0   .     S
V37     V25    10.0   1_545     S
V37     V15    10.0   1_545     S
V37     V39    10.0   1_545     S
V37     V40    10.0   .     S
V38     V15    10.0   1_455     S
V38     V25    10.0   1_455     S
V38     V48    10.0   1_455     S
V38     V47    10.0   1_554     S
V39     V37    10.0   1_565     S
V39     V1    10.0   1_565     S
V39     V42    10.0   1_565     S
V39     V41    10.0   .     S
V40     V32    10.0   1_655     S
V42     V26    10.0   1_554     S
V42     V39    10.0   1_545     S
V42     V12    10.0   1_545     S
V42     V25    10.0   1_545     S
V43     V24    10.0   1_556     S
V43     V29    10.0   1_655     S
V43     V45    10.0   1_556     S
V43     V30    10.0   1_556     S
V44     V45    10.0   .     S
V45     V43    10.0   1_554     S
V45     V48    10.0   .     S
V46     V28    10.0   1_455     S
V46     V15    10.0   1_455     S
V46     V48    10.0   1_455     S
V47     V10    10.0   1_565     S
V47     V14    10.0   1_556     S
V47     V38    10.0   1_556     S
V47     V9    10.0   1_556     S
V48     V38    10.0   1_655     S
V48     V14    10.0   1_655     S
V48     V46    10.0   1_655     S
