data_fcx
_audit_creation_date              2020-02-02
_audit_creation_method            'Pymatgen'
_symmetry_space_group_name_H-M    'P1'
_symmetry_Int_Tables_number       1
loop_
_symmetry_equiv_pos_as_xyz
  x,y,z
_cell_length_a                    53.276
_cell_length_b                    53.276
_cell_length_c                    53.276
_cell_angle_alpha                 90.0
_cell_angle_beta                 90.0
_cell_angle_gamma                 90.0
loop_
_atom_site_label
_atom_site_type_symbol
_atom_site_fract_x
_atom_site_fract_y
_atom_site_fract_z
V1     V     0.5586   0.4782   0.1587
V2     V     0.6914   0.4087   0.2718
V3     V     0.6914   0.5913   0.2282
V4     V     0.5586   0.5218   0.3413
V5     V     0.5218   0.8413   0.4414
V6     V     0.5913   0.7282   0.3086
V7     V     0.4087   0.7718   0.3086
V8     V     0.4782   0.6587   0.4414
V9     V     0.1587   0.5586   0.4782
V10     V     0.2718   0.6914   0.4087
V11     V     0.3413   0.5586   0.5218
V12     V     0.2282   0.6914   0.5913
V13     V     0.4414   0.5218   0.8413
V14     V     0.3086   0.5913   0.7282
V15     V     0.3086   0.4087   0.7718
V16     V     0.4414   0.4782   0.6587
V17     V     0.7282   0.6914   0.9087
V18     V     0.8413   0.5586   0.9782
V19     V     0.7718   0.6914   0.0913
V20     V     0.6587   0.5586   0.0218
V21     V     0.4782   0.8413   0.9414
V22     V     0.4087   0.7282   0.8086
V23     V     0.5913   0.7718   0.8086
V24     V     0.5218   0.6587   0.9414
V25     V     0.4087   0.2282   0.1914
V26     V     0.5913   0.2718   0.1914
V27     V     0.5218   0.1587   0.0586
V28     V     0.4782   0.3413   0.0586
V29     V     0.2282   0.3086   0.9087
V30     V     0.1587   0.4414   0.0218
V31     V     0.2718   0.3086   0.0913
V32     V     0.3413   0.4414   0.9782
V33     V     0.2282   0.1914   0.4087
V34     V     0.1587   0.0586   0.5218
V35     V     0.2718   0.1914   0.5913
V36     V     0.3413   0.0586   0.4782
V37     V     0.3086   0.9087   0.2282
V38     V     0.4414   0.0218   0.1587
V39     V     0.4414   0.9782   0.3413
V40     V     0.3086   0.0913   0.2718
V41     V     0.2718   0.8086   0.9087
V42     V     0.1587   0.9414   0.9782
V43     V     0.2282   0.8086   0.0913
V44     V     0.3413   0.9414   0.0218
V45     V     0.0586   0.0218   0.8413
V46     V     0.1914   0.0913   0.7282
V47     V     0.1914   0.9087   0.7718
V48     V     0.0586   0.9782   0.6587
V49     V     0.9087   0.2718   0.8086
V50     V     0.0218   0.3413   0.9414
V51     V     0.9782   0.1587   0.9414
V52     V     0.0913   0.2282   0.8086
V53     V     0.8413   0.0586   0.0218
V54     V     0.7718   0.1914   0.9087
V55     V     0.7282   0.1914   0.0913
V56     V     0.6587   0.0586   0.9782
V57     V     0.0218   0.1587   0.4414
V58     V     0.9087   0.2282   0.3086
V59     V     0.9782   0.3413   0.4414
V60     V     0.0913   0.2718   0.3086
V61     V     0.4782   0.1587   0.5586
V62     V     0.5218   0.3413   0.5586
V63     V     0.4087   0.2718   0.6914
V64     V     0.5913   0.2282   0.6914
V65     V     0.8413   0.4414   0.5218
V66     V     0.7282   0.3086   0.5913
V67     V     0.7718   0.3086   0.4087
V68     V     0.6587   0.4414   0.4782
V69     V     0.0586   0.5218   0.1587
V70     V     0.1914   0.4087   0.2282
V71     V     0.1914   0.5913   0.2718
V72     V     0.0586   0.4782   0.3413
V73     V     0.8086   0.9087   0.2718
V74     V     0.9414   0.9782   0.1587
V75     V     0.9414   0.0218   0.3413
V76     V     0.8086   0.0913   0.2282
V77     V     0.0218   0.8413   0.0586
V78     V     0.9087   0.7718   0.1914
V79     V     0.0913   0.7282   0.1914
V80     V     0.9782   0.6587   0.0586
V81     V     0.5586   0.9782   0.8413
V82     V     0.6914   0.9087   0.7282
V83     V     0.6914   0.0913   0.7718
V84     V     0.5586   0.0218   0.6587
V85     V     0.8413   0.9414   0.4782
V86     V     0.7282   0.8086   0.4087
V87     V     0.7718   0.8086   0.5913
V88     V     0.6587   0.9414   0.5218
V89     V     0.9414   0.4782   0.8413
V90     V     0.8086   0.4087   0.7282
V91     V     0.8086   0.5913   0.7718
V92     V     0.9414   0.5218   0.6587
V93     V     0.9087   0.7282   0.6914
V94     V     0.9782   0.8413   0.5586
V95     V     0.0913   0.7718   0.6914
V96     V     0.0218   0.6587   0.5586
loop_
_geom_bond_atom_site_label_1
_geom_bond_atom_site_label_2
_geom_bond_distance
_geom_bond_site_symmetry_2
_ccdc_geom_bond_type
V1     V20    10.0   .     S
V1     V3    10.0   .     S
V1     V2    10.0   .     S
V1     V4    10.0   .     S
V1     V28    10.0   .     S
V2     V26    10.0   .     S
V2     V4    10.0   .     S
V2     V3    10.0   .     S
V2     V67    10.0   .     S
V3     V6    10.0   .     S
V3     V4    10.0   .     S
V3     V19    10.0   .     S
V4     V68    10.0   .     S
V4     V8    10.0   .     S
V5     V39    10.0   .     S
V5     V7    10.0   .     S
V5     V6    10.0   .     S
V5     V8    10.0   .     S
V5     V88    10.0   .     S
V6     V86    10.0   .     S
V6     V8    10.0   .     S
V6     V7    10.0   .     S
V7     V10    10.0   .     S
V7     V8    10.0   .     S
V7     V37    10.0   .     S
V8     V11    10.0   .     S
V9     V96    10.0   .     S
V9     V12    10.0   .     S
V9     V10    10.0   .     S
V9     V11    10.0   .     S
V9     V72    10.0   .     S
V10     V71    10.0   .     S
V10     V11    10.0   .     S
V10     V12    10.0   .     S
V11     V12    10.0   .     S
V11     V16    10.0   .     S
V12     V14    10.0   .     S
V12     V95    10.0   .     S
V13     V32    10.0   .     S
V13     V15    10.0   .     S
V13     V14    10.0   .     S
V13     V16    10.0   .     S
V13     V24    10.0   .     S
V14     V22    10.0   .     S
V14     V16    10.0   .     S
V14     V15    10.0   .     S
V15     V63    10.0   .     S
V15     V16    10.0   .     S
V15     V29    10.0   .     S
V16     V62    10.0   .     S
V17     V91    10.0   .     S
V17     V18    10.0   .     S
V17     V20    10.0   1_556     S
V17     V19    10.0   1_556     S
V17     V23    10.0   .     S
V18     V80    10.0   1_556     S
V18     V19    10.0   1_556     S
V18     V20    10.0   1_556     S
V18     V89    10.0   .     S
V19     V18    10.0   1_554     S
V19     V20    10.0   .     S
V19     V17    10.0   1_554     S
V19     V78    10.0   .     S
V20     V24    10.0   1_554     S
V20     V17    10.0   1_554     S
V20     V18    10.0   1_554     S
V21     V81    10.0   .     S
V21     V23    10.0   .     S
V21     V22    10.0   .     S
V21     V24    10.0   .     S
V21     V44    10.0   1_556     S
V22     V41    10.0   .     S
V22     V24    10.0   .     S
V22     V23    10.0   .     S
V23     V24    10.0   .     S
V23     V82    10.0   .     S
V24     V20    10.0   1_556     S
V25     V31    10.0   .     S
V25     V28    10.0   .     S
V25     V27    10.0   .     S
V25     V26    10.0   .     S
V25     V40    10.0   .     S
V26     V55    10.0   .     S
V26     V27    10.0   .     S
V26     V28    10.0   .     S
V27     V38    10.0   .     S
V27     V28    10.0   .     S
V27     V56    10.0   1_554     S
V28     V32    10.0   1_554     S
V29     V32    10.0   .     S
V29     V30    10.0   1_556     S
V29     V31    10.0   1_556     S
V29     V52    10.0   .     S
V30     V50    10.0   1_554     S
V30     V29    10.0   1_554     S
V30     V31    10.0   .     S
V30     V32    10.0   1_554     S
V30     V69    10.0   .     S
V31     V70    10.0   .     S
V31     V32    10.0   1_554     S
V31     V29    10.0   1_554     S
V32     V28    10.0   1_556     S
V32     V31    10.0   1_556     S
V32     V30    10.0   1_556     S
V33     V40    10.0   .     S
V33     V36    10.0   .     S
V33     V34    10.0   .     S
V33     V35    10.0   .     S
V33     V60    10.0   .     S
V34     V57    10.0   .     S
V34     V35    10.0   .     S
V34     V36    10.0   .     S
V34     V48    10.0   1_545     S
V35     V46    10.0   .     S
V35     V36    10.0   .     S
V35     V63    10.0   .     S
V36     V61    10.0   .     S
V36     V39    10.0   1_545     S
V37     V39    10.0   .     S
V37     V38    10.0   1_565     S
V37     V40    10.0   1_565     S
V37     V43    10.0   .     S
V38     V44    10.0   1_545     S
V38     V37    10.0   1_545     S
V38     V40    10.0   .     S
V38     V39    10.0   1_545     S
V39     V36    10.0   1_565     S
V39     V40    10.0   1_565     S
V39     V38    10.0   1_565     S
V40     V39    10.0   1_545     S
V40     V37    10.0   1_545     S
V41     V47    10.0   .     S
V41     V42    10.0   .     S
V41     V44    10.0   1_556     S
V41     V43    10.0   1_556     S
V42     V77    10.0   1_556     S
V42     V43    10.0   1_556     S
V42     V44    10.0   1_556     S
V42     V45    10.0   1_565     S
V43     V42    10.0   1_554     S
V43     V44    10.0   .     S
V43     V41    10.0   1_554     S
V43     V79    10.0   .     S
V44     V38    10.0   1_565     S
V44     V21    10.0   1_554     S
V44     V41    10.0   1_554     S
V44     V42    10.0   1_554     S
V45     V42    10.0   1_545     S
V45     V47    10.0   1_545     S
V45     V46    10.0   .     S
V45     V48    10.0   1_545     S
V45     V51    10.0   1_455     S
V46     V52    10.0   .     S
V46     V48    10.0   1_545     S
V46     V47    10.0   1_545     S
V47     V45    10.0   1_565     S
V47     V95    10.0   .     S
V47     V48    10.0   .     S
V47     V46    10.0   1_565     S
V48     V34    10.0   1_565     S
V48     V46    10.0   1_565     S
V48     V45    10.0   1_565     S
V48     V94    10.0   1_455     S
V49     V54    10.0   .     S
V49     V51    10.0   .     S
V49     V50    10.0   1_655     S
V49     V52    10.0   1_655     S
V49     V90    10.0   .     S
V50     V30    10.0   1_556     S
V50     V89    10.0   1_455     S
V50     V49    10.0   1_455     S
V50     V52    10.0   .     S
V50     V51    10.0   1_455     S
V51     V45    10.0   1_655     S
V51     V52    10.0   1_655     S
V51     V50    10.0   1_655     S
V51     V53    10.0   1_556     S
V52     V51    10.0   1_455     S
V52     V49    10.0   1_455     S
V53     V51    10.0   1_554     S
V53     V54    10.0   1_554     S
V53     V55    10.0   .     S
V53     V56    10.0   1_554     S
V53     V74    10.0   1_545     S
V54     V53    10.0   1_556     S
V54     V83    10.0   .     S
V54     V56    10.0   .     S
V54     V55    10.0   1_556     S
V55     V76    10.0   .     S
V55     V56    10.0   1_554     S
V55     V54    10.0   1_554     S
V56     V27    10.0   1_556     S
V56     V55    10.0   1_556     S
V56     V53    10.0   1_556     S
V56     V81    10.0   1_545     S
V57     V75    10.0   1_455     S
V57     V58    10.0   1_455     S
V57     V60    10.0   .     S
V57     V59    10.0   1_455     S
V58     V57    10.0   1_655     S
V58     V67    10.0   .     S
V58     V59    10.0   .     S
V58     V60    10.0   1_655     S
V58     V76    10.0   .     S
V59     V72    10.0   1_655     S
V59     V60    10.0   1_655     S
V59     V57    10.0   1_655     S
V59     V65    10.0   .     S
V60     V59    10.0   1_455     S
V60     V58    10.0   1_455     S
V60     V70    10.0   .     S
V61     V84    10.0   .     S
V61     V64    10.0   .     S
V61     V63    10.0   .     S
V61     V62    10.0   .     S
V62     V63    10.0   .     S
V62     V64    10.0   .     S
V62     V68    10.0   .     S
V63     V64    10.0   .     S
V64     V66    10.0   .     S
V64     V83    10.0   .     S
V65     V67    10.0   .     S
V65     V66    10.0   .     S
V65     V68    10.0   .     S
V65     V92    10.0   .     S
V66     V90    10.0   .     S
V66     V68    10.0   .     S
V66     V67    10.0   .     S
V67     V68    10.0   .     S
V69     V70    10.0   .     S
V69     V71    10.0   .     S
V69     V72    10.0   .     S
V69     V80    10.0   1_455     S
V70     V72    10.0   .     S
V70     V71    10.0   .     S
V71     V79    10.0   .     S
V71     V72    10.0   .     S
V72     V59    10.0   1_455     S
V73     V78    10.0   .     S
V73     V74    10.0   .     S
V73     V75    10.0   1_565     S
V73     V76    10.0   1_565     S
V73     V86    10.0   .     S
V74     V53    10.0   1_565     S
V74     V76    10.0   1_565     S
V74     V75    10.0   1_565     S
V74     V77    10.0   1_655     S
V75     V57    10.0   1_655     S
V75     V85    10.0   1_545     S
V75     V73    10.0   1_545     S
V75     V76    10.0   .     S
V75     V74    10.0   1_545     S
V76     V74    10.0   1_545     S
V76     V73    10.0   1_545     S
V77     V42    10.0   1_554     S
V77     V74    10.0   1_455     S
V77     V78    10.0   1_455     S
V77     V79    10.0   .     S
V77     V80    10.0   1_455     S
V78     V77    10.0   1_655     S
V78     V80    10.0   .     S
V78     V79    10.0   1_655     S
V79     V80    10.0   1_455     S
V79     V78    10.0   1_455     S
V80     V18    10.0   1_554     S
V80     V69    10.0   1_655     S
V80     V79    10.0   1_655     S
V80     V77    10.0   1_655     S
V81     V56    10.0   1_565     S
V81     V83    10.0   1_565     S
V81     V82    10.0   .     S
V81     V84    10.0   1_565     S
V82     V84    10.0   1_565     S
V82     V83    10.0   1_565     S
V82     V87    10.0   .     S
V83     V81    10.0   1_545     S
V83     V84    10.0   .     S
V83     V82    10.0   1_545     S
V84     V88    10.0   1_545     S
V84     V82    10.0   1_545     S
V84     V81    10.0   1_545     S
V85     V75    10.0   1_565     S
V85     V94    10.0   .     S
V85     V87    10.0   .     S
V85     V86    10.0   .     S
V85     V88    10.0   .     S
V86     V88    10.0   .     S
V86     V87    10.0   .     S
V87     V88    10.0   .     S
V87     V93    10.0   .     S
V88     V84    10.0   1_565     S
V89     V50    10.0   1_655     S
V89     V91    10.0   .     S
V89     V90    10.0   .     S
V89     V92    10.0   .     S
V90     V92    10.0   .     S
V90     V91    10.0   .     S
V91     V93    10.0   .     S
V91     V92    10.0   .     S
V92     V96    10.0   1_655     S
V93     V94    10.0   .     S
V93     V96    10.0   1_655     S
V93     V95    10.0   1_655     S
V94     V48    10.0   1_655     S
V94     V95    10.0   1_655     S
V94     V96    10.0   1_655     S
V95     V94    10.0   1_455     S
V95     V96    10.0   .     S
V95     V93    10.0   1_455     S
V96     V92    10.0   1_455     S
V96     V93    10.0   1_455     S
V96     V94    10.0   1_455     S
