data_fcy
_audit_creation_date              2020-02-02
_audit_creation_method            'Pymatgen'
_symmetry_space_group_name_H-M    'P1'
_symmetry_Int_Tables_number       1
loop_
_symmetry_equiv_pos_as_xyz
  x,y,z
_cell_length_a                    57.3655
_cell_length_b                    57.3655
_cell_length_c                    57.3655
_cell_angle_alpha                 90.0
_cell_angle_beta                 90.0
_cell_angle_gamma                 90.0
loop_
_atom_site_label
_atom_site_type_symbol
_atom_site_fract_x
_atom_site_fract_y
_atom_site_fract_z
V1     V     0.1553   0.109   0.7116
V2     V     0.141   0.0947   0.5384
V3     V     0.641   0.4053   0.4616
V4     V     0.6553   0.391   0.2884
V5     V     0.109   0.7116   0.1553
V6     V     0.0947   0.5384   0.141
V7     V     0.7116   0.1553   0.109
V8     V     0.5384   0.141   0.0947
V9     V     0.609   0.2884   0.1553
V10     V     0.5947   0.4616   0.141
V11     V     0.0384   0.859   0.0947
V12     V     0.2116   0.8447   0.109
V13     V     0.0947   0.0384   0.859
V14     V     0.109   0.2116   0.8447
V15     V     0.1553   0.891   0.7884
V16     V     0.141   0.9053   0.9616
V17     V     0.0947   0.9616   0.641
V18     V     0.109   0.7884   0.6553
V19     V     0.2116   0.3447   0.891
V20     V     0.0384   0.359   0.9053
V21     V     0.859   0.0947   0.0384
V22     V     0.8447   0.109   0.2116
V23     V     0.891   0.7884   0.1553
V24     V     0.9053   0.9616   0.141
V25     V     0.9616   0.641   0.0947
V26     V     0.7884   0.6553   0.109
V27     V     0.641   0.0947   0.9616
V28     V     0.6553   0.109   0.7884
V29     V     0.7884   0.1553   0.891
V30     V     0.9616   0.141   0.9053
V31     V     0.9053   0.4616   0.859
V32     V     0.891   0.2884   0.8447
V33     V     0.7116   0.6553   0.891
V34     V     0.5384   0.641   0.9053
V35     V     0.609   0.7884   0.8447
V36     V     0.5947   0.9616   0.859
V37     V     0.6553   0.891   0.7116
V38     V     0.641   0.9053   0.5384
V39     V     0.7884   0.8447   0.609
V40     V     0.9616   0.859   0.5947
V41     V     0.891   0.7116   0.6553
V42     V     0.9053   0.5384   0.641
V43     V     0.8447   0.609   0.7884
V44     V     0.859   0.5947   0.9616
V45     V     0.891   0.2116   0.3447
V46     V     0.9053   0.0384   0.359
V47     V     0.8447   0.891   0.2884
V48     V     0.859   0.9053   0.4616
V49     V     0.3447   0.891   0.2116
V50     V     0.359   0.9053   0.0384
V51     V     0.4616   0.859   0.9053
V52     V     0.2884   0.8447   0.891
V53     V     0.6553   0.609   0.2116
V54     V     0.641   0.5947   0.0384
V55     V     0.7116   0.8447   0.391
V56     V     0.5384   0.859   0.4053
V57     V     0.609   0.7116   0.3447
V58     V     0.5947   0.5384   0.359
V59     V     0.4053   0.9616   0.359
V60     V     0.391   0.7884   0.3447
V61     V     0.2116   0.1553   0.391
V62     V     0.0384   0.141   0.4053
V63     V     0.0947   0.4616   0.359
V64     V     0.109   0.2884   0.3447
V65     V     0.359   0.0947   0.4616
V66     V     0.3447   0.109   0.2884
V67     V     0.391   0.2116   0.1553
V68     V     0.4053   0.0384   0.141
V69     V     0.4053   0.4616   0.641
V70     V     0.391   0.2884   0.6553
V71     V     0.2884   0.1553   0.609
V72     V     0.4616   0.141   0.5947
V73     V     0.609   0.2116   0.6553
V74     V     0.5947   0.0384   0.641
V75     V     0.9616   0.359   0.4053
V76     V     0.7884   0.3447   0.391
V77     V     0.8447   0.391   0.7116
V78     V     0.859   0.4053   0.5384
V79     V     0.7116   0.3447   0.609
V80     V     0.5384   0.359   0.5947
V81     V     0.2116   0.6553   0.609
V82     V     0.0384   0.641   0.5947
V83     V     0.1553   0.609   0.2884
V84     V     0.141   0.5947   0.4616
V85     V     0.4616   0.641   0.4053
V86     V     0.2884   0.6553   0.391
V87     V     0.3447   0.609   0.7116
V88     V     0.359   0.5947   0.5384
V89     V     0.3447   0.391   0.7884
V90     V     0.359   0.4053   0.9616
V91     V     0.391   0.7116   0.8447
V92     V     0.4053   0.5384   0.859
V93     V     0.1553   0.391   0.2116
V94     V     0.141   0.4053   0.0384
V95     V     0.4616   0.359   0.0947
V96     V     0.2884   0.3447   0.109
loop_
_geom_bond_atom_site_label_1
_geom_bond_atom_site_label_2
_geom_bond_distance
_geom_bond_site_symmetry_2
_ccdc_geom_bond_type
V1     V71    10.0   .     S
V1     V2    10.0   .     S
V1     V17    10.0   1_545     S
V1     V14    10.0   .     S
V1     V13    10.0   .     S
V2     V17    10.0   1_545     S
V2     V71    10.0   .     S
V2     V62    10.0   .     S
V2     V61    10.0   .     S
V3     V58    10.0   .     S
V3     V4    10.0   .     S
V3     V76    10.0   .     S
V3     V80    10.0   .     S
V3     V79    10.0   .     S
V4     V76    10.0   .     S
V4     V58    10.0   .     S
V4     V9    10.0   .     S
V4     V10    10.0   .     S
V5     V83    10.0   .     S
V5     V6    10.0   .     S
V5     V25    10.0   1_455     S
V5     V12    10.0   .     S
V5     V11    10.0   .     S
V6     V25    10.0   1_455     S
V6     V83    10.0   .     S
V6     V94    10.0   .     S
V6     V93    10.0   .     S
V7     V9    10.0   .     S
V7     V8    10.0   .     S
V7     V27    10.0   1_554     S
V7     V22    10.0   .     S
V7     V21    10.0   .     S
V8     V27    10.0   1_554     S
V8     V9    10.0   .     S
V8     V68    10.0   .     S
V8     V67    10.0   .     S
V9     V10    10.0   .     S
V9     V95    10.0   .     S
V10     V95    10.0   .     S
V10     V54    10.0   .     S
V10     V53    10.0   .     S
V11     V16    10.0   1_554     S
V11     V12    10.0   .     S
V11     V24    10.0   1_455     S
V11     V23    10.0   1_455     S
V12     V16    10.0   1_554     S
V12     V49    10.0   .     S
V12     V50    10.0   .     S
V13     V30    10.0   1_455     S
V13     V14    10.0   .     S
V13     V16    10.0   1_545     S
V13     V15    10.0   1_545     S
V14     V30    10.0   1_455     S
V14     V19    10.0   .     S
V14     V20    10.0   .     S
V15     V52    10.0   .     S
V15     V16    10.0   .     S
V15     V13    10.0   1_565     S
V15     V18    10.0   .     S
V15     V17    10.0   .     S
V16     V11    10.0   1_556     S
V16     V12    10.0   1_556     S
V16     V13    10.0   1_565     S
V16     V52    10.0   .     S
V17     V2    10.0   1_565     S
V17     V1    10.0   1_565     S
V17     V40    10.0   1_455     S
V17     V18    10.0   .     S
V18     V40    10.0   1_455     S
V18     V81    10.0   .     S
V18     V82    10.0   .     S
V19     V20    10.0   .     S
V19     V94    10.0   1_556     S
V19     V89    10.0   .     S
V19     V90    10.0   .     S
V20     V94    10.0   1_556     S
V20     V31    10.0   1_455     S
V20     V32    10.0   1_455     S
V21     V24    10.0   1_545     S
V21     V22    10.0   .     S
V21     V30    10.0   1_554     S
V21     V29    10.0   1_554     S
V22     V24    10.0   1_545     S
V22     V45    10.0   .     S
V22     V46    10.0   .     S
V23     V47    10.0   .     S
V23     V24    10.0   .     S
V23     V11    10.0   1_655     S
V23     V26    10.0   .     S
V23     V25    10.0   .     S
V24     V21    10.0   1_565     S
V24     V22    10.0   1_565     S
V24     V11    10.0   1_655     S
V24     V47    10.0   .     S
V25     V6    10.0   1_655     S
V25     V5    10.0   1_655     S
V25     V44    10.0   1_554     S
V25     V26    10.0   .     S
V26     V44    10.0   1_554     S
V26     V53    10.0   .     S
V26     V54    10.0   .     S
V27     V8    10.0   1_556     S
V27     V7    10.0   1_556     S
V27     V36    10.0   1_545     S
V27     V28    10.0   .     S
V27     V29    10.0   .     S
V28     V29    10.0   .     S
V28     V36    10.0   1_545     S
V28     V73    10.0   .     S
V28     V74    10.0   .     S
V29     V32    10.0   .     S
V29     V30    10.0   .     S
V29     V21    10.0   1_556     S
V30     V13    10.0   1_655     S
V30     V14    10.0   1_655     S
V30     V21    10.0   1_556     S
V30     V32    10.0   .     S
V31     V20    10.0   1_655     S
V31     V32    10.0   .     S
V31     V77    10.0   .     S
V31     V44    10.0   .     S
V31     V43    10.0   .     S
V32     V77    10.0   .     S
V32     V20    10.0   1_655     S
V33     V35    10.0   .     S
V33     V34    10.0   .     S
V33     V54    10.0   1_556     S
V33     V43    10.0   .     S
V33     V44    10.0   .     S
V34     V54    10.0   1_556     S
V34     V35    10.0   .     S
V34     V92    10.0   .     S
V34     V91    10.0   .     S
V35     V37    10.0   .     S
V35     V36    10.0   .     S
V35     V51    10.0   .     S
V36     V27    10.0   1_565     S
V36     V28    10.0   1_565     S
V36     V51    10.0   .     S
V36     V37    10.0   .     S
V37     V39    10.0   .     S
V37     V38    10.0   .     S
V37     V74    10.0   1_565     S
V38     V74    10.0   1_565     S
V38     V39    10.0   .     S
V38     V56    10.0   .     S
V38     V55    10.0   .     S
V39     V41    10.0   .     S
V39     V40    10.0   .     S
V39     V48    10.0   .     S
V40     V17    10.0   1_655     S
V40     V18    10.0   1_655     S
V40     V48    10.0   .     S
V40     V41    10.0   .     S
V41     V43    10.0   .     S
V41     V42    10.0   .     S
V41     V82    10.0   1_655     S
V42     V82    10.0   1_655     S
V42     V43    10.0   .     S
V42     V78    10.0   .     S
V42     V77    10.0   .     S
V43     V44    10.0   .     S
V44     V25    10.0   1_556     S
V44     V26    10.0   1_556     S
V45     V46    10.0   .     S
V45     V62    10.0   1_655     S
V45     V76    10.0   .     S
V45     V75    10.0   .     S
V46     V62    10.0   1_655     S
V46     V48    10.0   1_545     S
V46     V47    10.0   1_545     S
V47     V55    10.0   .     S
V47     V48    10.0   .     S
V47     V46    10.0   1_565     S
V48     V46    10.0   1_565     S
V48     V55    10.0   .     S
V49     V50    10.0   .     S
V49     V68    10.0   1_565     S
V49     V60    10.0   .     S
V49     V59    10.0   .     S
V50     V68    10.0   1_565     S
V50     V51    10.0   1_554     S
V50     V52    10.0   1_554     S
V51     V50    10.0   1_556     S
V51     V52    10.0   .     S
V51     V91    10.0   .     S
V52     V91    10.0   .     S
V52     V50    10.0   1_556     S
V53     V54    10.0   .     S
V53     V57    10.0   .     S
V53     V58    10.0   .     S
V54     V34    10.0   1_554     S
V54     V33    10.0   1_554     S
V55     V57    10.0   .     S
V55     V56    10.0   .     S
V56     V57    10.0   .     S
V56     V59    10.0   .     S
V56     V60    10.0   .     S
V57     V58    10.0   .     S
V57     V85    10.0   .     S
V58     V85    10.0   .     S
V59     V60    10.0   .     S
V59     V65    10.0   1_565     S
V59     V66    10.0   1_565     S
V60     V86    10.0   .     S
V60     V85    10.0   .     S
V61     V64    10.0   .     S
V61     V62    10.0   .     S
V61     V66    10.0   .     S
V61     V65    10.0   .     S
V62     V46    10.0   1_455     S
V62     V45    10.0   1_455     S
V62     V64    10.0   .     S
V63     V75    10.0   1_455     S
V63     V64    10.0   .     S
V63     V93    10.0   .     S
V63     V84    10.0   .     S
V63     V83    10.0   .     S
V64     V93    10.0   .     S
V64     V75    10.0   1_455     S
V65     V59    10.0   1_545     S
V65     V66    10.0   .     S
V65     V72    10.0   .     S
V65     V71    10.0   .     S
V66     V59    10.0   1_545     S
V66     V67    10.0   .     S
V66     V68    10.0   .     S
V67     V68    10.0   .     S
V67     V96    10.0   .     S
V67     V95    10.0   .     S
V68     V50    10.0   1_545     S
V68     V49    10.0   1_545     S
V69     V80    10.0   .     S
V69     V70    10.0   .     S
V69     V89    10.0   .     S
V69     V88    10.0   .     S
V69     V87    10.0   .     S
V70     V89    10.0   .     S
V70     V80    10.0   .     S
V70     V71    10.0   .     S
V70     V72    10.0   .     S
V71     V72    10.0   .     S
V72     V74    10.0   .     S
V72     V73    10.0   .     S
V73     V74    10.0   .     S
V73     V79    10.0   .     S
V73     V80    10.0   .     S
V74     V38    10.0   1_545     S
V74     V37    10.0   1_545     S
V75     V63    10.0   1_655     S
V75     V64    10.0   1_655     S
V75     V78    10.0   .     S
V75     V76    10.0   .     S
V76     V78    10.0   .     S
V77     V79    10.0   .     S
V77     V78    10.0   .     S
V78     V79    10.0   .     S
V79     V80    10.0   .     S
V81     V82    10.0   .     S
V81     V84    10.0   .     S
V81     V87    10.0   .     S
V81     V88    10.0   .     S
V82     V42    10.0   1_455     S
V82     V41    10.0   1_455     S
V82     V84    10.0   .     S
V83     V86    10.0   .     S
V83     V84    10.0   .     S
V84     V86    10.0   .     S
V85     V88    10.0   .     S
V85     V86    10.0   .     S
V86     V88    10.0   .     S
V87     V88    10.0   .     S
V87     V91    10.0   .     S
V87     V92    10.0   .     S
V89     V90    10.0   .     S
V89     V92    10.0   .     S
V90     V92    10.0   .     S
V90     V95    10.0   1_556     S
V90     V96    10.0   1_556     S
V91     V92    10.0   .     S
V93     V96    10.0   .     S
V93     V94    10.0   .     S
V94     V20    10.0   1_554     S
V94     V19    10.0   1_554     S
V94     V96    10.0   .     S
V95     V90    10.0   1_554     S
V95     V96    10.0   .     S
V96     V90    10.0   1_554     S
