data_fcz
_audit_creation_date              2020-02-02
_audit_creation_method            'Pymatgen'
_symmetry_space_group_name_H-M    'P1'
_symmetry_Int_Tables_number       1
loop_
_symmetry_equiv_pos_as_xyz
  x,y,z
_cell_length_a                    57.3656
_cell_length_b                    57.3656
_cell_length_c                    57.3656
_cell_angle_alpha                 90.0
_cell_angle_beta                 90.0
_cell_angle_gamma                 90.0
loop_
_atom_site_label
_atom_site_type_symbol
_atom_site_fract_x
_atom_site_fract_y
_atom_site_fract_z
V1     V     0.7371   0.6361   0.1216
V2     V     0.0129   0.6284   0.1139
V3     V     0.1361   0.3784   0.2629
V4     V     0.1284   0.3861   0.9871
V5     V     0.1216   0.7629   0.1361
V6     V     0.1139   0.4871   0.1284
V7     V     0.8639   0.3784   0.7629
V8     V     0.8716   0.3861   0.4871
V9     V     0.3716   0.1139   0.5129
V10     V     0.3639   0.1216   0.2371
V11     V     0.3784   0.7371   0.3639
V12     V     0.3861   0.0129   0.3716
V13     V     0.3861   0.9871   0.1284
V14     V     0.3784   0.2629   0.1361
V15     V     0.7629   0.1361   0.1216
V16     V     0.4871   0.1284   0.1139
V17     V     0.6216   0.2371   0.1361
V18     V     0.6139   0.5129   0.1284
V19     V     0.6361   0.3784   0.2371
V20     V     0.6284   0.3861   0.5129
V21     V     0.6284   0.6139   0.9871
V22     V     0.6361   0.6216   0.2629
V23     V     0.6216   0.7629   0.3639
V24     V     0.6139   0.4871   0.3716
V25     V     0.3716   0.8861   0.9871
V26     V     0.3639   0.8784   0.2629
V27     V     0.2629   0.8639   0.1216
V28     V     0.9871   0.8716   0.1139
V29     V     0.2371   0.8639   0.8784
V30     V     0.5129   0.8716   0.8861
V31     V     0.1361   0.8784   0.7371
V32     V     0.1284   0.8861   0.0129
V33     V     0.6216   0.7371   0.8639
V34     V     0.6139   0.0129   0.8716
V35     V     0.5129   0.3716   0.1139
V36     V     0.2371   0.3639   0.1216
V37     V     0.3639   0.3784   0.7371
V38     V     0.3716   0.3861   0.0129
V39     V     0.9871   0.3716   0.8861
V40     V     0.2629   0.3639   0.8784
V41     V     0.1216   0.2629   0.8639
V42     V     0.1139   0.9871   0.8716
V43     V     0.8784   0.2371   0.8639
V44     V     0.8861   0.5129   0.8716
V45     V     0.7371   0.1361   0.8784
V46     V     0.0129   0.1284   0.8861
V47     V     0.3784   0.7629   0.8639
V48     V     0.3861   0.4871   0.8716
V49     V     0.7629   0.6361   0.8784
V50     V     0.4871   0.6284   0.8861
V51     V     0.8639   0.6216   0.7371
V52     V     0.8716   0.6139   0.0129
V53     V     0.1284   0.6139   0.5129
V54     V     0.1361   0.6216   0.2371
V55     V     0.2371   0.6361   0.3784
V56     V     0.5129   0.6284   0.3861
V57     V     0.9871   0.6284   0.6139
V58     V     0.2629   0.6361   0.6216
V59     V     0.3639   0.6216   0.7629
V60     V     0.3716   0.6139   0.4871
V61     V     0.8784   0.7629   0.6361
V62     V     0.8861   0.4871   0.6284
V63     V     0.7371   0.8639   0.6216
V64     V     0.0129   0.8716   0.6139
V65     V     0.1216   0.7371   0.6361
V66     V     0.1139   0.0129   0.6284
V67     V     0.6361   0.8784   0.7629
V68     V     0.6284   0.8861   0.4871
V69     V     0.6361   0.1216   0.7371
V70     V     0.6284   0.1139   0.0129
V71     V     0.7629   0.8639   0.3784
V72     V     0.4871   0.8716   0.3861
V73     V     0.8639   0.8784   0.2371
V74     V     0.8716   0.8861   0.5129
V75     V     0.8639   0.1216   0.2629
V76     V     0.8716   0.1139   0.9871
V77     V     0.8784   0.7371   0.1361
V78     V     0.8861   0.0129   0.1284
V79     V     0.8861   0.9871   0.3716
V80     V     0.8784   0.2629   0.3639
V81     V     0.1139   0.5129   0.3716
V82     V     0.1216   0.2371   0.3639
V83     V     0.7371   0.3639   0.3784
V84     V     0.0129   0.3716   0.3861
V85     V     0.6139   0.9871   0.6284
V86     V     0.6216   0.2629   0.6361
V87     V     0.7629   0.3639   0.6216
V88     V     0.4871   0.3716   0.6139
V89     V     0.2371   0.1361   0.6216
V90     V     0.5129   0.1284   0.6139
V91     V     0.3784   0.2371   0.6361
V92     V     0.3861   0.5129   0.6284
V93     V     0.2629   0.1361   0.3784
V94     V     0.9871   0.1284   0.3861
V95     V     0.1361   0.1216   0.7629
V96     V     0.1284   0.1139   0.4871
loop_
_geom_bond_atom_site_label_1
_geom_bond_atom_site_label_2
_geom_bond_distance
_geom_bond_site_symmetry_2
_ccdc_geom_bond_type
V1     V52    10.0   .     S
V1     V77    10.0   .     S
V1     V21    10.0   1_554     S
V1     V22    10.0   .     S
V1     V18    10.0   .     S
V2     V77    10.0   1_455     S
V2     V52    10.0   1_455     S
V2     V5    10.0   .     S
V2     V6    10.0   .     S
V2     V54    10.0   .     S
V3     V6    10.0   .     S
V3     V36    10.0   .     S
V3     V81    10.0   .     S
V3     V82    10.0   .     S
V3     V84    10.0   .     S
V4     V36    10.0   1_556     S
V4     V6    10.0   1_556     S
V4     V39    10.0   1_455     S
V4     V40    10.0   .     S
V4     V41    10.0   .     S
V5     V54    10.0   .     S
V5     V27    10.0   .     S
V5     V28    10.0   1_455     S
V5     V32    10.0   .     S
V6     V4    10.0   1_554     S
V6     V36    10.0   .     S
V6     V54    10.0   .     S
V7     V62    10.0   .     S
V7     V87    10.0   .     S
V7     V43    10.0   .     S
V7     V44    10.0   .     S
V7     V39    10.0   .     S
V8     V87    10.0   .     S
V8     V62    10.0   .     S
V8     V83    10.0   .     S
V8     V84    10.0   1_655     S
V8     V80    10.0   .     S
V9     V93    10.0   .     S
V9     V12    10.0   .     S
V9     V89    10.0   .     S
V9     V90    10.0   .     S
V9     V91    10.0   .     S
V10     V12    10.0   .     S
V10     V93    10.0   .     S
V10     V13    10.0   1_545     S
V10     V14    10.0   .     S
V10     V16    10.0   .     S
V11     V72    10.0   .     S
V11     V26    10.0   .     S
V11     V55    10.0   .     S
V11     V56    10.0   .     S
V11     V60    10.0   .     S
V12     V93    10.0   .     S
V12     V26    10.0   1_545     S
V12     V72    10.0   1_545     S
V13     V10    10.0   1_565     S
V13     V16    10.0   1_565     S
V13     V25    10.0   1_554     S
V13     V26    10.0   .     S
V13     V27    10.0   .     S
V14     V16    10.0   .     S
V14     V35    10.0   .     S
V14     V36    10.0   .     S
V14     V38    10.0   .     S
V15     V70    10.0   .     S
V15     V17    10.0   .     S
V15     V75    10.0   .     S
V15     V76    10.0   1_554     S
V15     V78    10.0   .     S
V16     V13    10.0   1_545     S
V16     V17    10.0   .     S
V16     V70    10.0   .     S
V17     V70    10.0   .     S
V17     V35    10.0   .     S
V17     V19    10.0   .     S
V18     V19    10.0   .     S
V18     V35    10.0   .     S
V18     V21    10.0   1_554     S
V18     V22    10.0   .     S
V19     V35    10.0   .     S
V19     V24    10.0   .     S
V19     V83    10.0   .     S
V20     V83    10.0   .     S
V20     V24    10.0   .     S
V20     V87    10.0   .     S
V20     V88    10.0   .     S
V20     V86    10.0   .     S
V21     V1    10.0   1_556     S
V21     V18    10.0   1_556     S
V21     V49    10.0   .     S
V21     V50    10.0   .     S
V21     V33    10.0   .     S
V22     V23    10.0   .     S
V22     V24    10.0   .     S
V22     V56    10.0   .     S
V23     V56    10.0   .     S
V23     V71    10.0   .     S
V23     V72    10.0   .     S
V23     V68    10.0   .     S
V24     V83    10.0   .     S
V24     V56    10.0   .     S
V25     V27    10.0   1_556     S
V25     V13    10.0   1_556     S
V25     V29    10.0   .     S
V25     V30    10.0   .     S
V25     V47    10.0   .     S
V26     V12    10.0   1_565     S
V26     V72    10.0   .     S
V26     V27    10.0   .     S
V27     V25    10.0   1_554     S
V27     V32    10.0   .     S
V28     V5    10.0   1_655     S
V28     V32    10.0   1_655     S
V28     V77    10.0   .     S
V28     V78    10.0   1_565     S
V28     V73    10.0   .     S
V29     V47    10.0   .     S
V29     V31    10.0   .     S
V29     V32    10.0   1_556     S
V29     V42    10.0   .     S
V30     V47    10.0   .     S
V30     V33    10.0   .     S
V30     V34    10.0   1_565     S
V30     V67    10.0   .     S
V31     V42    10.0   .     S
V31     V65    10.0   .     S
V31     V66    10.0   1_565     S
V31     V64    10.0   .     S
V32     V28    10.0   1_455     S
V32     V29    10.0   1_554     S
V32     V42    10.0   1_554     S
V33     V67    10.0   .     S
V33     V49    10.0   .     S
V33     V50    10.0   .     S
V34     V67    10.0   1_545     S
V34     V30    10.0   1_545     S
V34     V69    10.0   .     S
V34     V70    10.0   1_556     S
V34     V45    10.0   .     S
V35     V38    10.0   .     S
V36     V4    10.0   1_554     S
V36     V38    10.0   .     S
V37     V48    10.0   .     S
V37     V40    10.0   .     S
V37     V91    10.0   .     S
V37     V92    10.0   .     S
V37     V88    10.0   .     S
V38     V40    10.0   1_554     S
V38     V48    10.0   1_554     S
V39     V41    10.0   1_655     S
V39     V4    10.0   1_655     S
V39     V43    10.0   .     S
V39     V44    10.0   .     S
V40     V38    10.0   1_556     S
V40     V48    10.0   .     S
V40     V41    10.0   .     S
V41     V39    10.0   1_455     S
V41     V46    10.0   .     S
V41     V95    10.0   .     S
V42     V32    10.0   1_556     S
V42     V95    10.0   1_565     S
V42     V46    10.0   1_565     S
V43     V45    10.0   .     S
V43     V46    10.0   1_655     S
V43     V76    10.0   .     S
V44     V51    10.0   .     S
V44     V52    10.0   1_556     S
V44     V49    10.0   .     S
V45     V76    10.0   .     S
V45     V69    10.0   .     S
V45     V70    10.0   1_556     S
V46     V42    10.0   1_545     S
V46     V95    10.0   .     S
V46     V43    10.0   1_455     S
V46     V76    10.0   1_455     S
V47     V50    10.0   .     S
V47     V59    10.0   .     S
V48     V38    10.0   1_556     S
V48     V59    10.0   .     S
V48     V50    10.0   .     S
V49     V51    10.0   .     S
V49     V52    10.0   1_556     S
V50     V59    10.0   .     S
V51     V61    10.0   .     S
V51     V62    10.0   .     S
V51     V57    10.0   .     S
V52     V2    10.0   1_655     S
V52     V77    10.0   .     S
V52     V49    10.0   1_554     S
V52     V44    10.0   1_554     S
V53     V55    10.0   .     S
V53     V81    10.0   .     S
V53     V57    10.0   1_455     S
V53     V58    10.0   .     S
V53     V65    10.0   .     S
V54     V81    10.0   .     S
V54     V55    10.0   .     S
V55     V81    10.0   .     S
V55     V60    10.0   .     S
V56     V60    10.0   .     S
V57     V65    10.0   1_655     S
V57     V53    10.0   1_655     S
V57     V61    10.0   .     S
V57     V62    10.0   .     S
V58     V65    10.0   .     S
V58     V59    10.0   .     S
V58     V60    10.0   .     S
V58     V92    10.0   .     S
V59     V92    10.0   .     S
V60     V92    10.0   .     S
V61     V63    10.0   .     S
V61     V64    10.0   1_655     S
V61     V74    10.0   .     S
V62     V87    10.0   .     S
V63     V74    10.0   .     S
V63     V67    10.0   .     S
V63     V68    10.0   .     S
V63     V85    10.0   .     S
V64     V61    10.0   1_455     S
V64     V74    10.0   1_455     S
V64     V65    10.0   .     S
V64     V66    10.0   1_565     S
V65     V57    10.0   1_455     S
V66     V31    10.0   1_545     S
V66     V64    10.0   1_545     S
V66     V95    10.0   .     S
V66     V96    10.0   .     S
V66     V89    10.0   .     S
V67     V34    10.0   1_565     S
V67     V85    10.0   .     S
V68     V85    10.0   .     S
V68     V71    10.0   .     S
V68     V72    10.0   .     S
V69     V85    10.0   1_545     S
V69     V86    10.0   .     S
V69     V90    10.0   .     S
V70     V45    10.0   1_554     S
V70     V34    10.0   1_554     S
V71     V73    10.0   .     S
V71     V74    10.0   .     S
V71     V79    10.0   .     S
V72     V12    10.0   1_565     S
V73     V79    10.0   .     S
V73     V77    10.0   .     S
V73     V78    10.0   1_565     S
V74     V64    10.0   1_655     S
V74     V79    10.0   .     S
V75     V78    10.0   .     S
V75     V79    10.0   1_545     S
V75     V80    10.0   .     S
V75     V94    10.0   .     S
V76     V46    10.0   1_655     S
V76     V15    10.0   1_556     S
V76     V78    10.0   1_556     S
V77     V2    10.0   1_655     S
V78     V76    10.0   1_554     S
V78     V73    10.0   1_545     S
V78     V28    10.0   1_545     S
V79     V75    10.0   1_565     S
V79     V94    10.0   1_565     S
V80     V94    10.0   .     S
V80     V83    10.0   .     S
V80     V84    10.0   1_655     S
V81     V84    10.0   .     S
V82     V84    10.0   .     S
V82     V93    10.0   .     S
V82     V94    10.0   1_455     S
V82     V96    10.0   .     S
V84     V80    10.0   1_455     S
V84     V8    10.0   1_455     S
V85     V69    10.0   1_565     S
V85     V90    10.0   1_565     S
V86     V90    10.0   .     S
V86     V87    10.0   .     S
V86     V88    10.0   .     S
V88     V91    10.0   .     S
V88     V92    10.0   .     S
V89     V91    10.0   .     S
V89     V95    10.0   .     S
V89     V96    10.0   .     S
V90     V85    10.0   1_545     S
V90     V91    10.0   .     S
V93     V96    10.0   .     S
V94     V79    10.0   1_545     S
V94     V82    10.0   1_655     S
V94     V96    10.0   1_655     S
V95     V42    10.0   1_545     S
V96     V94    10.0   1_455     S
