data_fdc
_audit_creation_date              2020-02-02
_audit_creation_method            'Pymatgen'
_symmetry_space_group_name_H-M    'P1'
_symmetry_Int_Tables_number       1
loop_
_symmetry_equiv_pos_as_xyz
  x,y,z
_cell_length_a                    47.1802
_cell_length_b                    47.1802
_cell_length_c                    47.1802
_cell_angle_alpha                 90.0
_cell_angle_beta                 90.0
_cell_angle_gamma                 90.0
loop_
_atom_site_label
_atom_site_type_symbol
_atom_site_fract_x
_atom_site_fract_y
_atom_site_fract_z
V1     V     0.6594   0.522   0.445
V2     V     0.8406   0.522   0.555
V3     V     0.805   0.728   0.5905
V4     V     0.695   0.728   0.4094
V5     V     0.522   0.445   0.6594
V6     V     0.522   0.555   0.8406
V7     V     0.728   0.5905   0.805
V8     V     0.728   0.4094   0.695
V9     V     0.445   0.6594   0.522
V10     V     0.555   0.8406   0.522
V11     V     0.5905   0.805   0.728
V12     V     0.4094   0.695   0.728
V13     V     0.195   0.772   0.5906
V14     V     0.305   0.772   0.4094
V15     V     0.1594   0.978   0.555
V16     V     0.3406   0.978   0.445
V17     V     0.478   0.055   0.6594
V18     V     0.478   0.945   0.8406
V19     V     0.272   0.0905   0.695
V20     V     0.272   0.9094   0.805
V21     V     0.6594   0.478   0.0551
V22     V     0.8406   0.478   0.945
V23     V     0.695   0.272   0.0905
V24     V     0.805   0.272   0.9094
V25     V     0.1594   0.022   0.945
V26     V     0.3406   0.022   0.055
V27     V     0.305   0.228   0.0905
V28     V     0.195   0.228   0.9094
V29     V     0.445   0.3405   0.978
V30     V     0.555   0.1594   0.978
V31     V     0.5905   0.1949   0.772
V32     V     0.4094   0.305   0.772
V33     V     0.0551   0.6594   0.478
V34     V     0.945   0.8406   0.478
V35     V     0.0905   0.695   0.272
V36     V     0.9094   0.805   0.272
V37     V     0.945   0.1594   0.022
V38     V     0.055   0.3406   0.022
V39     V     0.0905   0.305   0.228
V40     V     0.9094   0.195   0.228
V41     V     0.772   0.5905   0.1949
V42     V     0.772   0.4094   0.3051
V43     V     0.978   0.445   0.3405
V44     V     0.978   0.555   0.1594
V45     V     0.022   0.945   0.1594
V46     V     0.022   0.055   0.3406
V47     V     0.228   0.0905   0.305
V48     V     0.228   0.9094   0.195
V49     V     0.945   0.6594   0.978
V50     V     0.055   0.8406   0.978
V51     V     0.9095   0.695   0.772
V52     V     0.0906   0.805   0.772
V53     V     0.6594   0.978   0.945
V54     V     0.8406   0.978   0.055
V55     V     0.695   0.772   0.9095
V56     V     0.805   0.772   0.0906
V57     V     0.978   0.945   0.6594
V58     V     0.978   0.055   0.8406
V59     V     0.772   0.9095   0.695
V60     V     0.772   0.0906   0.805
V61     V     0.055   0.1594   0.522
V62     V     0.945   0.3406   0.522
V63     V     0.0906   0.195   0.728
V64     V     0.9095   0.3051   0.728
V65     V     0.695   0.228   0.5906
V66     V     0.805   0.228   0.4094
V67     V     0.6594   0.022   0.555
V68     V     0.8406   0.022   0.445
V69     V     0.445   0.1594   0.478
V70     V     0.555   0.3406   0.478
V71     V     0.5906   0.305   0.272
V72     V     0.4094   0.195   0.272
V73     V     0.522   0.055   0.1594
V74     V     0.522   0.945   0.3406
V75     V     0.728   0.9095   0.3051
V76     V     0.728   0.0906   0.1949
V77     V     0.1594   0.522   0.055
V78     V     0.3406   0.522   0.945
V79     V     0.305   0.728   0.9094
V80     V     0.195   0.728   0.0906
V81     V     0.022   0.555   0.6594
V82     V     0.022   0.445   0.8406
V83     V     0.228   0.5906   0.695
V84     V     0.228   0.4094   0.805
V85     V     0.1594   0.478   0.445
V86     V     0.3406   0.478   0.555
V87     V     0.195   0.272   0.4094
V88     V     0.305   0.272   0.5906
V89     V     0.478   0.445   0.1594
V90     V     0.478   0.555   0.3406
V91     V     0.272   0.4094   0.195
V92     V     0.272   0.5906   0.305
V93     V     0.5906   0.695   0.228
V94     V     0.4094   0.805   0.228
V95     V     0.555   0.6594   0.022
V96     V     0.445   0.8406   0.022
loop_
_geom_bond_atom_site_label_1
_geom_bond_atom_site_label_2
_geom_bond_distance
_geom_bond_site_symmetry_2
_ccdc_geom_bond_type
V1     V2    9.999   .     S
V1     V70    10.0   .     S
V1     V4    10.0   .     S
V1     V42    10.0   .     S
V1     V90    10.0   .     S
V2     V62    10.0   .     S
V2     V3    10.0   .     S
V2     V8    10.0   .     S
V2     V81    10.0   1_655     S
V3     V4    9.999   .     S
V3     V59    10.0   .     S
V3     V34    10.0   .     S
V3     V51    10.0   .     S
V4     V75    10.0   .     S
V4     V10    10.0   .     S
V4     V93    10.0   .     S
V5     V6    9.999   .     S
V5     V86    10.0   .     S
V5     V8    10.0   .     S
V5     V32    10.0   .     S
V5     V70    10.0   .     S
V6     V78    10.0   .     S
V6     V7    10.0   .     S
V6     V12    10.0   .     S
V6     V95    10.0   1_556     S
V7     V8    9.999   .     S
V7     V51    10.0   .     S
V7     V22    10.0   .     S
V7     V55    10.0   .     S
V8     V64    10.0   .     S
V8     V65    10.0   .     S
V9     V10    9.999   .     S
V9     V90    10.0   .     S
V9     V12    10.0   .     S
V9     V14    10.0   .     S
V9     V86    10.0   .     S
V10     V74    10.0   .     S
V10     V11    10.0   .     S
V10     V67    10.0   1_565     S
V11     V12    9.999   .     S
V11     V55    10.0   .     S
V11     V18    10.0   .     S
V11     V59    10.0   .     S
V12     V79    10.0   .     S
V12     V83    10.0   .     S
V13     V14    9.999   .     S
V13     V83    10.0   .     S
V13     V15    10.0   .     S
V13     V33    10.0   .     S
V13     V52    10.0   .     S
V14     V92    10.0   .     S
V14     V16    10.0   .     S
V14     V94    10.0   .     S
V15     V16    9.999   .     S
V15     V61    10.0   1_565     S
V15     V19    10.0   1_565     S
V15     V57    10.0   1_455     S
V16     V69    10.0   1_565     S
V16     V47    10.0   1_565     S
V16     V74    10.0   .     S
V17     V18    9.999   1_545     S
V17     V67    10.0   .     S
V17     V19    10.0   .     S
V17     V31    10.0   .     S
V17     V69    10.0   .     S
V18     V17    9.999   1_565     S
V18     V53    10.0   .     S
V18     V20    10.0   .     S
V18     V96    10.0   1_556     S
V19     V20    9.999   1_545     S
V19     V63    10.0   .     S
V19     V15    10.0   1_545     S
V19     V88    10.0   .     S
V20     V19    9.999   1_565     S
V20     V52    10.0   .     S
V20     V25    10.0   1_565     S
V20     V79    10.0   .     S
V21     V22    9.999   1_554     S
V21     V95    10.0   .     S
V21     V23    10.0   .     S
V21     V41    10.0   .     S
V21     V89    10.0   .     S
V22     V21    9.999   1_556     S
V22     V49    10.0   .     S
V22     V24    10.0   .     S
V22     V82    10.0   1_655     S
V23     V24    9.999   1_554     S
V23     V76    10.0   .     S
V23     V30    10.0   1_554     S
V23     V71    10.0   .     S
V24     V23    9.999   1_556     S
V24     V60    10.0   .     S
V24     V37    10.0   1_556     S
V24     V64    10.0   .     S
V25     V26    9.999   1_556     S
V25     V50    10.0   1_545     S
V25     V28    10.0   .     S
V25     V20    10.0   1_545     S
V25     V58    10.0   1_455     S
V26     V25    9.999   1_554     S
V26     V96    10.0   1_545     S
V26     V27    10.0   .     S
V26     V48    10.0   1_545     S
V26     V73    10.0   .     S
V27     V28    9.999   1_554     S
V27     V91    10.0   .     S
V27     V29    10.0   1_554     S
V27     V72    10.0   .     S
V28     V27    9.999   1_556     S
V28     V84    10.0   .     S
V28     V38    10.0   1_556     S
V28     V63    10.0   .     S
V29     V30    9.999   .     S
V29     V89    10.0   1_556     S
V29     V32    10.0   .     S
V29     V27    10.0   1_556     S
V29     V78    10.0   .     S
V30     V73    10.0   1_556     S
V30     V31    10.0   .     S
V30     V23    10.0   1_556     S
V30     V53    10.0   1_545     S
V31     V32    9.999   .     S
V31     V65    10.0   .     S
V31     V60    10.0   .     S
V32     V88    10.0   .     S
V32     V84    10.0   .     S
V33     V34    9.999   1_455     S
V33     V81    10.0   .     S
V33     V35    10.0   .     S
V33     V85    10.0   .     S
V34     V33    9.999   1_655     S
V34     V57    10.0   .     S
V34     V36    10.0   .     S
V34     V68    10.0   1_565     S
V35     V36    9.999   1_455     S
V35     V80    10.0   .     S
V35     V44    10.0   1_455     S
V35     V92    10.0   .     S
V36     V35    9.999   1_655     S
V36     V56    10.0   .     S
V36     V45    10.0   1_655     S
V36     V75    10.0   .     S
V37     V24    10.0   1_554     S
V37     V38    9.999   1_655     S
V37     V58    10.0   1_554     S
V37     V40    10.0   .     S
V37     V54    10.0   1_545     S
V38     V37    9.999   1_455     S
V38     V82    10.0   1_554     S
V38     V39    10.0   .     S
V38     V28    10.0   1_554     S
V38     V77    10.0   .     S
V39     V40    9.999   1_455     S
V39     V87    10.0   .     S
V39     V43    10.0   1_455     S
V39     V91    10.0   .     S
V40     V39    9.999   1_655     S
V40     V66    10.0   .     S
V40     V46    10.0   1_655     S
V40     V76    10.0   .     S
V41     V42    9.999   .     S
V41     V93    10.0   .     S
V41     V44    10.0   .     S
V41     V56    10.0   .     S
V42     V71    10.0   .     S
V42     V43    10.0   .     S
V42     V66    10.0   .     S
V43     V44    9.999   .     S
V43     V85    10.0   1_655     S
V43     V39    10.0   1_655     S
V43     V62    10.0   .     S
V44     V77    10.0   1_655     S
V44     V35    10.0   1_655     S
V44     V49    10.0   1_554     S
V45     V46    9.999   1_565     S
V45     V54    10.0   1_455     S
V45     V48    10.0   .     S
V45     V36    10.0   1_455     S
V45     V50    10.0   1_554     S
V46     V45    9.999   1_545     S
V46     V68    10.0   1_455     S
V46     V47    10.0   .     S
V46     V40    10.0   1_455     S
V46     V61    10.0   .     S
V47     V48    9.999   1_545     S
V47     V72    10.0   .     S
V47     V16    10.0   1_545     S
V47     V87    10.0   .     S
V48     V47    9.999   1_565     S
V48     V94    10.0   .     S
V48     V26    10.0   1_565     S
V48     V80    10.0   .     S
V49     V50    9.999   1_655     S
V49     V44    10.0   1_556     S
V49     V51    10.0   .     S
V49     V56    10.0   1_556     S
V50     V25    10.0   1_565     S
V50     V49    9.999   1_455     S
V50     V45    10.0   1_556     S
V50     V52    10.0   .     S
V50     V80    10.0   1_556     S
V51     V52    9.999   1_655     S
V51     V81    10.0   1_655     S
V52     V51    9.999   1_455     S
V52     V57    10.0   1_455     S
V53     V54    9.999   1_556     S
V53     V30    10.0   1_565     S
V53     V55    10.0   .     S
V53     V60    10.0   1_565     S
V54     V45    10.0   1_655     S
V54     V53    9.999   1_554     S
V54     V37    10.0   1_565     S
V54     V56    10.0   .     S
V54     V76    10.0   1_565     S
V55     V56    9.999   1_556     S
V55     V95    10.0   1_556     S
V56     V55    9.999   1_554     S
V56     V49    10.0   1_554     S
V57     V52    10.0   1_655     S
V57     V58    9.999   1_565     S
V57     V15    10.0   1_655     S
V57     V59    10.0   .     S
V58     V37    10.0   1_556     S
V58     V57    9.999   1_545     S
V58     V25    10.0   1_655     S
V58     V60    10.0   .     S
V58     V63    10.0   1_655     S
V59     V60    9.999   1_565     S
V59     V67    10.0   1_565     S
V60     V59    9.999   1_545     S
V60     V53    10.0   1_545     S
V61     V15    10.0   1_545     S
V61     V62    9.999   1_455     S
V61     V63    10.0   .     S
V61     V87    10.0   .     S
V62     V61    9.999   1_655     S
V62     V64    10.0   .     S
V62     V66    10.0   .     S
V63     V64    9.999   1_455     S
V63     V58    10.0   1_455     S
V64     V63    9.999   1_655     S
V64     V82    10.0   1_655     S
V65     V66    9.999   .     S
V65     V67    10.0   .     S
V65     V70    10.0   .     S
V66     V68    10.0   .     S
V67     V59    10.0   1_545     S
V67     V68    9.999   .     S
V67     V10    10.0   1_545     S
V68     V46    10.0   1_655     S
V68     V34    10.0   1_545     S
V68     V75    10.0   1_545     S
V69     V16    10.0   1_545     S
V69     V70    9.999   .     S
V69     V72    10.0   .     S
V69     V88    10.0   .     S
V70     V71    10.0   .     S
V71     V72    9.999   .     S
V71     V89    10.0   .     S
V72     V73    10.0   .     S
V73     V30    10.0   1_554     S
V73     V74    9.999   1_545     S
V73     V76    10.0   .     S
V74     V73    9.999   1_565     S
V74     V75    10.0   .     S
V74     V94    10.0   .     S
V75     V76    9.999   1_565     S
V75     V68    10.0   1_565     S
V76     V75    9.999   1_545     S
V76     V54    10.0   1_545     S
V77     V44    10.0   1_455     S
V77     V78    9.999   1_554     S
V77     V80    10.0   .     S
V77     V91    10.0   .     S
V78     V77    9.999   1_556     S
V78     V79    10.0   .     S
V78     V84    10.0   .     S
V79     V80    9.999   1_556     S
V79     V96    10.0   1_556     S
V80     V79    9.999   1_554     S
V80     V50    10.0   1_554     S
V81     V51    10.0   1_455     S
V81     V82    9.999   .     S
V81     V2    10.0   1_455     S
V81     V83    10.0   .     S
V82     V38    10.0   1_556     S
V82     V64    10.0   1_455     S
V82     V22    10.0   1_455     S
V82     V84    10.0   .     S
V83     V84    9.999   .     S
V83     V86    10.0   .     S
V85     V43    10.0   1_455     S
V85     V86    9.999   .     S
V85     V87    10.0   .     S
V85     V92    10.0   .     S
V86     V88    10.0   .     S
V87     V88    9.999   .     S
V89     V29    10.0   1_554     S
V89     V90    9.999   .     S
V89     V91    10.0   .     S
V90     V92    10.0   .     S
V90     V93    10.0   .     S
V91     V92    9.999   .     S
V93     V94    9.999   .     S
V93     V95    10.0   .     S
V94     V96    10.0   .     S
V95     V55    10.0   1_554     S
V95     V96    9.999   .     S
V95     V6    10.0   1_554     S
V96     V26    10.0   1_565     S
V96     V79    10.0   1_554     S
V96     V18    10.0   1_554     S
