data_fdua
_audit_creation_date              2020-02-02
_audit_creation_method            'Pymatgen'
_symmetry_space_group_name_H-M    'P1'
_symmetry_Int_Tables_number       1
loop_
_symmetry_equiv_pos_as_xyz
  x,y,z
_cell_length_a                    39.8787
_cell_length_b                    39.8787
_cell_length_c                    73.5325
_cell_angle_alpha                 90.0
_cell_angle_beta                 90.0
_cell_angle_gamma                 90.0
loop_
_atom_site_label
_atom_site_type_symbol
_atom_site_fract_x
_atom_site_fract_y
_atom_site_fract_z
Ce1     Ce     0.3746   0.6254   0.5
Ce2     Ce     0.3746   0.3746   0.5
Ce3     Ce     0.6254   0.6254   0.5
Ce4     Ce     0.6254   0.3746   0.5
V5     V     0.1254   0.6536   0.5
V6     V     0.8746   0.6536   0.5
Er7     Er     0.0   0.8309   0.568
Er8     Er     0.0   0.8309   0.432
V9     V     0.8746   0.3464   0.5
V10     V     0.1254   0.3464   0.5
Er11     Er     0.0   0.1691   0.568
Er12     Er     0.0   0.1691   0.432
Ti13     Ti     0.0   0.1254   0.2981
Ti14     Ti     0.0   0.8746   0.2981
Ti15     Ti     0.1254   0.0   0.2019
Ti16     Ti     0.8746   0.0   0.2019
V17     V     0.6536   0.1254   0.0
V18     V     0.6536   0.8746   0.0
Er19     Er     0.8309   0.0   0.068
Er20     Er     0.8309   0.0   0.932
V21     V     0.3464   0.1254   0.0
V22     V     0.3464   0.8746   0.0
Er23     Er     0.1691   0.0   0.068
Er24     Er     0.1691   0.0   0.932
Ti25     Ti     0.0   0.1254   0.7019
Ti26     Ti     0.0   0.8746   0.7019
Ti27     Ti     0.1254   0.0   0.7981
Ti28     Ti     0.8746   0.0   0.7981
Ce29     Ce     0.6254   0.3746   0.0
Ce30     Ce     0.3746   0.3746   0.0
Ce31     Ce     0.6254   0.6254   0.0
Ce32     Ce     0.3746   0.6254   0.0
loop_
_geom_bond_atom_site_label_1
_geom_bond_atom_site_label_2
_geom_bond_distance
_geom_bond_site_symmetry_2
_ccdc_geom_bond_type
Ce1     Ce2    9.999   .     S
Ce1     V5    10.002   .     S
Ce1     Ce3    10.002   .     S
Ce2     V10    10.002   .     S
Ce2     Ce4    10.002   .     S
Ce3     Ce4    9.999   .     S
Ce3     V6    10.002   .     S
Ce4     V9    10.002   .     S
V5     Er7    9.999   .     S
V5     Er8    9.999   .     S
V5     V6    10.001   1_455     S
V6     Er8    9.999   1_655     S
V6     Er7    9.999   1_655     S
V6     V5    10.001   1_655     S
Er7     V6    9.999   1_455     S
Er7     Er8    10.0   .     S
Er7     Ti26    10.0   .     S
Er8     V6    9.999   1_455     S
Er8     Ti14    10.0   .     S
V9     Er11    9.999   1_655     S
V9     Er12    9.999   1_655     S
V9     V10    10.001   1_655     S
V10     Er12    9.999   .     S
V10     Er11    9.999   .     S
V10     V9    10.001   1_455     S
Er11     V9    9.999   1_455     S
Er11     Er12    10.0   .     S
Er11     Ti25    10.0   .     S
Er12     V9    9.999   1_455     S
Er12     Ti13    10.0   .     S
Ti13     Ti14    9.998   1_545     S
Ti13     Ti15    10.0   .     S
Ti13     Ti16    10.0   1_455     S
Ti14     Ti13    9.998   1_565     S
Ti14     Ti15    10.0   1_565     S
Ti14     Ti16    10.0   1_465     S
Ti15     Ti14    10.0   1_545     S
Ti15     Ti16    9.998   1_455     S
Ti15     Er23    10.0   .     S
Ti16     Ti14    10.0   1_645     S
Ti16     Ti13    10.0   1_655     S
Ti16     Ti15    9.998   1_655     S
Ti16     Er19    10.0   .     S
V17     Er19    9.999   .     S
V17     Er20    9.999   1_554     S
V17     V18    10.001   1_545     S
V17     Ce29    10.002   .     S
V18     Er19    9.999   1_565     S
V18     Er20    9.999   1_564     S
V18     V17    10.001   1_565     S
V18     Ce31    10.002   .     S
Er19     V18    9.999   1_545     S
Er19     Er20    10.0   1_554     S
Er20     V17    9.999   1_556     S
Er20     V18    9.999   1_546     S
Er20     Er19    10.0   1_556     S
Er20     Ti28    10.0   .     S
V21     Er23    9.999   .     S
V21     Er24    9.999   1_554     S
V21     V22    10.001   1_545     S
V21     Ce30    10.002   .     S
V22     Er23    9.999   1_565     S
V22     Er24    9.999   1_564     S
V22     V21    10.001   1_565     S
V22     Ce32    10.002   .     S
Er23     V22    9.999   1_545     S
Er23     Er24    10.0   1_554     S
Er24     V21    9.999   1_556     S
Er24     V22    9.999   1_546     S
Er24     Er23    10.0   1_556     S
Er24     Ti27    10.0   .     S
Ti25     Ti26    9.998   1_545     S
Ti25     Ti28    10.0   1_455     S
Ti25     Ti27    10.0   .     S
Ti26     Ti25    9.998   1_565     S
Ti26     Ti27    10.0   1_565     S
Ti26     Ti28    10.0   1_465     S
Ti27     Ti26    10.0   1_545     S
Ti27     Ti28    9.998   1_455     S
Ti28     Ti25    10.0   1_655     S
Ti28     Ti26    10.0   1_645     S
Ti28     Ti27    9.998   1_655     S
Ce29     Ce30    9.999   .     S
Ce29     Ce31    10.002   .     S
Ce30     Ce32    10.002   .     S
Ce31     Ce32    9.999   .     S
