data_fff
_audit_creation_date              2020-02-02
_audit_creation_method            'Pymatgen'
_symmetry_space_group_name_H-M    'P1'
_symmetry_Int_Tables_number       1
loop_
_symmetry_equiv_pos_as_xyz
  x,y,z
_cell_length_a                    46.1887
_cell_length_b                    46.1887
_cell_length_c                    46.1887
_cell_angle_alpha                 90.0
_cell_angle_beta                 90.0
_cell_angle_gamma                 90.0
loop_
_atom_site_label
_atom_site_type_symbol
_atom_site_fract_x
_atom_site_fract_y
_atom_site_fract_z
Er1     Er     0.875   0.375   0.875
Er2     Er     0.375   0.875   0.875
Er3     Er     0.375   0.875   0.125
Er4     Er     0.625   0.875   0.875
Er5     Er     0.375   0.125   0.875
Er6     Er     0.875   0.625   0.875
Er7     Er     0.125   0.375   0.875
Er8     Er     0.875   0.375   0.125
Er9     Er     0.875   0.875   0.625
Er10     Er     0.125   0.875   0.375
Er11     Er     0.875   0.625   0.125
Er12     Er     0.125   0.625   0.875
Er13     Er     0.625   0.125   0.875
Er14     Er     0.625   0.875   0.125
Er15     Er     0.875   0.125   0.625
Er16     Er     0.125   0.875   0.625
Ti17     Ti     0.5   0.75   0.25
Ti18     Ti     0.5   0.75   0.75
Ti19     Ti     0.75   0.25   0.5
Er20     Er     0.625   0.125   0.125
Er21     Er     0.625   0.375   0.375
Ti22     Ti     0.75   0.5   0.25
Er23     Er     0.625   0.625   0.375
V24     V     0.75   0.75   0.25
Ti25     Ti     0.75   0.75   0.5
Er26     Er     0.625   0.625   0.625
V27     V     0.75   0.75   0.75
Ti28     Ti     0.75   0.5   0.75
Er29     Er     0.625   0.375   0.625
V30     V     0.75   0.25   0.75
Ti31     Ti     0.5   0.25   0.75
Er32     Er     0.125   0.125   0.625
Er33     Er     0.375   0.375   0.625
Ti34     Ti     0.25   0.5   0.75
Er35     Er     0.375   0.625   0.625
V36     V     0.25   0.75   0.75
Ti37     Ti     0.25   0.75   0.5
Er38     Er     0.125   0.625   0.125
Er39     Er     0.375   0.625   0.375
Er40     Er     0.375   0.375   0.375
Ti41     Ti     0.25   0.5   0.25
V42     V     0.25   0.75   0.25
Ti43     Ti     0.0   0.75   0.25
Ti44     Ti     0.25   0.75   0.0
V45     V     0.25   0.25   0.75
Ti46     Ti     0.25   0.0   0.75
Ti47     Ti     0.0   0.25   0.75
Ti48     Ti     0.25   0.25   0.5
V49     V     0.75   0.25   0.25
Ti50     Ti     0.75   0.0   0.25
Ti51     Ti     0.75   0.25   0.0
Ti52     Ti     0.5   0.25   0.25
Er53     Er     0.125   0.375   0.125
Er54     Er     0.375   0.125   0.125
Er55     Er     0.125   0.125   0.375
V56     V     0.25   0.25   0.25
Ti57     Ti     0.0   0.25   0.25
Ti58     Ti     0.25   0.0   0.25
Ti59     Ti     0.25   0.25   0.0
Ti60     Ti     0.0   0.75   0.75
Ti61     Ti     0.75   0.0   0.75
Ti62     Ti     0.75   0.75   0.0
Er63     Er     0.875   0.125   0.375
Er64     Er     0.875   0.875   0.375
loop_
_geom_bond_atom_site_label_1
_geom_bond_atom_site_label_2
_geom_bond_distance
_geom_bond_site_symmetry_2
_ccdc_geom_bond_type
Er1     Ti51    10.0   1_556     S
Er1     Ti47    10.0   1_655     S
Er1     V30    10.0   .     S
Er1     Ti28    10.0   .     S
Er2     Ti46    10.0   1_565     S
Er2     Ti44    10.0   1_556     S
Er2     V36    10.0   .     S
Er2     Ti18    10.0   .     S
Er3     Ti58    10.0   1_565     S
Er3     V42    10.0   .     S
Er3     Ti44    10.0   .     S
Er3     Ti17    10.0   .     S
Er4     Ti62    10.0   1_556     S
Er4     Ti61    10.0   1_565     S
Er4     V27    10.0   .     S
Er4     Ti18    10.0   .     S
Er5     Ti59    10.0   1_556     S
Er5     V45    10.0   .     S
Er5     Ti46    10.0   .     S
Er5     Ti31    10.0   .     S
Er6     Ti60    10.0   1_655     S
Er6     Ti62    10.0   1_556     S
Er6     V27    10.0   .     S
Er6     Ti28    10.0   .     S
Er7     Ti59    10.0   1_556     S
Er7     V45    10.0   .     S
Er7     Ti47    10.0   .     S
Er7     Ti34    10.0   .     S
Er8     Ti57    10.0   1_655     S
Er8     V49    10.0   .     S
Er8     Ti51    10.0   .     S
Er8     Ti22    10.0   .     S
Er9     Ti61    10.0   1_565     S
Er9     Ti60    10.0   1_655     S
Er9     V27    10.0   .     S
Er9     Ti25    10.0   .     S
Er10     Ti58    10.0   1_565     S
Er10     V42    10.0   .     S
Er10     Ti43    10.0   .     S
Er10     Ti37    10.0   .     S
Er11     Ti43    10.0   1_655     S
Er11     V24    10.0   .     S
Er11     Ti62    10.0   .     S
Er11     Ti22    10.0   .     S
Er12     Ti44    10.0   1_556     S
Er12     V36    10.0   .     S
Er12     Ti60    10.0   .     S
Er12     Ti34    10.0   .     S
Er13     Ti51    10.0   1_556     S
Er13     V30    10.0   .     S
Er13     Ti61    10.0   .     S
Er13     Ti31    10.0   .     S
Er14     Ti50    10.0   1_565     S
Er14     V24    10.0   .     S
Er14     Ti62    10.0   .     S
Er14     Ti17    10.0   .     S
Er15     Ti47    10.0   1_655     S
Er15     V30    10.0   .     S
Er15     Ti61    10.0   .     S
Er15     Ti19    10.0   .     S
Er16     Ti46    10.0   1_565     S
Er16     V36    10.0   .     S
Er16     Ti60    10.0   .     S
Er16     Ti37    10.0   .     S
Ti17     Er39    10.0   .     S
Ti17     Er23    10.0   .     S
Ti18     Er26    10.0   .     S
Ti18     Er35    10.0   .     S
Ti19     Er21    10.0   .     S
Ti19     Er29    10.0   .     S
Ti19     Er63    10.0   .     S
Er20     V49    10.0   .     S
Er20     Ti51    10.0   .     S
Er20     Ti50    10.0   .     S
Er20     Ti52    10.0   .     S
Er21     V49    10.0   .     S
Er21     Ti22    10.0   .     S
Er21     Ti52    10.0   .     S
Ti22     Er23    10.0   .     S
Er23     V24    10.0   .     S
Er23     Ti25    10.0   .     S
V24     Er64    10.0   .     S
Ti25     Er26    10.0   .     S
Ti25     Er64    10.0   .     S
Er26     V27    10.0   .     S
Er26     Ti28    10.0   .     S
Ti28     Er29    10.0   .     S
Er29     V30    10.0   .     S
Er29     Ti31    10.0   .     S
Ti31     Er33    10.0   .     S
Er32     V45    10.0   .     S
Er32     Ti46    10.0   .     S
Er32     Ti47    10.0   .     S
Er32     Ti48    10.0   .     S
Er33     V45    10.0   .     S
Er33     Ti34    10.0   .     S
Er33     Ti48    10.0   .     S
Ti34     Er35    10.0   .     S
Er35     V36    10.0   .     S
Er35     Ti37    10.0   .     S
Ti37     Er39    10.0   .     S
Er38     V42    10.0   .     S
Er38     Ti43    10.0   .     S
Er38     Ti44    10.0   .     S
Er38     Ti41    10.0   .     S
Er39     V42    10.0   .     S
Er39     Ti41    10.0   .     S
Er40     V56    10.0   .     S
Er40     Ti41    10.0   .     S
Er40     Ti48    10.0   .     S
Er40     Ti52    10.0   .     S
Ti41     Er53    10.0   .     S
Ti43     Er11    10.0   1_455     S
Ti43     Er64    10.0   1_455     S
Ti44     Er2    10.0   1_554     S
Ti44     Er12    10.0   1_554     S
Ti46     Er2    10.0   1_545     S
Ti46     Er16    10.0   1_545     S
Ti47     Er1    10.0   1_455     S
Ti47     Er15    10.0   1_455     S
Ti48     Er55    10.0   .     S
V49     Er63    10.0   .     S
Ti50     Er14    10.0   1_545     S
Ti50     Er63    10.0   .     S
Ti50     Er64    10.0   1_545     S
Ti51     Er1    10.0   1_554     S
Ti51     Er13    10.0   1_554     S
Ti52     Er54    10.0   .     S
Er53     V56    10.0   .     S
Er53     Ti59    10.0   .     S
Er53     Ti57    10.0   .     S
Er54     V56    10.0   .     S
Er54     Ti58    10.0   .     S
Er54     Ti59    10.0   .     S
Er55     V56    10.0   .     S
Er55     Ti57    10.0   .     S
Er55     Ti58    10.0   .     S
Ti57     Er8    10.0   1_455     S
Ti57     Er63    10.0   1_455     S
Ti58     Er3    10.0   1_545     S
Ti58     Er10    10.0   1_545     S
Ti59     Er5    10.0   1_554     S
Ti59     Er7    10.0   1_554     S
Ti60     Er6    10.0   1_455     S
Ti60     Er9    10.0   1_455     S
Ti61     Er4    10.0   1_545     S
Ti61     Er9    10.0   1_545     S
Ti62     Er4    10.0   1_554     S
Ti62     Er6    10.0   1_554     S
Er63     Ti57    10.0   1_655     S
Er64     Ti43    10.0   1_655     S
Er64     Ti50    10.0   1_565     S
