data_ffg
_audit_creation_date              2020-02-02
_audit_creation_method            'Pymatgen'
_symmetry_space_group_name_H-M    'P1'
_symmetry_Int_Tables_number       1
loop_
_symmetry_equiv_pos_as_xyz
  x,y,z
_cell_length_a                    112.0322
_cell_length_b                    112.0322
_cell_length_c                    112.0322
_cell_angle_alpha                 90.0
_cell_angle_beta                 90.0
_cell_angle_gamma                 90.0
loop_
_atom_site_label
_atom_site_type_symbol
_atom_site_fract_x
_atom_site_fract_y
_atom_site_fract_z
Er1     Er     0.0   0.8798   0.0269
Er2     Er     0.0   0.8798   0.9731
V3     V     0.0   0.7946   0.0
Er4     Er     0.0269   0.6202   0.0
Er5     Er     0.9731   0.6202   0.0
V6     V     0.0   0.7054   0.0
Er7     Er     0.8798   0.0269   0.0
Er8     Er     0.8798   0.9731   0.0
V9     V     0.7946   0.0   0.0
Er10     Er     0.6202   0.0   0.0269
Er11     Er     0.6202   0.0   0.9731
V12     V     0.7054   0.0   0.0
Ti13     Ti     0.549   0.951   0.951
Er14     Er     0.5   0.0269   0.8798
Er15     Er     0.5   0.9731   0.8798
V16     V     0.5   0.0   0.7946
Er17     Er     0.4731   0.0   0.6202
Er18     Er     0.5269   0.0   0.6202
V19     V     0.5   0.0   0.7054
Er20     Er     0.0269   0.0   0.8798
Er21     Er     0.9731   0.0   0.8798
V22     V     0.0   0.0   0.7946
Er23     Er     0.0   0.0269   0.6202
Er24     Er     0.0   0.9731   0.6202
V25     V     0.0   0.0   0.7054
Er26     Er     0.0   0.1202   0.9731
Er27     Er     0.0   0.1202   0.0269
V28     V     0.0   0.2054   0.0
Er29     Er     0.0269   0.3797   0.0
Er30     Er     0.9731   0.3797   0.0
V31     V     0.0   0.2946   0.0
Ti32     Ti     0.951   0.451   0.049
Ti33     Ti     0.951   0.049   0.951
Ti34     Ti     0.951   0.451   0.951
Er35     Er     0.8798   0.0   0.5269
Er36     Er     0.8798   0.0   0.4731
V37     V     0.7946   0.0   0.5
Er38     Er     0.6202   0.0269   0.5
Er39     Er     0.6202   0.9731   0.5
V40     V     0.7054   0.0   0.5
Ti41     Ti     0.549   0.951   0.549
Er42     Er     0.0   0.4731   0.8798
Er43     Er     0.0   0.5269   0.8798
V44     V     0.0   0.5   0.7946
Er45     Er     0.0269   0.5   0.6202
Er46     Er     0.9731   0.5   0.6202
V47     V     0.0   0.5   0.7054
Er48     Er     0.4731   0.5   0.8798
Er49     Er     0.5269   0.5   0.8798
V50     V     0.5   0.5   0.7946
Er51     Er     0.5   0.4731   0.6202
Er52     Er     0.5   0.5269   0.6202
V53     V     0.5   0.5   0.7054
Er54     Er     0.5   0.8798   0.4731
Er55     Er     0.5   0.8798   0.5269
V56     V     0.5   0.7946   0.5
Er57     Er     0.4731   0.6202   0.5
Er58     Er     0.5269   0.6202   0.5
V59     V     0.5   0.7054   0.5
Er60     Er     0.5269   0.8798   0.0
Er61     Er     0.4731   0.8798   0.0
V62     V     0.5   0.7946   0.0
Er63     Er     0.5   0.6202   0.0269
Er64     Er     0.5   0.6202   0.9731
V65     V     0.5   0.7054   0.0
Ti66     Ti     0.549   0.549   0.951
Er67     Er     0.8798   0.5   0.0269
Er68     Er     0.8798   0.5   0.9731
V69     V     0.7946   0.5   0.0
Er70     Er     0.6202   0.5269   0.0
Er71     Er     0.6202   0.4731   0.0
V72     V     0.7054   0.5   0.0
Ti73     Ti     0.549   0.451   0.049
Er74     Er     0.1202   0.5   0.9731
Er75     Er     0.1202   0.5   0.0269
V76     V     0.2054   0.5   0.0
Er77     Er     0.3797   0.4731   0.0
Er78     Er     0.3797   0.5269   0.0
V79     V     0.2946   0.5   0.0
Ti80     Ti     0.049   0.549   0.951
Er81     Er     0.4731   0.1202   0.0
Er82     Er     0.5269   0.1202   0.0
V83     V     0.5   0.2054   0.0
Er84     Er     0.5   0.3797   0.0269
Er85     Er     0.5   0.3797   0.9731
V86     V     0.5   0.2946   0.0
Ti87     Ti     0.451   0.451   0.049
Ti88     Ti     0.549   0.451   0.951
Ti89     Ti     0.451   0.451   0.951
Ti90     Ti     0.451   0.549   0.049
Er91     Er     0.1202   0.0269   0.0
Er92     Er     0.1202   0.9731   0.0
V93     V     0.2054   0.0   0.0
Er94     Er     0.3797   0.0   0.0269
Er95     Er     0.3797   0.0   0.9731
V96     V     0.2946   0.0   0.0
Ti97     Ti     0.451   0.049   0.049
Ti98     Ti     0.451   0.049   0.951
Ti99     Ti     0.451   0.951   0.951
Er100     Er     0.5   0.0269   0.1202
Er101     Er     0.5   0.9731   0.1202
V102     V     0.5   0.0   0.2054
Er103     Er     0.4731   0.0   0.3797
Er104     Er     0.5269   0.0   0.3797
V105     V     0.5   0.0   0.2946
Ti106     Ti     0.549   0.951   0.049
Er107     Er     0.8798   0.4731   0.5
Er108     Er     0.8798   0.5269   0.5
V109     V     0.7946   0.5   0.5
Er110     Er     0.6202   0.5   0.5269
Er111     Er     0.6202   0.5   0.4731
V112     V     0.7054   0.5   0.5
Ti113     Ti     0.549   0.451   0.451
Er114     Er     0.4731   0.5   0.1202
Er115     Er     0.5269   0.5   0.1202
V116     V     0.5   0.5   0.2054
Er117     Er     0.5   0.4731   0.3797
Er118     Er     0.5   0.5269   0.3797
V119     V     0.5   0.5   0.2946
Er120     Er     0.1202   0.4731   0.5
Er121     Er     0.1202   0.5269   0.5
V122     V     0.2054   0.5   0.5
Er123     Er     0.3797   0.5   0.4731
Er124     Er     0.3797   0.5   0.5269
V125     V     0.2946   0.5   0.5
Er126     Er     0.5   0.1202   0.4731
Er127     Er     0.5   0.1202   0.5269
V128     V     0.5   0.2054   0.5
Er129     Er     0.5269   0.3798   0.5
Er130     Er     0.4731   0.3797   0.5
V131     V     0.5   0.2946   0.5
Ti132     Ti     0.451   0.049   0.451
Er133     Er     0.1202   0.0   0.4731
Er134     Er     0.1202   0.0   0.5269
V135     V     0.2054   0.0   0.5
Er136     Er     0.3797   0.0269   0.5
Er137     Er     0.3797   0.9731   0.5
V138     V     0.2946   0.0   0.5
Ti139     Ti     0.049   0.049   0.451
Ti140     Ti     0.451   0.951   0.549
Ti141     Ti     0.451   0.451   0.451
Ti142     Ti     0.451   0.451   0.549
Ti143     Ti     0.451   0.951   0.451
Ti144     Ti     0.451   0.049   0.549
Ti145     Ti     0.451   0.549   0.451
Ti146     Ti     0.451   0.549   0.549
Ti147     Ti     0.549   0.549   0.451
Ti148     Ti     0.549   0.451   0.549
Ti149     Ti     0.549   0.049   0.451
Er150     Er     0.0269   0.1202   0.5
Er151     Er     0.9731   0.1202   0.5
V152     V     0.0   0.2054   0.5
Er153     Er     0.0   0.3797   0.4731
Er154     Er     0.0   0.3797   0.5269
V155     V     0.0   0.2946   0.5
Ti156     Ti     0.951   0.049   0.549
Er157     Er     0.0269   0.8798   0.5
Er158     Er     0.9731   0.8798   0.5
V159     V     0.0   0.7946   0.5
Er160     Er     0.0   0.6202   0.4731
Er161     Er     0.0   0.6202   0.5269
V162     V     0.0   0.7054   0.5
Ti163     Ti     0.049   0.549   0.451
Er164     Er     0.0   0.4731   0.1202
Er165     Er     0.0   0.5269   0.1202
V166     V     0.0   0.5   0.2054
Er167     Er     0.0269   0.5   0.3797
Er168     Er     0.9731   0.5   0.3797
V169     V     0.0   0.5   0.2946
Ti170     Ti     0.049   0.451   0.451
Ti171     Ti     0.951   0.451   0.451
Ti172     Ti     0.951   0.549   0.451
Ti173     Ti     0.951   0.549   0.049
Er174     Er     0.0269   0.0   0.1202
Er175     Er     0.9731   0.0   0.1202
V176     V     0.0   0.0   0.2054
Er177     Er     0.0   0.0269   0.3797
Er178     Er     0.0   0.9731   0.3797
V179     V     0.0   0.0   0.2946
Ti180     Ti     0.049   0.951   0.451
Ti181     Ti     0.951   0.049   0.451
Ti182     Ti     0.951   0.951   0.451
Ti183     Ti     0.049   0.451   0.049
Ti184     Ti     0.451   0.549   0.951
Ti185     Ti     0.451   0.951   0.049
Ti186     Ti     0.049   0.549   0.049
Ti187     Ti     0.549   0.049   0.049
Ti188     Ti     0.951   0.451   0.549
Ti189     Ti     0.049   0.049   0.549
Ti190     Ti     0.549   0.951   0.451
Ti191     Ti     0.049   0.451   0.549
Ti192     Ti     0.049   0.451   0.951
Ti193     Ti     0.549   0.549   0.049
Ti194     Ti     0.951   0.549   0.549
Ti195     Ti     0.049   0.549   0.549
Ti196     Ti     0.549   0.049   0.549
Ti197     Ti     0.049   0.049   0.049
Ti198     Ti     0.951   0.049   0.049
Ti199     Ti     0.549   0.549   0.549
Ti200     Ti     0.049   0.951   0.049
Ti201     Ti     0.049   0.049   0.951
Ti202     Ti     0.049   0.951   0.549
Ti203     Ti     0.549   0.049   0.951
Ti204     Ti     0.049   0.951   0.951
Ti205     Ti     0.951   0.951   0.049
Ti206     Ti     0.951   0.549   0.951
Ti207     Ti     0.951   0.951   0.549
Ti208     Ti     0.951   0.951   0.951
loop_
_geom_bond_atom_site_label_1
_geom_bond_atom_site_label_2
_geom_bond_distance
_geom_bond_site_symmetry_2
_ccdc_geom_bond_type
Er1     Ti205    10.0   1_455     S
Er1     Ti200    10.0   .     S
Er1     V3    10.0   .     S
Er2     V3    10.0   1_556     S
Er2     Ti208    10.0   1_455     S
Er2     Ti204    10.0   .     S
V3     Er2    10.0   1_554     S
V3     V6    10.0   .     S
Er4     Ti80    10.0   1_554     S
Er4     Ti186    10.0   .     S
Er4     V6    10.0   .     S
Er5     V6    10.0   1_655     S
Er5     Ti173    10.0   .     S
Er5     Ti206    10.0   1_554     S
V6     Er5    10.0   1_455     S
Er7     Ti33    10.0   1_554     S
Er7     Ti198    10.0   .     S
Er7     V9    10.0   .     S
Er8     V9    10.0   1_565     S
Er8     Ti208    10.0   1_554     S
Er8     Ti205    10.0   .     S
V9     Er8    10.0   1_545     S
V9     V12    10.0   .     S
Er10     Ti106    10.0   1_545     S
Er10     Ti187    10.0   .     S
Er10     V12    10.0   .     S
Er11     V12    10.0   1_556     S
Er11     Ti203    10.0   .     S
Er11     Ti13    10.0   1_545     S
V12     Er11    10.0   1_554     S
Ti13     Er11    10.0   1_565     S
Ti13     Er15    10.0   .     S
Ti13     Er60    10.0   1_556     S
Er14     Ti203    10.0   .     S
Er14     Ti98    10.0   .     S
Er14     V16    10.0   .     S
Er15     V16    10.0   1_565     S
Er15     Ti99    10.0   .     S
V16     Er15    10.0   1_545     S
V16     V19    10.0   .     S
Er17     Ti140    10.0   1_545     S
Er17     Ti144    10.0   .     S
Er17     V19    10.0   .     S
Er18     Ti41    10.0   1_545     S
Er18     Ti196    10.0   .     S
Er18     V19    10.0   .     S
Er20     Ti204    10.0   1_545     S
Er20     Ti201    10.0   .     S
Er20     V22    10.0   .     S
Er21     V22    10.0   1_655     S
Er21     Ti33    10.0   .     S
Er21     Ti208    10.0   1_545     S
V22     Er21    10.0   1_455     S
V22     V25    10.0   .     S
Er23     Ti156    10.0   1_455     S
Er23     Ti189    10.0   .     S
Er23     V25    10.0   .     S
Er24     V25    10.0   1_565     S
Er24     Ti207    10.0   1_455     S
Er24     Ti202    10.0   .     S
V25     Er24    10.0   1_545     S
Er26     Ti201    10.0   .     S
Er26     Ti33    10.0   1_455     S
Er26     V28    10.0   1_556     S
Er27     Ti198    10.0   1_455     S
Er27     Ti197    10.0   .     S
Er27     V28    10.0   .     S
V28     Er26    10.0   1_554     S
V28     V31    10.0   .     S
Er29     Ti183    10.0   .     S
Er29     Ti192    10.0   1_554     S
Er29     V31    10.0   .     S
Er30     V31    10.0   1_655     S
Er30     Ti34    10.0   1_554     S
Er30     Ti32    10.0   .     S
V31     Er30    10.0   1_455     S
Ti32     Er67    10.0   .     S
Ti32     Er164    10.0   1_655     S
Ti33     Er7    10.0   1_556     S
Ti33     Er26    10.0   1_655     S
Ti34     Er30    10.0   1_556     S
Ti34     Er42    10.0   1_655     S
Ti34     Er68    10.0   .     S
Er35     Ti207    10.0   1_545     S
Er35     Ti156    10.0   .     S
Er35     V37    10.0   .     S
Er36     V37    10.0   .     S
Er36     Ti182    10.0   1_545     S
Er36     Ti181    10.0   .     S
V37     V40    10.0   .     S
Er38     Ti149    10.0   .     S
Er38     Ti196    10.0   .     S
Er38     V40    10.0   .     S
Er39     V40    10.0   1_565     S
Er39     Ti190    10.0   .     S
Er39     Ti41    10.0   .     S
V40     Er39    10.0   1_545     S
Ti41     Er18    10.0   1_565     S
Ti41     Er55    10.0   .     S
Er42     Ti34    10.0   1_455     S
Er42     Ti192    10.0   .     S
Er42     V44    10.0   .     S
Er43     V44    10.0   .     S
Er43     Ti80    10.0   .     S
Er43     Ti206    10.0   1_455     S
V44     V47    10.0   .     S
Er45     Ti195    10.0   .     S
Er45     Ti191    10.0   .     S
Er45     V47    10.0   .     S
Er46     V47    10.0   1_655     S
Er46     Ti188    10.0   .     S
Er46     Ti194    10.0   .     S
V47     Er46    10.0   1_455     S
Er48     Ti184    10.0   .     S
Er48     Ti89    10.0   .     S
Er48     V50    10.0   .     S
Er49     V50    10.0   .     S
Er49     Ti66    10.0   .     S
Er49     Ti88    10.0   .     S
V50     V53    10.0   .     S
Er51     Ti142    10.0   .     S
Er51     Ti148    10.0   .     S
Er51     V53    10.0   .     S
Er52     Ti146    10.0   .     S
Er52     Ti199    10.0   .     S
Er52     V53    10.0   .     S
Er54     Ti190    10.0   .     S
Er54     Ti143    10.0   .     S
Er54     V56    10.0   .     S
Er55     V56    10.0   .     S
Er55     Ti140    10.0   .     S
V56     V59    10.0   .     S
Er57     Ti146    10.0   .     S
Er57     Ti145    10.0   .     S
Er57     V59    10.0   .     S
Er58     Ti199    10.0   .     S
Er58     Ti147    10.0   .     S
Er58     V59    10.0   .     S
Er60     Ti106    10.0   .     S
Er60     Ti13    10.0   1_554     S
Er60     V62    10.0   .     S
Er61     V62    10.0   .     S
Er61     Ti99    10.0   1_554     S
Er61     Ti185    10.0   .     S
V62     V65    10.0   .     S
Er63     Ti193    10.0   .     S
Er63     Ti90    10.0   .     S
Er63     V65    10.0   .     S
Er64     V65    10.0   1_556     S
Er64     Ti184    10.0   .     S
Er64     Ti66    10.0   .     S
V65     Er64    10.0   1_554     S
Ti66     Er70    10.0   1_556     S
Er67     Ti173    10.0   .     S
Er67     V69    10.0   .     S
Er68     V69    10.0   1_556     S
Er68     Ti206    10.0   .     S
V69     Er68    10.0   1_554     S
V69     V72    10.0   .     S
Er70     Ti66    10.0   1_554     S
Er70     Ti193    10.0   .     S
Er70     V72    10.0   .     S
Er71     V72    10.0   .     S
Er71     Ti88    10.0   1_554     S
Er71     Ti73    10.0   .     S
Ti73     Er84    10.0   .     S
Ti73     Er115    10.0   .     S
Er74     Ti192    10.0   .     S
Er74     Ti80    10.0   .     S
Er74     V76    10.0   1_556     S
Er75     Ti183    10.0   .     S
Er75     Ti186    10.0   .     S
Er75     V76    10.0   .     S
V76     Er74    10.0   1_554     S
V76     V79    10.0   .     S
Er77     Ti89    10.0   1_554     S
Er77     Ti87    10.0   .     S
Er77     V79    10.0   .     S
Er78     Ti184    10.0   1_554     S
Er78     Ti90    10.0   .     S
Er78     V79    10.0   .     S
Ti80     Er4    10.0   1_556     S
Er81     Ti98    10.0   1_554     S
Er81     Ti97    10.0   .     S
Er81     V83    10.0   .     S
Er82     Ti203    10.0   1_554     S
Er82     Ti187    10.0   .     S
Er82     V83    10.0   .     S
V83     V86    10.0   .     S
Er84     Ti87    10.0   .     S
Er84     V86    10.0   .     S
Er85     V86    10.0   1_556     S
Er85     Ti88    10.0   .     S
Er85     Ti89    10.0   .     S
V86     Er85    10.0   1_554     S
Ti87     Er114    10.0   .     S
Ti88     Er71    10.0   1_556     S
Ti89     Er77    10.0   1_556     S
Ti90     Er114    10.0   .     S
Er91     Ti201    10.0   1_554     S
Er91     Ti197    10.0   .     S
Er91     V93    10.0   .     S
Er92     Ti204    10.0   1_554     S
Er92     Ti200    10.0   .     S
Er92     V93    10.0   1_565     S
V93     Er92    10.0   1_545     S
V93     V96    10.0   .     S
Er94     Ti185    10.0   1_545     S
Er94     Ti97    10.0   .     S
Er94     V96    10.0   .     S
Er95     V96    10.0   1_556     S
Er95     Ti99    10.0   1_545     S
Er95     Ti98    10.0   .     S
V96     Er95    10.0   1_554     S
Ti97     Er100    10.0   .     S
Ti98     Er81    10.0   1_556     S
Ti99     Er61    10.0   1_556     S
Ti99     Er95    10.0   1_565     S
Er100     Ti187    10.0   .     S
Er100     V102    10.0   .     S
Er101     Ti185    10.0   .     S
Er101     Ti106    10.0   .     S
Er101     V102    10.0   1_565     S
V102     Er101    10.0   1_545     S
V102     V105    10.0   .     S
Er103     Ti132    10.0   .     S
Er103     Ti143    10.0   1_545     S
Er103     V105    10.0   .     S
Er104     Ti190    10.0   1_545     S
Er104     Ti149    10.0   .     S
Er104     V105    10.0   .     S
Ti106     Er10    10.0   1_565     S
Er107     Ti188    10.0   .     S
Er107     Ti171    10.0   .     S
Er107     V109    10.0   .     S
Er108     V109    10.0   .     S
Er108     Ti194    10.0   .     S
Er108     Ti172    10.0   .     S
V109     V112    10.0   .     S
Er110     Ti148    10.0   .     S
Er110     Ti199    10.0   .     S
Er110     V112    10.0   .     S
Er111     V112    10.0   .     S
Er111     Ti147    10.0   .     S
Er111     Ti113    10.0   .     S
Ti113     Er117    10.0   .     S
Ti113     Er129    10.0   .     S
Er114     V116    10.0   .     S
Er115     Ti193    10.0   .     S
Er115     V116    10.0   .     S
V116     V119    10.0   .     S
Er117     Ti141    10.0   .     S
Er117     V119    10.0   .     S
Er118     Ti147    10.0   .     S
Er118     Ti145    10.0   .     S
Er118     V119    10.0   .     S
Er120     Ti170    10.0   .     S
Er120     Ti191    10.0   .     S
Er120     V122    10.0   .     S
Er121     Ti195    10.0   .     S
Er121     Ti163    10.0   .     S
Er121     V122    10.0   .     S
V122     V125    10.0   .     S
Er123     Ti141    10.0   .     S
Er123     Ti145    10.0   .     S
Er123     V125    10.0   .     S
Er124     Ti142    10.0   .     S
Er124     Ti146    10.0   .     S
Er124     V125    10.0   .     S
Er126     Ti149    10.0   .     S
Er126     Ti132    10.0   .     S
Er126     V128    10.0   .     S
Er127     Ti196    10.0   .     S
Er127     Ti144    10.0   .     S
Er127     V128    10.0   .     S
V128     V131    10.0   .     S
Er129     Ti148    10.0   .     S
Er129     V131    10.0   .     S
Er130     V131    10.0   .     S
Er130     Ti141    10.0   .     S
Er130     Ti142    10.0   .     S
Ti132     Er136    10.0   .     S
Er133     Ti180    10.0   1_545     S
Er133     Ti139    10.0   .     S
Er133     V135    10.0   .     S
Er134     Ti202    10.0   1_545     S
Er134     Ti189    10.0   .     S
Er134     V135    10.0   .     S
V135     V138    10.0   .     S
Er136     Ti144    10.0   .     S
Er136     V138    10.0   .     S
Er137     V138    10.0   1_565     S
Er137     Ti140    10.0   .     S
Er137     Ti143    10.0   .     S
V138     Er137    10.0   1_545     S
Ti139     Er150    10.0   .     S
Ti139     Er177    10.0   .     S
Ti140     Er17    10.0   1_565     S
Ti143     Er103    10.0   1_565     S
Er150     Ti189    10.0   .     S
Er150     V152    10.0   .     S
Er151     Ti181    10.0   .     S
Er151     Ti156    10.0   .     S
Er151     V152    10.0   1_655     S
V152     Er151    10.0   1_455     S
V152     V155    10.0   .     S
Er153     Ti171    10.0   1_455     S
Er153     Ti170    10.0   .     S
Er153     V155    10.0   .     S
Er154     Ti191    10.0   .     S
Er154     Ti188    10.0   1_455     S
Er154     V155    10.0   .     S
Ti156     Er23    10.0   1_655     S
Er157     Ti202    10.0   .     S
Er157     Ti180    10.0   .     S
Er157     V159    10.0   .     S
Er158     V159    10.0   1_655     S
Er158     Ti207    10.0   .     S
Er158     Ti182    10.0   .     S
V159     Er158    10.0   1_455     S
V159     V162    10.0   .     S
Er160     Ti172    10.0   1_455     S
Er160     Ti163    10.0   .     S
Er160     V162    10.0   .     S
Er161     Ti194    10.0   1_455     S
Er161     Ti195    10.0   .     S
Er161     V162    10.0   .     S
Ti163     Er167    10.0   .     S
Er164     Ti32    10.0   1_455     S
Er164     Ti183    10.0   .     S
Er164     V166    10.0   .     S
Er165     Ti173    10.0   1_455     S
Er165     Ti186    10.0   .     S
Er165     V166    10.0   .     S
V166     V169    10.0   .     S
Er167     Ti170    10.0   .     S
Er167     V169    10.0   .     S
Er168     V169    10.0   1_655     S
Er168     Ti171    10.0   .     S
Er168     Ti172    10.0   .     S
V169     Er168    10.0   1_455     S
Ti171     Er153    10.0   1_655     S
Ti172     Er160    10.0   1_655     S
Ti173     Er165    10.0   1_655     S
Er174     Ti200    10.0   1_545     S
Er174     Ti197    10.0   .     S
Er174     V176    10.0   .     S
Er175     Ti205    10.0   1_545     S
Er175     Ti198    10.0   .     S
Er175     V176    10.0   1_655     S
V176     Er175    10.0   1_455     S
V176     V179    10.0   .     S
Er177     Ti181    10.0   1_455     S
Er177     V179    10.0   .     S
Er178     V179    10.0   1_565     S
Er178     Ti182    10.0   1_455     S
Er178     Ti180    10.0   .     S
V179     Er178    10.0   1_545     S
Ti180     Er133    10.0   1_565     S
Ti181     Er177    10.0   1_655     S
Ti182     Er36    10.0   1_565     S
Ti182     Er178    10.0   1_655     S
Ti184     Er78    10.0   1_556     S
Ti185     Er94    10.0   1_565     S
Ti188     Er154    10.0   1_655     S
Ti190     Er104    10.0   1_565     S
Ti192     Er29    10.0   1_556     S
Ti194     Er161    10.0   1_655     S
Ti198     Er27    10.0   1_655     S
Ti200     Er174    10.0   1_565     S
Ti201     Er91    10.0   1_556     S
Ti202     Er134    10.0   1_565     S
Ti203     Er82    10.0   1_556     S
Ti204     Er20    10.0   1_565     S
Ti204     Er92    10.0   1_556     S
Ti205     Er1    10.0   1_655     S
Ti205     Er175    10.0   1_565     S
Ti206     Er5    10.0   1_556     S
Ti206     Er43    10.0   1_655     S
Ti207     Er24    10.0   1_655     S
Ti207     Er35    10.0   1_565     S
Ti208     Er2    10.0   1_655     S
Ti208     Er8    10.0   1_556     S
Ti208     Er21    10.0   1_565     S
