data_ffi
_audit_creation_date              2020-02-02
_audit_creation_method            'Pymatgen'
_symmetry_space_group_name_H-M    'P1'
_symmetry_Int_Tables_number       1
loop_
_symmetry_equiv_pos_as_xyz
  x,y,z
_cell_length_a                    56.0162
_cell_length_b                    56.0162
_cell_length_c                    56.0162
_cell_angle_alpha                 90.0
_cell_angle_beta                 90.0
_cell_angle_gamma                 90.0
loop_
_atom_site_label
_atom_site_type_symbol
_atom_site_fract_x
_atom_site_fract_y
_atom_site_fract_z
Er1     Er     0.5   0.5   0.0893
Er2     Er     0.5   0.5   0.9107
Er3     Er     0.5   0.0893   0.5
Er4     Er     0.5   0.9107   0.5
Er5     Er     0.0893   0.5   0.5
Er6     Er     0.9107   0.5   0.5
Ti7     Ti     0.5978   0.5978   0.5978
V8     V     0.5   0.4468   0.7404
V9     V     0.5   0.5532   0.7404
V10     V     0.4468   0.7404   0.5
V11     V     0.5532   0.7404   0.5
V12     V     0.7404   0.5   0.4468
V13     V     0.7404   0.5   0.5532
Ti14     Ti     0.5978   0.4022   0.4022
Ti15     Ti     0.4022   0.5978   0.4022
Ti16     Ti     0.4022   0.4022   0.5978
Ti17     Ti     0.5978   0.5978   0.4022
Ti18     Ti     0.5978   0.4022   0.5978
Ti19     Ti     0.4022   0.5978   0.5978
V20     V     0.5   0.4468   0.2596
V21     V     0.5   0.5532   0.2596
V22     V     0.4468   0.2596   0.5
V23     V     0.5532   0.2596   0.5
V24     V     0.2596   0.5   0.4468
V25     V     0.2596   0.5   0.5532
Ti26     Ti     0.4022   0.4022   0.4022
loop_
_geom_bond_atom_site_label_1
_geom_bond_atom_site_label_2
_geom_bond_distance
_geom_bond_site_symmetry_2
_ccdc_geom_bond_type
Er1     Er2    10.0   1_554     S
Er1     V20    10.0   .     S
Er1     V21    10.0   .     S
Er2     Er1    10.0   1_556     S
Er2     V9    10.0   .     S
Er2     V8    10.0   .     S
Er3     Er4    10.0   1_545     S
Er3     V22    10.0   .     S
Er3     V23    10.0   .     S
Er4     Er3    10.0   1_565     S
Er4     V11    10.0   .     S
Er4     V10    10.0   .     S
Er5     Er6    10.0   1_455     S
Er5     V24    10.0   .     S
Er5     V25    10.0   .     S
Er6     Er5    10.0   1_655     S
Er6     V12    10.0   .     S
Er6     V13    10.0   .     S
Ti7     V13    10.0   .     S
Ti7     V11    10.0   .     S
Ti7     V9    10.0   .     S
V8     Ti16    10.0   .     S
V8     Ti18    10.0   .     S
V9     Ti19    10.0   .     S
V10     Ti15    10.0   .     S
V10     Ti19    10.0   .     S
V11     Ti17    10.0   .     S
V12     Ti14    10.0   .     S
V12     Ti17    10.0   .     S
V13     Ti18    10.0   .     S
Ti14     V20    10.0   .     S
Ti14     V23    10.0   .     S
Ti15     V24    10.0   .     S
Ti15     V21    10.0   .     S
Ti16     V22    10.0   .     S
Ti16     V25    10.0   .     S
Ti17     V21    10.0   .     S
Ti18     V23    10.0   .     S
Ti19     V25    10.0   .     S
V20     Ti26    10.0   .     S
V22     Ti26    10.0   .     S
V24     Ti26    10.0   .     S
