data_ffia
_audit_creation_date              2020-02-02
_audit_creation_method            'Pymatgen'
_symmetry_space_group_name_H-M    'P1'
_symmetry_Int_Tables_number       1
loop_
_symmetry_equiv_pos_as_xyz
  x,y,z
_cell_length_a                    115.9326
_cell_length_b                    115.9326
_cell_length_c                    115.9326
_cell_angle_alpha                 90.0
_cell_angle_beta                 90.0
_cell_angle_gamma                 90.0
loop_
_atom_site_label
_atom_site_type_symbol
_atom_site_fract_x
_atom_site_fract_y
_atom_site_fract_z
V1     V     0.608   0.5913   0.6589
V2     V     0.6589   0.608   0.5913
V3     V     0.5913   0.6589   0.608
V4     V     0.392   0.4087   0.3411
V5     V     0.3411   0.392   0.4087
V6     V     0.4087   0.3411   0.392
V7     V     0.6589   0.392   0.5913
V8     V     0.608   0.4087   0.6589
V9     V     0.5913   0.3411   0.608
V10     V     0.5913   0.3411   0.392
V11     V     0.608   0.4087   0.3411
V12     V     0.6589   0.392   0.4087
Ti13     Ti     0.5   0.7991   0.5663
Ce14     Ce     0.5   0.8822   0.5431
Er15     Er     0.4569   0.7276   0.5878
Er16     Er     0.5431   0.7276   0.5878
S17     S     0.5   0.9569   0.5
Ti18     Ti     0.5   0.7991   0.4337
Ce19     Ce     0.5   0.8822   0.4569
Er20     Er     0.5431   0.7276   0.4122
Er21     Er     0.4569   0.7276   0.4122
Ti22     Ti     0.5   0.2009   0.5663
Ce23     Ce     0.5   0.1178   0.5431
Er24     Er     0.5431   0.2724   0.5878
Er25     Er     0.4569   0.2724   0.5878
S26     S     0.5   0.0431   0.5
Ti27     Ti     0.5   0.2009   0.4337
Ce28     Ce     0.5   0.1178   0.4569
Er29     Er     0.4569   0.2724   0.4122
Er30     Er     0.5431   0.2724   0.4122
V31     V     0.392   0.5913   0.6589
V32     V     0.3411   0.608   0.5913
V33     V     0.4087   0.6589   0.608
V34     V     0.3411   0.392   0.5913
V35     V     0.392   0.4087   0.6589
V36     V     0.4087   0.3411   0.608
Ti37     Ti     0.2009   0.5663   0.5
Ce38     Ce     0.1178   0.5431   0.5
Er39     Er     0.2724   0.5878   0.5431
Er40     Er     0.2724   0.5878   0.4569
S41     S     0.0431   0.5   0.5
Ti42     Ti     0.2009   0.4337   0.5
Ce43     Ce     0.1178   0.4569   0.5
Er44     Er     0.2724   0.4122   0.4569
Er45     Er     0.2724   0.4122   0.5431
Ti46     Ti     0.7991   0.4337   0.5
Ce47     Ce     0.8822   0.4569   0.5
Er48     Er     0.7276   0.4122   0.5431
Er49     Er     0.7276   0.4122   0.4569
Ti50     Ti     0.7991   0.5663   0.5
Ce51     Ce     0.8822   0.5431   0.5
Er52     Er     0.7276   0.5878   0.4569
Er53     Er     0.7276   0.5878   0.5431
S54     S     0.9569   0.5   0.5
V55     V     0.5913   0.6589   0.392
V56     V     0.608   0.5913   0.3411
V57     V     0.6589   0.608   0.4087
V58     V     0.392   0.5913   0.3411
V59     V     0.3411   0.608   0.4087
V60     V     0.4087   0.6589   0.392
Ti61     Ti     0.5663   0.5   0.7991
Ce62     Ce     0.5431   0.5   0.8822
Er63     Er     0.5878   0.4569   0.7276
Er64     Er     0.5878   0.5431   0.7276
S65     S     0.5   0.5   0.9569
Ti66     Ti     0.4337   0.5   0.7991
Ce67     Ce     0.4569   0.5   0.8822
Er68     Er     0.4122   0.5431   0.7276
Er69     Er     0.4122   0.4569   0.7276
Ti70     Ti     0.5663   0.5   0.2009
Ce71     Ce     0.5431   0.5   0.1178
Er72     Er     0.5878   0.5431   0.2724
Er73     Er     0.5878   0.4569   0.2724
S74     S     0.5   0.5   0.0431
Ti75     Ti     0.4337   0.5   0.2009
Ce76     Ce     0.4569   0.5   0.1178
Er77     Er     0.4122   0.4569   0.2724
Er78     Er     0.4122   0.5431   0.2724
loop_
_geom_bond_atom_site_label_1
_geom_bond_atom_site_label_2
_geom_bond_distance
_geom_bond_site_symmetry_2
_ccdc_geom_bond_type
V1     Er64    10.0   .     S
V1     V2    10.0   .     S
V1     V3    10.0   .     S
V2     Er53    10.0   .     S
V2     V3    10.0   .     S
V3     Er16    10.0   .     S
V4     Er77    10.0   .     S
V4     V5    10.0   .     S
V4     V6    10.0   .     S
V5     Er44    10.0   .     S
V5     V6    10.0   .     S
V6     Er29    10.0   .     S
V7     Er48    10.0   .     S
V7     V9    10.0   .     S
V7     V8    10.0   .     S
V8     Er63    10.0   .     S
V8     V9    10.0   .     S
V9     Er24    10.0   .     S
V10     Er30    10.0   .     S
V10     V11    10.0   .     S
V10     V12    10.0   .     S
V11     Er73    10.0   .     S
V11     V12    10.0   .     S
V12     Er49    10.0   .     S
Ti13     Ce14    10.0   .     S
Ti13     Er15    10.0   .     S
Ti13     Er16    10.0   .     S
Ce14     S17    10.0   .     S
Ce14     Ce19    10.0   .     S
Er15     Er16    10.0   .     S
Er15     V33    10.0   .     S
S17     Ce19    10.0   .     S
S17     S26    10.0   1_565     S
Ti18     Ce19    10.0   .     S
Ti18     Er20    10.0   .     S
Ti18     Er21    10.0   .     S
Er20     Er21    10.0   .     S
Er20     V55    10.0   .     S
Er21     V60    10.0   .     S
Ti22     Ce23    10.0   .     S
Ti22     Er24    10.0   .     S
Ti22     Er25    10.0   .     S
Ce23     S26    10.0   .     S
Ce23     Ce28    10.0   .     S
Er24     Er25    10.0   .     S
Er25     V36    10.0   .     S
S26     S17    10.0   1_545     S
S26     Ce28    10.0   .     S
Ti27     Ce28    10.0   .     S
Ti27     Er29    10.0   .     S
Ti27     Er30    10.0   .     S
Er29     Er30    10.0   .     S
V31     Er68    10.0   .     S
V31     V32    10.0   .     S
V31     V33    10.0   .     S
V32     Er39    10.0   .     S
V32     V33    10.0   .     S
V34     Er45    10.0   .     S
V34     V36    10.0   .     S
V34     V35    10.0   .     S
V35     Er69    10.0   .     S
V35     V36    10.0   .     S
Ti37     Ce38    10.0   .     S
Ti37     Er39    10.0   .     S
Ti37     Er40    10.0   .     S
Ce38     S41    10.0   .     S
Ce38     Ce43    10.0   .     S
Er39     Er40    10.0   .     S
Er40     V59    10.0   .     S
S41     Ce43    10.0   .     S
S41     S54    10.0   1_455     S
Ti42     Ce43    10.0   .     S
Ti42     Er44    10.0   .     S
Ti42     Er45    10.0   .     S
Er44     Er45    10.0   .     S
Ti46     Ce47    10.0   .     S
Ti46     Er48    10.0   .     S
Ti46     Er49    10.0   .     S
Ce47     S54    10.0   .     S
Ce47     Ce51    10.0   .     S
Er48     Er49    10.0   .     S
Ti50     Ce51    10.0   .     S
Ti50     Er52    10.0   .     S
Ti50     Er53    10.0   .     S
Ce51     S54    10.0   .     S
Er52     Er53    10.0   .     S
Er52     V57    10.0   .     S
S54     S41    10.0   1_655     S
V55     V56    10.0   .     S
V55     V57    10.0   .     S
V56     Er72    10.0   .     S
V56     V57    10.0   .     S
V58     Er78    10.0   .     S
V58     V59    10.0   .     S
V58     V60    10.0   .     S
V59     V60    10.0   .     S
Ti61     Ce62    10.0   .     S
Ti61     Er63    10.0   .     S
Ti61     Er64    10.0   .     S
Ce62     S65    10.0   .     S
Ce62     Ce67    10.0   .     S
Er63     Er64    10.0   .     S
S65     Ce67    10.0   .     S
S65     S74    10.0   1_556     S
Ti66     Ce67    10.0   .     S
Ti66     Er68    10.0   .     S
Ti66     Er69    10.0   .     S
Er68     Er69    10.0   .     S
Ti70     Ce71    10.0   .     S
Ti70     Er72    10.0   .     S
Ti70     Er73    10.0   .     S
Ce71     S74    10.0   .     S
Ce71     Ce76    10.0   .     S
Er72     Er73    10.0   .     S
S74     S65    10.0   1_554     S
S74     Ce76    10.0   .     S
Ti75     Ce76    10.0   .     S
Ti75     Er77    10.0   .     S
Ti75     Er78    10.0   .     S
Er77     Er78    10.0   .     S
