data_ffja
_audit_creation_date              2020-02-02
_audit_creation_method            'Pymatgen'
_symmetry_space_group_name_H-M    'P1'
_symmetry_Int_Tables_number       1
loop_
_symmetry_equiv_pos_as_xyz
  x,y,z
_cell_length_a                    90.2873
_cell_length_b                    90.2873
_cell_length_c                    90.2873
_cell_angle_alpha                 90.0
_cell_angle_beta                 90.0
_cell_angle_gamma                 90.0
loop_
_atom_site_label
_atom_site_type_symbol
_atom_site_fract_x
_atom_site_fract_y
_atom_site_fract_z
Er1     Er     0.0027   0.6528   0.0
Er2     Er     0.9973   0.6528   0.0
V3     V     0.9446   0.5554   0.0
V4     V     0.0554   0.5554   0.0
Er5     Er     0.0027   0.3472   0.0
Er6     Er     0.9973   0.3472   0.0
V7     V     0.9446   0.4446   0.0
V8     V     0.0554   0.4446   0.0
Er9     Er     0.6528   0.0   0.0027
Er10     Er     0.6528   0.0   0.9973
V11     V     0.5554   0.0   0.9446
V12     V     0.5554   0.0   0.0554
Er13     Er     0.3472   0.0   0.0027
Er14     Er     0.3472   0.0   0.9973
V15     V     0.4446   0.0   0.9446
V16     V     0.4446   0.0   0.0554
Er17     Er     0.0   0.9973   0.6528
Er18     Er     0.0   0.0027   0.6528
V19     V     0.0   0.9446   0.5554
V20     V     0.0   0.0554   0.5554
Er21     Er     0.0   0.0027   0.3472
Er22     Er     0.0   0.9973   0.3472
V23     V     0.0   0.9446   0.4446
V24     V     0.0   0.0554   0.4446
Ce25     Ce     0.0956   0.0904   0.1712
Ce26     Ce     0.0904   0.1712   0.0956
Ce27     Ce     0.1712   0.0956   0.0904
Ti28     Ti     0.2621   0.0554   0.0416
Ti29     Ti     0.2621   0.9446   0.0416
Ti30     Ti     0.0416   0.2621   0.0554
Ti31     Ti     0.0416   0.2621   0.9446
Ti32     Ti     0.2621   0.0554   0.9584
Ti33     Ti     0.2621   0.9446   0.9584
Ti34     Ti     0.0554   0.9584   0.2621
Ti35     Ti     0.9446   0.9584   0.2621
Ti36     Ti     0.9584   0.2621   0.0554
Ti37     Ti     0.9584   0.2621   0.9446
Ce38     Ce     0.0956   0.0904   0.8288
Ce39     Ce     0.1712   0.0956   0.9096
Ce40     Ce     0.0904   0.1712   0.9044
Ce41     Ce     0.0904   0.8288   0.0956
Ce42     Ce     0.0956   0.9096   0.1712
Ce43     Ce     0.1712   0.9044   0.0904
Ti44     Ti     0.0554   0.0416   0.7379
Ti45     Ti     0.9446   0.0416   0.7379
Ce46     Ce     0.9044   0.0904   0.8288
Ce47     Ce     0.8288   0.0956   0.9096
Ce48     Ce     0.9096   0.1712   0.9044
Ti49     Ti     0.0416   0.7379   0.0554
Ti50     Ti     0.0416   0.7379   0.9446
Ce51     Ce     0.0904   0.8288   0.9044
Ce52     Ce     0.0956   0.9096   0.8288
Ce53     Ce     0.1712   0.9044   0.9096
Ti54     Ti     0.7379   0.0554   0.9584
Ti55     Ti     0.7379   0.9446   0.9584
Ti56     Ti     0.0554   0.9584   0.7379
Ti57     Ti     0.9446   0.9584   0.7379
Ti58     Ti     0.9584   0.7379   0.0554
Ti59     Ti     0.9584   0.7379   0.9446
Ce60     Ce     0.9044   0.9096   0.8288
Ce61     Ce     0.9096   0.8288   0.9044
Ce62     Ce     0.8288   0.9044   0.9096
Ti63     Ti     0.7379   0.0554   0.0416
Ti64     Ti     0.7379   0.9446   0.0416
Ce65     Ce     0.8288   0.9044   0.0904
Ce66     Ce     0.9096   0.8288   0.0956
Ce67     Ce     0.9044   0.9096   0.1712
Ti68     Ti     0.0554   0.0416   0.2621
Ti69     Ti     0.9446   0.0416   0.2621
Ce70     Ce     0.8288   0.0956   0.0904
Ce71     Ce     0.9044   0.0904   0.1712
Ce72     Ce     0.9096   0.1712   0.0956
loop_
_geom_bond_atom_site_label_1
_geom_bond_atom_site_label_2
_geom_bond_distance
_geom_bond_site_symmetry_2
_ccdc_geom_bond_type
Er1     Ti58    10.0   1_455     S
Er1     Ti59    10.0   1_454     S
Er1     V4    10.0   .     S
Er2     Ti49    10.0   1_655     S
Er2     Ti50    10.0   1_654     S
Er2     V3    10.0   .     S
V3     V4    10.0   1_655     S
V3     V7    10.0   .     S
V4     V8    10.0   .     S
V4     V3    10.0   1_455     S
Er5     Ti36    10.0   1_455     S
Er5     Ti37    10.0   1_454     S
Er5     V8    10.0   .     S
Er6     Ti30    10.0   1_655     S
Er6     Ti31    10.0   1_654     S
Er6     V7    10.0   .     S
V7     V8    10.0   1_655     S
V8     V7    10.0   1_455     S
Er9     Ti54    10.0   1_554     S
Er9     Ti55    10.0   1_544     S
Er9     V12    10.0   .     S
Er10     Ti63    10.0   1_556     S
Er10     Ti64    10.0   1_546     S
Er10     V11    10.0   .     S
V11     V12    10.0   1_556     S
V11     V15    10.0   .     S
V12     V16    10.0   .     S
V12     V11    10.0   1_554     S
Er13     Ti32    10.0   1_554     S
Er13     Ti33    10.0   1_544     S
Er13     V16    10.0   .     S
Er14     Ti28    10.0   1_556     S
Er14     Ti29    10.0   1_546     S
Er14     V15    10.0   .     S
V15     V16    10.0   1_556     S
V16     V15    10.0   1_554     S
Er17     Ti44    10.0   1_565     S
Er17     Ti45    10.0   1_465     S
Er17     V19    10.0   .     S
Er18     Ti56    10.0   1_545     S
Er18     Ti57    10.0   1_445     S
Er18     V20    10.0   .     S
V19     V20    10.0   1_565     S
V19     V23    10.0   .     S
V20     V24    10.0   .     S
V20     V19    10.0   1_545     S
Er21     Ti34    10.0   1_545     S
Er21     Ti35    10.0   1_445     S
Er21     V24    10.0   .     S
Er22     Ti68    10.0   1_565     S
Er22     Ti69    10.0   1_465     S
Er22     V23    10.0   .     S
V23     V24    10.0   1_565     S
V24     V23    10.0   1_545     S
Ce25     Ce26    10.0   .     S
Ce25     Ce27    10.0   .     S
Ce25     Ti68    10.0   .     S
Ce26     Ce27    10.0   .     S
Ce26     Ti30    10.0   .     S
Ce27     Ti28    10.0   .     S
Ti28     Er14    10.0   1_554     S
Ti28     Ti29    10.0   1_545     S
Ti29     Er14    10.0   1_564     S
Ti29     Ce43    10.0   .     S
Ti29     Ti28    10.0   1_565     S
Ti30     Er6    10.0   1_455     S
Ti30     Ti31    10.0   1_554     S
Ti31     Er6    10.0   1_456     S
Ti31     Ce40    10.0   .     S
Ti31     Ti30    10.0   1_556     S
Ti32     Er13    10.0   1_556     S
Ti32     Ce39    10.0   .     S
Ti32     Ti33    10.0   1_545     S
Ti33     Er13    10.0   1_566     S
Ti33     Ce53    10.0   .     S
Ti33     Ti32    10.0   1_565     S
Ti34     Er21    10.0   1_565     S
Ti34     Ce42    10.0   .     S
Ti34     Ti35    10.0   1_455     S
Ti35     Er21    10.0   1_665     S
Ti35     Ce67    10.0   .     S
Ti35     Ti34    10.0   1_655     S
Ti36     Er5    10.0   1_655     S
Ti36     Ce72    10.0   .     S
Ti36     Ti37    10.0   1_554     S
Ti37     Er5    10.0   1_656     S
Ti37     Ce48    10.0   .     S
Ti37     Ti36    10.0   1_556     S
Ce38     Ce40    10.0   .     S
Ce38     Ce39    10.0   .     S
Ce38     Ti44    10.0   .     S
Ce39     Ce40    10.0   .     S
Ce41     Ce43    10.0   .     S
Ce41     Ce42    10.0   .     S
Ce41     Ti49    10.0   .     S
Ce42     Ce43    10.0   .     S
Ti44     Er17    10.0   1_545     S
Ti44     Ti45    10.0   1_455     S
Ti45     Er17    10.0   1_645     S
Ti45     Ce46    10.0   .     S
Ti45     Ti44    10.0   1_655     S
Ce46     Ce48    10.0   .     S
Ce46     Ce47    10.0   .     S
Ce47     Ce48    10.0   .     S
Ce47     Ti54    10.0   .     S
Ti49     Er2    10.0   1_455     S
Ti49     Ti50    10.0   1_554     S
Ti50     Er2    10.0   1_456     S
Ti50     Ce51    10.0   .     S
Ti50     Ti49    10.0   1_556     S
Ce51     Ce53    10.0   .     S
Ce51     Ce52    10.0   .     S
Ce52     Ce53    10.0   .     S
Ce52     Ti56    10.0   .     S
Ti54     Er9    10.0   1_556     S
Ti54     Ti55    10.0   1_545     S
Ti55     Er9    10.0   1_566     S
Ti55     Ce62    10.0   .     S
Ti55     Ti54    10.0   1_565     S
Ti56     Er18    10.0   1_565     S
Ti56     Ti57    10.0   1_455     S
Ti57     Er18    10.0   1_665     S
Ti57     Ce60    10.0   .     S
Ti57     Ti56    10.0   1_655     S
Ti58     Er1    10.0   1_655     S
Ti58     Ce66    10.0   .     S
Ti58     Ti59    10.0   1_554     S
Ti59     Er1    10.0   1_656     S
Ti59     Ce61    10.0   .     S
Ti59     Ti58    10.0   1_556     S
Ce60     Ce61    10.0   .     S
Ce60     Ce62    10.0   .     S
Ce61     Ce62    10.0   .     S
Ti63     Er10    10.0   1_554     S
Ti63     Ce70    10.0   .     S
Ti63     Ti64    10.0   1_545     S
Ti64     Er10    10.0   1_564     S
Ti64     Ce65    10.0   .     S
Ti64     Ti63    10.0   1_565     S
Ce65     Ce67    10.0   .     S
Ce65     Ce66    10.0   .     S
Ce66     Ce67    10.0   .     S
Ti68     Er22    10.0   1_545     S
Ti68     Ti69    10.0   1_455     S
Ti69     Er22    10.0   1_645     S
Ti69     Ce71    10.0   .     S
Ti69     Ti68    10.0   1_655     S
Ce70     Ce71    10.0   .     S
Ce70     Ce72    10.0   .     S
Ce71     Ce72    10.0   .     S
