data_fgla
_audit_creation_date              2020-02-02
_audit_creation_method            'Pymatgen'
_symmetry_space_group_name_H-M    'P1'
_symmetry_Int_Tables_number       1
loop_
_symmetry_equiv_pos_as_xyz
  x,y,z
_cell_length_a                    113.6452
_cell_length_b                    113.6452
_cell_length_c                    74.1933
_cell_angle_alpha                 90.0
_cell_angle_beta                 90.0
_cell_angle_gamma                 120.0
loop_
_atom_site_label
_atom_site_type_symbol
_atom_site_fract_x
_atom_site_fract_y
_atom_site_fract_z
Ti1     Ti     0.3232   0.3734   0.7599
Ti2     Ti     0.3734   0.3232   0.7401
Ce3     Ce     0.4142   0.4068   0.8166
Ce4     Ce     0.4068   0.4142   0.6834
V5     V     0.5439   0.5619   0.5428
Er6     Er     0.533   0.5275   0.4163
V7     V     0.4561   0.4381   0.4572
Er8     Er     0.467   0.4725   0.5837
V9     V     0.5619   0.5439   0.9572
Er10     Er     0.5275   0.533   0.0837
V11     V     0.4381   0.4561   0.0428
Er12     Er     0.4725   0.467   0.9163
Ti13     Ti     0.6768   0.6266   0.2401
Ti14     Ti     0.6266   0.6768   0.2599
Ce15     Ce     0.5932   0.5858   0.3166
Ce16     Ce     0.5858   0.5932   0.1834
Ti17     Ti     0.7169   0.7067   0.5933
Ti18     Ti     0.6164   0.6565   0.5734
Ce19     Ce     0.6592   0.7401   0.65
Ce20     Ce     0.6741   0.7476   0.5167
V21     V     0.6486   0.8772   0.7906
Er22     Er     0.6721   0.8663   0.917
V23     V     0.6847   0.7894   0.8761
Er24     Er     0.6612   0.8004   0.7497
V25     V     0.6486   0.7714   0.2906
Er26     Er     0.6721   0.8058   0.417
V27     V     0.6847   0.8952   0.3761
Er28     Er     0.6612   0.8609   0.2497
Ti29     Ti     0.7169   0.0102   0.0933
Ti30     Ti     0.6164   0.9599   0.0734
Ce31     Ce     0.6741   0.9266   0.0167
Ce32     Ce     0.6592   0.9191   0.15
V33     V     0.8772   0.6486   0.7094
Er34     Er     0.8663   0.6721   0.583
V35     V     0.7894   0.6847   0.6239
Er36     Er     0.8004   0.6612   0.7503
Ti37     Ti     0.7067   0.7169   0.9067
Ti38     Ti     0.6565   0.6164   0.9266
Ce39     Ce     0.7476   0.6741   0.9833
Ce40     Ce     0.7401   0.6592   0.85
V41     V     0.8952   0.6847   0.1239
Er42     Er     0.8609   0.6612   0.2503
V43     V     0.7714   0.6486   0.2094
Er44     Er     0.8058   0.6721   0.083
Ti45     Ti     0.0102   0.7169   0.4067
Ti46     Ti     0.9599   0.6164   0.4266
Ce47     Ce     0.9266   0.6741   0.4833
Ce48     Ce     0.9191   0.6592   0.35
V49     V     0.7714   0.1228   0.7094
Er50     Er     0.8058   0.1337   0.583
V51     V     0.8952   0.2106   0.6239
Er52     Er     0.8609   0.1996   0.7503
Ti53     Ti     0.0102   0.2933   0.9067
Ti54     Ti     0.9599   0.3435   0.9266
Ce55     Ce     0.9266   0.2524   0.9833
Ce56     Ce     0.9191   0.2599   0.85
V57     V     0.7894   0.1048   0.1239
Er58     Er     0.8004   0.1391   0.2503
V59     V     0.8772   0.2286   0.2094
Er60     Er     0.8663   0.1942   0.083
Ti61     Ti     0.7067   0.9898   0.4067
Ti62     Ti     0.6565   0.0401   0.4266
Ce63     Ce     0.7476   0.0734   0.4833
Ce64     Ce     0.7401   0.0809   0.35
V65     V     0.982   0.5439   0.4572
Er66     Er     0.0055   0.533   0.5837
V67     V     0.018   0.4561   0.5428
Er68     Er     0.9945   0.467   0.4163
Ti69     Ti     0.9498   0.6266   0.7401
Ti70     Ti     0.0502   0.6768   0.7599
Ce71     Ce     0.9925   0.5858   0.8166
Ce72     Ce     0.0075   0.5932   0.6834
V73     V     0.018   0.5619   0.0428
Er74     Er     0.9945   0.5275   0.9163
V75     V     0.982   0.4381   0.9572
Er76     Er     0.0055   0.4725   0.0837
Ti77     Ti     0.9498   0.3232   0.2401
Ti78     Ti     0.0502   0.3734   0.2599
Ce79     Ce     0.9925   0.4068   0.3166
Ce80     Ce     0.0075   0.4142   0.1834
V81     V     0.2286   0.8772   0.2906
Er82     Er     0.1942   0.8663   0.417
V83     V     0.1048   0.7894   0.3761
Er84     Er     0.1391   0.8004   0.2497
Ti85     Ti     0.9898   0.7067   0.0933
Ti86     Ti     0.0401   0.6565   0.0734
Ce87     Ce     0.0809   0.7401   0.15
Ce88     Ce     0.0734   0.7476   0.0167
V89     V     0.1228   0.7714   0.7906
Er90     Er     0.1337   0.8058   0.917
V91     V     0.2106   0.8952   0.8761
Er92     Er     0.1996   0.8609   0.7497
Ti93     Ti     0.2933   0.0102   0.5933
Ti94     Ti     0.3435   0.9599   0.5734
Ce95     Ce     0.2599   0.9191   0.65
Ce96     Ce     0.2524   0.9266   0.5167
Ti97     Ti     0.6266   0.9498   0.7599
Ti98     Ti     0.6768   0.0502   0.7401
Ce99     Ce     0.5932   0.0075   0.8166
Ce100     Ce     0.5858   0.9925   0.6834
V101     V     0.5619   0.018   0.4572
Er102     Er     0.5275   0.9945   0.5837
V103     V     0.4381   0.982   0.5428
Er104     Er     0.4725   0.0055   0.4163
V105     V     0.5439   0.982   0.0428
Er106     Er     0.533   0.0055   0.9163
V107     V     0.4561   0.018   0.9572
Er108     Er     0.467   0.9945   0.0837
Ti109     Ti     0.3232   0.9498   0.2599
Ti110     Ti     0.3734   0.0502   0.2401
Ce111     Ce     0.4142   0.0075   0.3166
Ce112     Ce     0.4068   0.9925   0.1834
V113     V     0.3153   0.2106   0.1239
Er114     Er     0.3388   0.1996   0.2503
V115     V     0.3514   0.1228   0.2094
Er116     Er     0.3279   0.1337   0.083
Ti117     Ti     0.3836   0.3435   0.4266
Ti118     Ti     0.2831   0.2933   0.4067
Ce119     Ce     0.3408   0.2599   0.35
Ce120     Ce     0.3259   0.2524   0.4833
V121     V     0.3514   0.2286   0.7094
Er122     Er     0.3279   0.1942   0.583
V123     V     0.3153   0.1048   0.6239
Er124     Er     0.3388   0.1391   0.7503
Ti125     Ti     0.3836   0.0401   0.9266
Ti126     Ti     0.2831   0.9898   0.9067
Ce127     Ce     0.3259   0.0734   0.9833
Ce128     Ce     0.3408   0.0809   0.85
V129     V     0.2106   0.3153   0.3761
Er130     Er     0.1996   0.3388   0.2497
V131     V     0.1228   0.3514   0.2906
Er132     Er     0.1337   0.3279   0.417
Ti133     Ti     0.0401   0.3836   0.5734
Ti134     Ti     0.9898   0.2831   0.5933
Ce135     Ce     0.0809   0.3408   0.65
Ce136     Ce     0.0734   0.3259   0.5167
V137     V     0.2286   0.3514   0.7906
Er138     Er     0.1942   0.3279   0.917
V139     V     0.1048   0.3153   0.8761
Er140     Er     0.1391   0.3388   0.7497
Ti141     Ti     0.3435   0.3836   0.0734
Ti142     Ti     0.2933   0.2831   0.0933
Ce143     Ce     0.2599   0.3408   0.15
Ce144     Ce     0.2524   0.3259   0.0167
loop_
_geom_bond_atom_site_label_1
_geom_bond_atom_site_label_2
_geom_bond_distance
_geom_bond_site_symmetry_2
_ccdc_geom_bond_type
Ti1     Ti2    9.995   .     S
Ti1     Ce4    9.999   .     S
Ti1     Ce3    9.996   .     S
Ti1     V137    10.005   .     S
Ti2     Ce3    9.999   .     S
Ti2     Ce4    9.996   .     S
Ti2     V121    10.005   .     S
Ce3     Ce4    9.996   .     S
Ce3     Er12    10.003   .     S
Ce4     Er8    10.003   .     S
V5     Er6    9.999   .     S
V5     Er8    10.002   .     S
V5     Ti18    10.005   .     S
Er6     V7    10.002   .     S
Er6     Ce15    10.003   .     S
V7     Er8    9.999   .     S
V7     Ti117    10.005   .     S
V9     Er10    9.999   1_556     S
V9     Er12    10.002   .     S
V9     Ti38    10.005   .     S
Er10     V9    9.999   1_554     S
Er10     V11    10.002   .     S
Er10     Ce16    10.003   .     S
V11     Er12    9.999   1_554     S
V11     Ti141    10.005   .     S
Er12     V11    9.999   1_556     S
Ti13     Ti14    9.995   .     S
Ti13     Ce15    9.999   .     S
Ti13     Ce16    9.996   .     S
Ti13     V43    10.005   .     S
Ti14     Ce16    9.999   .     S
Ti14     Ce15    9.996   .     S
Ti14     V25    10.005   .     S
Ce15     Ce16    9.996   .     S
Ti17     Ti18    9.995   .     S
Ti17     Ce20    9.999   .     S
Ti17     Ce19    9.996   .     S
Ti17     V35    10.005   .     S
Ti18     Ce19    9.999   .     S
Ti18     Ce20    9.996   .     S
Ce19     Ce20    9.996   .     S
Ce19     Er24    10.003   .     S
Ce20     Er26    10.003   .     S
V21     Er22    9.999   .     S
V21     Er24    10.002   .     S
V21     Ti97    10.005   .     S
Er22     V23    10.002   .     S
Er22     Ce31    10.003   1_556     S
V23     Er24    9.999   .     S
V23     Ti37    10.005   .     S
V25     Er26    9.999   .     S
V25     Er28    10.002   .     S
Er26     V27    10.002   .     S
V27     Er28    9.999   .     S
V27     Ti61    10.005   .     S
Er28     Ce32    10.003   .     S
Ti29     Ti30    9.995   1_545     S
Ti29     Ce31    9.999   1_545     S
Ti29     Ce32    9.996   1_545     S
Ti29     V57    10.005   .     S
Ti30     Ti29    9.995   1_565     S
Ti30     Ce32    9.999   .     S
Ti30     Ce31    9.996   .     S
Ti30     V105    10.005   .     S
Ce31     Ce32    9.996   .     S
Ce31     Ti29    9.999   1_565     S
Ce31     Er22    10.003   1_554     S
Ce32     Ti29    9.996   1_565     S
V33     Er34    9.999   .     S
V33     Er36    10.002   .     S
V33     Ti69    10.005   .     S
Er34     V35    10.002   .     S
Er34     Ce47    10.003   .     S
V35     Er36    9.999   .     S
Er36     Ce40    10.003   .     S
Ti37     Ti38    9.995   .     S
Ti37     Ce39    9.999   .     S
Ti37     Ce40    9.996   .     S
Ti38     Ce40    9.999   .     S
Ti38     Ce39    9.996   .     S
Ce39     Ce40    9.996   .     S
Ce39     Er44    10.003   1_556     S
V41     Er42    9.999   .     S
V41     Er44    10.002   .     S
V41     Ti85    10.005   .     S
Er42     V43    10.002   .     S
Er42     Ce48    10.003   .     S
V43     Er44    9.999   .     S
Er44     Ce39    10.003   1_554     S
Ti45     Ti46    9.995   1_455     S
Ti45     Ce47    9.999   1_455     S
Ti45     Ce48    9.996   1_455     S
Ti45     V83    10.005   .     S
Ti46     Ti45    9.995   1_655     S
Ti46     Ce48    9.999   .     S
Ti46     Ce47    9.996   .     S
Ti46     V65    10.005   .     S
Ce47     Ce48    9.996   .     S
Ce47     Ti45    9.999   1_655     S
Ce48     Ti45    9.996   1_655     S
V49     Er50    9.999   .     S
V49     Er52    10.002   .     S
V49     Ti98    10.005   .     S
Er50     V51    10.002   .     S
Er50     Ce63    10.003   .     S
V51     Er52    9.999   .     S
V51     Ti134    10.005   .     S
Er52     Ce56    10.003   .     S
Ti53     Ti54    9.995   1_455     S
Ti53     Ce55    9.999   1_455     S
Ti53     Ce56    9.996   1_455     S
Ti53     V139    10.005   .     S
Ti54     Ti53    9.995   1_655     S
Ti54     Ce56    9.999   .     S
Ti54     Ce55    9.996   .     S
Ti54     V75    10.005   .     S
Ce55     Ce56    9.996   .     S
Ce55     Ti53    9.999   1_655     S
Ce55     Er60    10.003   1_556     S
Ce56     Ti53    9.996   1_655     S
V57     Er58    9.999   .     S
V57     Er60    10.002   .     S
Er58     V59    10.002   .     S
Er58     Ce64    10.003   .     S
V59     Er60    9.999   .     S
V59     Ti77    10.005   .     S
Er60     Ce55    10.003   1_554     S
Ti61     Ti62    9.995   1_565     S
Ti61     Ce63    9.999   1_565     S
Ti61     Ce64    9.996   1_565     S
Ti62     Ti61    9.995   1_545     S
Ti62     Ce64    9.999   .     S
Ti62     Ce63    9.996   .     S
Ti62     V101    10.005   .     S
Ce63     Ce64    9.996   .     S
Ce63     Ti61    9.999   1_545     S
Ce64     Ti61    9.996   1_545     S
V65     Er66    9.999   1_655     S
V65     Er68    10.002   .     S
Er66     V65    9.999   1_455     S
Er66     V67    10.002   .     S
Er66     Ce72    10.003   .     S
V67     Er68    9.999   1_455     S
V67     Ti133    10.005   .     S
Er68     V67    9.999   1_655     S
Er68     Ce79    10.003   .     S
Ti69     Ti70    9.995   1_655     S
Ti69     Ce71    9.999   .     S
Ti69     Ce72    9.996   1_655     S
Ti70     Ti69    9.995   1_455     S
Ti70     Ce72    9.999   .     S
Ti70     Ce71    9.996   1_455     S
Ti70     V89    10.005   .     S
Ce71     Ce72    9.996   1_655     S
Ce71     Ti70    9.996   1_655     S
Ce71     Er74    10.003   .     S
Ce72     Ce71    9.996   1_455     S
Ce72     Ti69    9.996   1_455     S
V73     Er74    9.999   1_454     S
V73     Er76    10.002   .     S
V73     Ti86    10.005   .     S
Er74     V73    9.999   1_656     S
Er74     V75    10.002   .     S
V75     Er76    9.999   1_656     S
Er76     V75    9.999   1_454     S
Er76     Ce80    10.003   .     S
Ti77     Ti78    9.995   1_655     S
Ti77     Ce79    9.999   .     S
Ti77     Ce80    9.996   1_655     S
Ti78     Ti77    9.995   1_455     S
Ti78     Ce80    9.999   .     S
Ti78     Ce79    9.996   1_455     S
Ti78     V131    10.005   .     S
Ce79     Ce80    9.996   1_655     S
Ce79     Ti78    9.996   1_655     S
Ce80     Ce79    9.996   1_455     S
Ce80     Ti77    9.996   1_455     S
V81     Er82    9.999   .     S
V81     Er84    10.002   .     S
V81     Ti109    10.005   .     S
Er82     V83    10.002   .     S
Er82     Ce96    10.003   .     S
V83     Er84    9.999   .     S
Er84     Ce87    10.003   .     S
Ti85     Ti86    9.995   1_655     S
Ti85     Ce88    9.999   1_655     S
Ti85     Ce87    9.996   1_655     S
Ti86     Ti85    9.995   1_455     S
Ti86     Ce87    9.999   .     S
Ti86     Ce88    9.996   .     S
Ce87     Ce88    9.996   .     S
Ce87     Ti85    9.996   1_455     S
Ce88     Ti85    9.999   1_455     S
Ce88     Er90    10.003   1_554     S
V89     Er90    9.999   .     S
V89     Er92    10.002   .     S
Er90     Ce88    10.003   1_556     S
Er90     V91    10.002   .     S
V91     Er92    9.999   .     S
V91     Ti126    10.005   .     S
Er92     Ce95    10.003   .     S
Ti93     Ti94    9.995   1_545     S
Ti93     Ce96    9.999   1_545     S
Ti93     Ce95    9.996   1_545     S
Ti93     V123    10.005   .     S
Ti94     Ti93    9.995   1_565     S
Ti94     Ce95    9.999   .     S
Ti94     Ce96    9.996   .     S
Ti94     V103    10.005   .     S
Ce95     Ce96    9.996   .     S
Ce95     Ti93    9.996   1_565     S
Ce96     Ti93    9.999   1_565     S
Ti97     Ti98    9.995   1_565     S
Ti97     Ce100    9.999   .     S
Ti97     Ce99    9.996   1_565     S
Ti98     Ti97    9.995   1_545     S
Ti98     Ce99    9.999   .     S
Ti98     Ce100    9.996   1_545     S
Ce99     Ce100    9.996   1_545     S
Ce99     Ti97    9.996   1_545     S
Ce99     Er106    10.003   .     S
Ce100     Ce99    9.996   1_565     S
Ce100     Ti98    9.996   1_565     S
Ce100     Er102    10.003   .     S
V101     Er102    9.999   1_545     S
V101     Er104    10.002   .     S
Er102     V101    9.999   1_565     S
Er102     V103    10.002   .     S
V103     Er104    9.999   1_565     S
Er104     V103    9.999   1_545     S
Er104     Ce111    10.003   .     S
V105     Er106    9.999   1_564     S
V105     Er108    10.002   .     S
Er106     V105    9.999   1_546     S
Er106     V107    10.002   .     S
V107     Er108    9.999   1_546     S
V107     Ti125    10.005   .     S
Er108     V107    9.999   1_564     S
Er108     Ce112    10.003   .     S
Ti109     Ti110    9.995   1_565     S
Ti109     Ce112    9.999   .     S
Ti109     Ce111    9.996   1_565     S
Ti110     Ti109    9.995   1_545     S
Ti110     Ce111    9.999   .     S
Ti110     Ce112    9.996   1_545     S
Ti110     V115    10.005   .     S
Ce111     Ce112    9.996   1_545     S
Ce111     Ti109    9.996   1_545     S
Ce112     Ce111    9.996   1_565     S
Ce112     Ti110    9.996   1_565     S
V113     Er114    9.999   .     S
V113     Er116    10.002   .     S
V113     Ti142    10.005   .     S
Er114     V115    10.002   .     S
Er114     Ce119    10.003   .     S
V115     Er116    9.999   .     S
Er116     Ce127    10.003   1_554     S
Ti117     Ti118    9.995   .     S
Ti117     Ce119    9.999   .     S
Ti117     Ce120    9.996   .     S
Ti118     Ce120    9.999   .     S
Ti118     Ce119    9.996   .     S
Ti118     V129    10.005   .     S
Ce119     Ce120    9.996   .     S
Ce120     Er122    10.003   .     S
V121     Er122    9.999   .     S
V121     Er124    10.002   .     S
Er122     V123    10.002   .     S
V123     Er124    9.999   .     S
Er124     Ce128    10.003   .     S
Ti125     Ti126    9.995   1_545     S
Ti125     Ce128    9.999   .     S
Ti125     Ce127    9.996   .     S
Ti126     Ti125    9.995   1_565     S
Ti126     Ce127    9.999   1_565     S
Ti126     Ce128    9.996   1_565     S
Ce127     Ce128    9.996   .     S
Ce127     Ti126    9.999   1_545     S
Ce127     Er116    10.003   1_556     S
Ce128     Ti126    9.996   1_545     S
V129     Er130    9.999   .     S
V129     Er132    10.002   .     S
Er130     V131    10.002   .     S
Er130     Ce143    10.003   .     S
V131     Er132    9.999   .     S
Er132     Ce136    10.003   .     S
Ti133     Ti134    9.995   1_455     S
Ti133     Ce135    9.999   .     S
Ti133     Ce136    9.996   .     S
Ti134     Ti133    9.995   1_655     S
Ti134     Ce136    9.999   1_655     S
Ti134     Ce135    9.996   1_655     S
Ce135     Ce136    9.996   .     S
Ce135     Ti134    9.996   1_455     S
Ce135     Er140    10.003   .     S
Ce136     Ti134    9.999   1_455     S
V137     Er138    9.999   .     S
V137     Er140    10.002   .     S
Er138     V139    10.002   .     S
Er138     Ce144    10.003   1_556     S
V139     Er140    9.999   .     S
Ti141     Ti142    9.995   .     S
Ti141     Ce143    9.999   .     S
Ti141     Ce144    9.996   .     S
Ti142     Ce144    9.999   .     S
Ti142     Ce143    9.996   .     S
Ce143     Ce144    9.996   .     S
Ce144     Er138    10.003   1_554     S
