data_fjh
_audit_creation_date              2020-02-02
_audit_creation_method            'Pymatgen'
_symmetry_space_group_name_H-M    'P1'
_symmetry_Int_Tables_number       1
loop_
_symmetry_equiv_pos_as_xyz
  x,y,z
_cell_length_a                    40.0
_cell_length_b                    40.0
_cell_length_c                    28.2843
_cell_angle_alpha                 90.0
_cell_angle_beta                 90.0
_cell_angle_gamma                 90.0
loop_
_atom_site_label
_atom_site_type_symbol
_atom_site_fract_x
_atom_site_fract_y
_atom_site_fract_z
V1     V     0.5   0.25   0.25
Er2     Er     0.5   0.5   0.25
V3     V     0.75   0.5   0.25
V4     V     0.5   0.75   0.25
V5     V     0.25   0.5   0.25
V6     V     0.5   0.75   0.75
Er7     Er     0.5   0.5   0.75
V8     V     0.25   0.5   0.75
V9     V     0.5   0.25   0.75
V10     V     0.75   0.5   0.75
V11     V     0.0   0.75   0.75
Er12     Er     0.0   0.0   0.75
V13     V     0.25   0.0   0.75
V14     V     0.0   0.25   0.75
V15     V     0.75   0.0   0.75
V16     V     0.0   0.25   0.25
Er17     Er     0.0   0.0   0.25
V18     V     0.75   0.0   0.25
V19     V     0.0   0.75   0.25
V20     V     0.25   0.0   0.25
Ti21     Ti     0.125   0.375   0.0
Ti22     Ti     0.625   0.125   0.0
Ti23     Ti     0.875   0.625   0.0
Ti24     Ti     0.375   0.875   0.0
Ti25     Ti     0.125   0.625   0.5
Ti26     Ti     0.375   0.125   0.5
Ti27     Ti     0.875   0.375   0.5
Ti28     Ti     0.625   0.875   0.5
loop_
_geom_bond_atom_site_label_1
_geom_bond_atom_site_label_2
_geom_bond_distance
_geom_bond_site_symmetry_2
_ccdc_geom_bond_type
V1     Er2    10.0   .     S
V1     Ti26    10.0   .     S
V1     Ti22    10.0   .     S
Er2     V3    10.0   .     S
Er2     V4    10.0   .     S
Er2     V5    10.0   .     S
V3     Ti27    10.0   .     S
V3     Ti23    10.0   .     S
V4     Ti28    10.0   .     S
V4     Ti24    10.0   .     S
V5     Ti25    10.0   .     S
V5     Ti21    10.0   .     S
V6     Er7    10.0   .     S
V6     Ti28    10.0   .     S
V6     Ti24    10.0   1_556     S
Er7     V8    10.0   .     S
Er7     V9    10.0   .     S
Er7     V10    10.0   .     S
V8     Ti25    10.0   .     S
V8     Ti21    10.0   1_556     S
V9     Ti26    10.0   .     S
V9     Ti22    10.0   1_556     S
V10     Ti27    10.0   .     S
V10     Ti23    10.0   1_556     S
V11     Er12    10.0   1_565     S
V11     Ti23    10.0   1_456     S
V11     Ti25    10.0   .     S
Er12     V11    10.0   1_545     S
Er12     V13    10.0   .     S
Er12     V14    10.0   .     S
Er12     V15    10.0   1_455     S
V13     Ti24    10.0   1_546     S
V13     Ti26    10.0   .     S
V14     Ti21    10.0   1_556     S
V14     Ti27    10.0   1_455     S
V15     Er12    10.0   1_655     S
V15     Ti22    10.0   1_556     S
V15     Ti28    10.0   1_545     S
V16     Er17    10.0   .     S
V16     Ti21    10.0   .     S
V16     Ti27    10.0   1_455     S
Er17     V18    10.0   1_455     S
Er17     V19    10.0   1_545     S
Er17     V20    10.0   .     S
V18     Er17    10.0   1_655     S
V18     Ti22    10.0   .     S
V18     Ti28    10.0   1_545     S
V19     Er17    10.0   1_565     S
V19     Ti23    10.0   1_455     S
V19     Ti25    10.0   .     S
V20     Ti24    10.0   1_545     S
V20     Ti26    10.0   .     S
Ti21     V14    10.0   1_554     S
Ti21     V8    10.0   1_554     S
Ti22     V15    10.0   1_554     S
Ti22     V9    10.0   1_554     S
Ti23     V19    10.0   1_655     S
Ti23     V11    10.0   1_654     S
Ti23     V10    10.0   1_554     S
Ti24     V20    10.0   1_565     S
Ti24     V13    10.0   1_564     S
Ti24     V6    10.0   1_554     S
Ti27     V16    10.0   1_655     S
Ti27     V14    10.0   1_655     S
Ti28     V18    10.0   1_565     S
Ti28     V15    10.0   1_565     S
