data_flg
_audit_creation_date              2020-02-02
_audit_creation_method            'Pymatgen'
_symmetry_space_group_name_H-M    'P1'
_symmetry_Int_Tables_number       1
loop_
_symmetry_equiv_pos_as_xyz
  x,y,z
_cell_length_a                    31.8284
_cell_length_b                    31.8284
_cell_length_c                    59.6674
_cell_angle_alpha                 90.0
_cell_angle_beta                 90.0
_cell_angle_gamma                 90.0
loop_
_atom_site_label
_atom_site_type_symbol
_atom_site_fract_x
_atom_site_fract_y
_atom_site_fract_z
V1     V     0.8631   0.1876   0.2501
V2     V     0.8631   0.8124   0.2499
Ti3     Ti     0.1128   0.0   0.25
V4     V     0.3631   0.1876   0.2499
V5     V     0.3631   0.8124   0.2501
Ti6     Ti     0.6128   0.0   0.25
Er7     Er     0.3607   0.0535   0.1519
Er8     Er     0.3607   0.9465   0.3481
Er9     Er     0.8607   0.0535   0.3481
Er10     Er     0.8607   0.9465   0.1519
V11     V     0.6369   0.3124   0.2499
V12     V     0.6369   0.6876   0.2501
Ti13     Ti     0.3872   0.5   0.25
V14     V     0.1369   0.3124   0.2501
V15     V     0.1369   0.6876   0.2499
Ti16     Ti     0.8872   0.5   0.25
Er17     Er     0.6393   0.4465   0.1519
Er18     Er     0.6393   0.5535   0.3481
Er19     Er     0.1393   0.5535   0.1519
Er20     Er     0.1393   0.4465   0.3481
V21     V     0.5624   0.1131   0.0001
V22     V     0.9376   0.1131   0.9999
Ti23     Ti     0.75   0.3628   0.0
V24     V     0.5624   0.6131   0.9999
V25     V     0.9376   0.6131   0.0001
Ti26     Ti     0.75   0.8628   0.0
Er27     Er     0.8035   0.6107   0.0981
Er28     Er     0.6965   0.6107   0.9019
Er29     Er     0.8035   0.1107   0.9019
Er30     Er     0.6965   0.1107   0.0981
V31     V     0.0624   0.8869   0.0001
V32     V     0.4376   0.8869   0.9999
Ti33     Ti     0.25   0.6372   0.0
V34     V     0.4376   0.3869   0.0001
V35     V     0.0624   0.3869   0.9999
Ti36     Ti     0.25   0.1372   0.0
Er37     Er     0.1965   0.3893   0.9019
Er38     Er     0.3035   0.8893   0.9019
Er39     Er     0.1965   0.8893   0.0981
Er40     Er     0.3035   0.3893   0.0981
V41     V     0.9376   0.8869   0.5001
V42     V     0.5624   0.8869   0.4999
Ti43     Ti     0.75   0.6372   0.5
V44     V     0.9376   0.3869   0.4999
V45     V     0.5624   0.3869   0.5001
Ti46     Ti     0.75   0.1372   0.5
Er47     Er     0.8035   0.8893   0.5981
Er48     Er     0.8035   0.3893   0.4019
Er49     Er     0.6965   0.3893   0.5981
Er50     Er     0.6965   0.8893   0.4019
V51     V     0.0624   0.1131   0.4999
V52     V     0.4376   0.1131   0.5001
Ti53     Ti     0.25   0.3628   0.5
V54     V     0.4376   0.6131   0.4999
V55     V     0.0624   0.6131   0.5001
Ti56     Ti     0.25   0.8628   0.5
Er57     Er     0.3035   0.1107   0.5981
Er58     Er     0.1965   0.6107   0.5981
Er59     Er     0.1965   0.1107   0.4019
Er60     Er     0.3035   0.6107   0.4019
V61     V     0.6369   0.1876   0.7499
V62     V     0.6369   0.8124   0.7501
Ti63     Ti     0.3872   0.0   0.75
V64     V     0.1369   0.1876   0.7501
V65     V     0.1369   0.8124   0.7499
Ti66     Ti     0.8872   0.0   0.75
Er67     Er     0.6393   0.9465   0.8481
Er68     Er     0.6393   0.0535   0.6519
Er69     Er     0.1393   0.9465   0.6519
Er70     Er     0.1393   0.0535   0.8481
V71     V     0.8631   0.3124   0.7501
V72     V     0.8631   0.6876   0.7499
Ti73     Ti     0.1128   0.5   0.75
V74     V     0.3631   0.3124   0.7499
V75     V     0.3631   0.6876   0.7501
Ti76     Ti     0.6128   0.5   0.75
Er77     Er     0.3607   0.5535   0.8481
Er78     Er     0.3607   0.4465   0.6519
Er79     Er     0.8607   0.5535   0.6519
Er80     Er     0.8607   0.4465   0.8481
loop_
_geom_bond_atom_site_label_1
_geom_bond_atom_site_label_2
_geom_bond_distance
_geom_bond_site_symmetry_2
_ccdc_geom_bond_type
V1     Ti3    9.941   1_655     S
V1     Ti6    9.956   .     S
V1     Ti16    9.972   .     S
V2     Ti3    9.941   1_665     S
V2     Ti6    9.956   1_565     S
V2     Ti16    9.972   .     S
Ti3     V1    9.941   1_455     S
Ti3     V4    9.956   .     S
Ti3     V2    9.941   1_445     S
Ti3     V5    9.956   1_545     S
Ti3     Er9    10.078   1_455     S
Ti3     Er39    10.082   1_545     S
Ti3     Er10    10.078   1_445     S
Ti3     Er59    10.082   .     S
Ti3     Er7    9.971   .     S
Ti3     V14    9.972   .     S
Ti3     Er8    9.971   1_545     S
Ti3     V15    9.972   1_545     S
V4     Ti6    9.941   .     S
V4     Ti13    9.972   .     S
V5     Ti3    9.956   1_565     S
V5     Ti6    9.941   1_565     S
V5     Ti13    9.972   .     S
Ti6     V5    9.941   1_545     S
Ti6     V2    9.956   1_545     S
Ti6     Er7    10.078   .     S
Ti6     Er50    10.082   1_545     S
Ti6     Er8    10.078   1_545     S
Ti6     Er30    10.082   .     S
Ti6     Er9    9.971   .     S
Ti6     V11    9.972   .     S
Ti6     Er10    9.971   1_545     S
Ti6     V12    9.972   1_545     S
Er7     Ti36    10.082   .     S
Er8     Ti6    10.078   1_565     S
Er8     Ti56    10.082   .     S
Er8     Ti3    9.971   1_565     S
Er9     Ti3    10.078   1_655     S
Er9     Ti46    10.082   .     S
Er10     Ti3    10.078   1_665     S
Er10     Ti26    10.082   .     S
Er10     Ti6    9.971   1_565     S
V11     Ti13    9.941   .     S
V11     Ti16    9.956   .     S
V12     Ti13    9.941   .     S
V12     Ti16    9.956   .     S
V12     Ti6    9.972   1_565     S
Ti13     V14    9.956   .     S
Ti13     V15    9.956   .     S
Ti13     Er17    10.078   .     S
Ti13     Er60    10.082   .     S
Ti13     Er18    10.078   .     S
Ti13     Er40    10.082   .     S
Ti13     Er20    9.971   .     S
Ti13     Er19    9.971   .     S
V14     Ti16    9.941   1_455     S
V15     Ti16    9.941   1_455     S
V15     Ti3    9.972   1_565     S
Ti16     V14    9.941   1_655     S
Ti16     V15    9.941   1_655     S
Ti16     Er20    10.078   1_655     S
Ti16     Er27    10.082   .     S
Ti16     Er19    10.078   1_655     S
Ti16     Er48    10.082   .     S
Ti16     Er17    9.971   .     S
Ti16     Er18    9.971   .     S
Er17     Ti23    10.082   .     S
Er18     Ti43    10.082   .     S
Er19     Ti16    10.078   1_455     S
Er19     Ti33    10.082   .     S
Er20     Ti16    10.078   1_455     S
Er20     Ti53    10.082   .     S
V21     Ti23    9.941   .     S
V21     Ti26    9.956   1_545     S
V21     Ti36    9.972   .     S
V22     Ti23    9.941   1_556     S
V22     Ti26    9.956   1_546     S
V22     Ti36    9.972   1_656     S
Ti23     V24    9.956   1_554     S
Ti23     V22    9.941   1_554     S
Ti23     V25    9.956   .     S
Ti23     Er30    10.078   .     S
Ti23     Er80    10.082   1_554     S
Ti23     Er29    10.078   1_554     S
Ti23     Er28    9.971   1_554     S
Ti23     V34    9.972   .     S
Ti23     Er27    9.971   .     S
Ti23     V35    9.972   1_654     S
V24     Ti23    9.956   1_556     S
V24     Ti26    9.941   1_556     S
V24     Ti33    9.972   1_556     S
V25     Ti26    9.941   .     S
V25     Ti33    9.972   1_655     S
Ti26     V24    9.941   1_554     S
Ti26     V21    9.956   1_565     S
Ti26     V22    9.956   1_564     S
Ti26     Er28    10.078   1_554     S
Ti26     Er27    10.078   .     S
Ti26     Er67    10.082   1_554     S
Ti26     Er30    9.971   1_565     S
Ti26     V32    9.972   1_554     S
Ti26     Er29    9.971   1_564     S
Ti26     V31    9.972   1_655     S
Er28     Ti26    10.078   1_556     S
Er28     Ti76    10.082   .     S
Er28     Ti23    9.971   1_556     S
Er29     Ti23    10.078   1_556     S
Er29     Ti66    10.082   .     S
Er29     Ti26    9.971   1_546     S
Er30     Ti26    9.971   1_545     S
V31     Ti33    9.941   .     S
V31     Ti36    9.956   1_565     S
V31     Ti26    9.972   1_455     S
V32     Ti33    9.941   1_556     S
V32     Ti36    9.956   1_566     S
V32     Ti26    9.972   1_556     S
Ti33     V32    9.941   1_554     S
Ti33     V34    9.956   .     S
Ti33     V35    9.956   1_554     S
Ti33     Er38    10.078   1_554     S
Ti33     Er39    10.078   .     S
Ti33     Er77    10.082   1_554     S
Ti33     Er40    9.971   .     S
Ti33     V24    9.972   1_554     S
Ti33     Er37    9.971   1_554     S
Ti33     V25    9.972   1_455     S
V34     Ti36    9.941   .     S
V35     Ti33    9.956   1_556     S
V35     Ti36    9.941   1_556     S
V35     Ti23    9.972   1_456     S
Ti36     V35    9.941   1_554     S
Ti36     V31    9.956   1_545     S
Ti36     V32    9.956   1_544     S
Ti36     Er37    10.078   1_554     S
Ti36     Er40    10.078   .     S
Ti36     Er70    10.082   1_554     S
Ti36     Er39    9.971   1_545     S
Ti36     V22    9.972   1_454     S
Ti36     Er38    9.971   1_544     S
Er37     Ti36    10.078   1_556     S
Er37     Ti73    10.082   .     S
Er37     Ti33    9.971   1_556     S
Er38     Ti33    10.078   1_556     S
Er38     Ti63    10.082   1_565     S
Er38     Ti36    9.971   1_566     S
Er39     Ti3    10.082   1_565     S
Er39     Ti36    9.971   1_565     S
V41     Ti43    9.941   .     S
V41     Ti46    9.956   1_565     S
V41     Ti56    9.972   1_655     S
V42     Ti43    9.941   .     S
V42     Ti46    9.956   1_565     S
V42     Ti56    9.972   .     S
Ti43     V44    9.956   .     S
Ti43     V45    9.956   .     S
Ti43     Er47    10.078   .     S
Ti43     Er50    10.078   .     S
Ti43     Er79    10.082   .     S
Ti43     Er48    9.971   .     S
Ti43     V55    9.972   1_655     S
Ti43     Er49    9.971   .     S
Ti43     V54    9.972   .     S
V44     Ti46    9.941   .     S
V44     Ti53    9.972   1_655     S
V45     Ti46    9.941   .     S
V45     Ti53    9.972   .     S
Ti46     V41    9.956   1_545     S
Ti46     V42    9.956   1_545     S
Ti46     Er48    10.078   .     S
Ti46     Er68    10.082   .     S
Ti46     Er49    10.078   .     S
Ti46     Er47    9.971   1_545     S
Ti46     V51    9.972   1_655     S
Ti46     Er50    9.971   1_545     S
Ti46     V52    9.972   .     S
Er47     Ti66    10.082   1_565     S
Er47     Ti46    9.971   1_565     S
Er49     Ti76    10.082   .     S
Er50     Ti6    10.082   1_565     S
Er50     Ti46    9.971   1_565     S
V51     Ti53    9.941   .     S
V51     Ti56    9.956   1_545     S
V51     Ti46    9.972   1_455     S
V52     Ti53    9.941   .     S
V52     Ti56    9.956   1_545     S
Ti53     V55    9.956   .     S
Ti53     V54    9.956   .     S
Ti53     Er59    10.078   .     S
Ti53     Er78    10.082   .     S
Ti53     Er57    10.078   .     S
Ti53     Er58    9.971   .     S
Ti53     V44    9.972   1_455     S
Ti53     Er60    9.971   .     S
V54     Ti56    9.941   .     S
V55     Ti56    9.941   .     S
V55     Ti43    9.972   1_455     S
Ti56     V51    9.956   1_565     S
Ti56     V52    9.956   1_565     S
Ti56     Er58    10.078   .     S
Ti56     Er60    10.078   .     S
Ti56     Er69    10.082   .     S
Ti56     Er59    9.971   1_565     S
Ti56     V41    9.972   1_455     S
Ti56     Er57    9.971   1_565     S
Er57     Ti63    10.082   .     S
Er57     Ti56    9.971   1_545     S
Er58     Ti73    10.082   .     S
Er59     Ti56    9.971   1_545     S
V61     Ti63    9.941   .     S
V61     Ti66    9.956   .     S
V61     Ti76    9.972   .     S
V62     Ti63    9.941   1_565     S
V62     Ti66    9.956   1_565     S
V62     Ti76    9.972   .     S
Ti63     V64    9.956   .     S
Ti63     V62    9.941   1_545     S
Ti63     V65    9.956   1_545     S
Ti63     Er68    10.078   .     S
Ti63     Er38    10.082   1_545     S
Ti63     Er67    10.078   1_545     S
Ti63     Er70    9.971   .     S
Ti63     V74    9.972   .     S
Ti63     Er69    9.971   1_545     S
Ti63     V75    9.972   1_545     S
V64     Ti66    9.941   1_455     S
V64     Ti73    9.972   .     S
V65     Ti63    9.956   1_565     S
V65     Ti66    9.941   1_465     S
V65     Ti73    9.972   .     S
Ti66     V64    9.941   1_655     S
Ti66     V65    9.941   1_645     S
Ti66     V62    9.956   1_545     S
Ti66     Er70    10.078   1_655     S
Ti66     Er47    10.082   1_545     S
Ti66     Er69    10.078   1_645     S
Ti66     Er68    9.971   .     S
Ti66     V71    9.972   .     S
Ti66     Er67    9.971   1_545     S
Ti66     V72    9.972   1_545     S
Er67     Ti26    10.082   1_556     S
Er67     Ti63    10.078   1_565     S
Er67     Ti66    9.971   1_565     S
Er69     Ti66    10.078   1_465     S
Er69     Ti63    9.971   1_565     S
Er70     Ti36    10.082   1_556     S
Er70     Ti66    10.078   1_455     S
V71     Ti73    9.941   1_655     S
V71     Ti76    9.956   .     S
V72     Ti73    9.941   1_655     S
V72     Ti76    9.956   .     S
V72     Ti66    9.972   1_565     S
Ti73     V71    9.941   1_455     S
Ti73     V74    9.956   .     S
Ti73     V72    9.941   1_455     S
Ti73     V75    9.956   .     S
Ti73     Er80    10.078   1_455     S
Ti73     Er79    10.078   1_455     S
Ti73     Er78    9.971   .     S
Ti73     Er77    9.971   .     S
V74     Ti76    9.941   .     S
V75     Ti76    9.941   .     S
V75     Ti63    9.972   1_565     S
Ti76     Er78    10.078   .     S
Ti76     Er77    10.078   .     S
Ti76     Er80    9.971   .     S
Ti76     Er79    9.971   .     S
Er77     Ti33    10.082   1_556     S
Er79     Ti73    10.078   1_655     S
Er80     Ti23    10.082   1_556     S
Er80     Ti73    10.078   1_655     S
