data_flt
_audit_creation_date              2020-02-02
_audit_creation_method            'Pymatgen'
_symmetry_space_group_name_H-M    'P1'
_symmetry_Int_Tables_number       1
loop_
_symmetry_equiv_pos_as_xyz
  x,y,z
_cell_length_a                    18.0133
_cell_length_b                    18.0133
_cell_length_c                    37.3806
_cell_angle_alpha                 90.0
_cell_angle_beta                 90.0
_cell_angle_gamma                 90.0
loop_
_atom_site_label
_atom_site_type_symbol
_atom_site_fract_x
_atom_site_fract_y
_atom_site_fract_z
Er1     Er     0.0   0.0   0.5
V2     V     0.0   0.5   0.3838
V3     V     0.5   0.0   0.3838
V4     V     0.5   0.0   0.6162
V5     V     0.0   0.5   0.6162
V6     V     0.5   0.0   0.1162
Er7     Er     0.5   0.5   0.0
V8     V     0.0   0.5   0.1162
V9     V     0.5   0.0   0.8838
V10     V     0.0   0.5   0.8838
loop_
_geom_bond_atom_site_label_1
_geom_bond_atom_site_label_2
_geom_bond_distance
_geom_bond_site_symmetry_2
_ccdc_geom_bond_type
Er1     V3    10.0   1_455     S
Er1     V4    10.0   1_455     S
Er1     V2    10.0   .     S
Er1     V5    10.0   .     S
Er1     V2    10.0   1_545     S
Er1     V5    10.0   1_545     S
Er1     V3    10.0   .     S
Er1     V4    10.0   .     S
V2     Er1    10.0   1_565     S
V2     V8    10.0   .     S
V3     Er1    10.0   1_655     S
V3     V6    10.0   .     S
V4     Er1    10.0   1_655     S
V4     V9    10.0   .     S
V5     Er1    10.0   1_565     S
V5     V10    10.0   .     S
V6     Er7    10.0   1_545     S
V6     Er7    10.0   .     S
Er7     V10    10.0   1_554     S
Er7     V8    10.0   .     S
Er7     V9    10.0   1_564     S
Er7     V6    10.0   1_565     S
Er7     V10    10.0   1_654     S
Er7     V8    10.0   1_655     S
Er7     V9    10.0   1_554     S
V8     Er7    10.0   1_455     S
V9     Er7    10.0   1_546     S
V9     Er7    10.0   1_556     S
V10     Er7    10.0   1_556     S
V10     Er7    10.0   1_456     S
