data_flta
_audit_creation_date              2020-02-02
_audit_creation_method            'Pymatgen'
_symmetry_space_group_name_H-M    'P1'
_symmetry_Int_Tables_number       1
loop_
_symmetry_equiv_pos_as_xyz
  x,y,z
_cell_length_a                    42.2999
_cell_length_b                    42.2999
_cell_length_c                    91.4095
_cell_angle_alpha                 90.0
_cell_angle_beta                 90.0
_cell_angle_gamma                 90.0
loop_
_atom_site_label
_atom_site_type_symbol
_atom_site_fract_x
_atom_site_fract_y
_atom_site_fract_z
Er1     Er     0.6672   0.5   0.4453
Er2     Er     0.6672   0.5   0.5547
Er3     Er     0.5   0.6672   0.4453
Er4     Er     0.5   0.6672   0.5547
Er5     Er     0.5   0.3328   0.4453
Er6     Er     0.5   0.3328   0.5547
Er7     Er     0.3328   0.5   0.4453
Er8     Er     0.3328   0.5   0.5547
Ti9     Ti     0.5   0.1182   0.3994
Ti10     Ti     0.5   0.8818   0.3994
V11     V     0.5   0.0   0.3047
Ti12     Ti     0.3818   0.0   0.1006
Ti13     Ti     0.6182   0.0   0.1006
V14     V     0.5   0.0   0.1953
Ti15     Ti     0.1182   0.5   0.3994
Ti16     Ti     0.8818   0.5   0.3994
V17     V     0.0   0.5   0.3047
Ti18     Ti     0.0   0.3818   0.1006
Ti19     Ti     0.0   0.6182   0.1006
V20     V     0.0   0.5   0.1953
Ti21     Ti     0.5   0.1182   0.6006
Ti22     Ti     0.5   0.8818   0.6006
V23     V     0.5   0.0   0.6953
Ti24     Ti     0.3818   0.0   0.8994
Ti25     Ti     0.6182   0.0   0.8994
V26     V     0.5   0.0   0.8047
Ti27     Ti     0.1182   0.5   0.6006
Ti28     Ti     0.8818   0.5   0.6006
V29     V     0.0   0.5   0.6953
Ti30     Ti     0.0   0.3818   0.8994
Ti31     Ti     0.0   0.6182   0.8994
V32     V     0.0   0.5   0.8047
Er33     Er     0.8328   0.0   0.0547
Er34     Er     0.8328   0.0   0.9453
Er35     Er     0.0   0.8328   0.0547
Er36     Er     0.0   0.8328   0.9453
Er37     Er     0.1672   0.0   0.0547
Er38     Er     0.1672   0.0   0.9453
Er39     Er     0.0   0.1672   0.0547
Er40     Er     0.0   0.1672   0.9453
loop_
_geom_bond_atom_site_label_1
_geom_bond_atom_site_label_2
_geom_bond_distance
_geom_bond_site_symmetry_2
_ccdc_geom_bond_type
Er1     Ti16    10.0   .     S
Er1     Er2    10.0   .     S
Er1     Er5    10.0   .     S
Er1     Er3    10.0   .     S
Er2     Ti28    10.0   .     S
Er2     Er6    10.0   .     S
Er2     Er4    10.0   .     S
Er3     Ti10    10.0   .     S
Er3     Er4    10.0   .     S
Er3     Er7    10.0   .     S
Er4     Ti22    10.0   .     S
Er4     Er8    10.0   .     S
Er5     Ti9    10.0   .     S
Er5     Er6    10.0   .     S
Er5     Er7    10.0   .     S
Er6     Ti21    10.0   .     S
Er6     Er8    10.0   .     S
Er7     Ti15    10.0   .     S
Er7     Er8    10.0   .     S
Er8     Ti27    10.0   .     S
Ti9     Ti10    10.0   1_545     S
Ti9     V11    10.0   .     S
Ti10     Ti9    10.0   1_565     S
Ti10     V11    10.0   1_565     S
V11     Ti10    10.0   1_545     S
V11     V14    10.0   .     S
Ti12     V14    10.0   .     S
Ti12     Ti13    10.0   .     S
Ti12     Er37    10.0   .     S
Ti13     V14    10.0   .     S
Ti13     Er33    10.0   .     S
Ti15     Ti16    10.0   1_455     S
Ti15     V17    10.0   .     S
Ti16     Ti15    10.0   1_655     S
Ti16     V17    10.0   1_655     S
V17     Ti16    10.0   1_455     S
V17     V20    10.0   .     S
Ti18     V20    10.0   .     S
Ti18     Ti19    10.0   .     S
Ti18     Er39    10.0   .     S
Ti19     V20    10.0   .     S
Ti19     Er35    10.0   .     S
Ti21     Ti22    10.0   1_545     S
Ti21     V23    10.0   .     S
Ti22     Ti21    10.0   1_565     S
Ti22     V23    10.0   1_565     S
V23     Ti22    10.0   1_545     S
V23     V26    10.0   .     S
Ti24     Ti25    10.0   .     S
Ti24     V26    10.0   .     S
Ti24     Er38    10.0   .     S
Ti25     V26    10.0   .     S
Ti25     Er34    10.0   .     S
Ti27     Ti28    10.0   1_455     S
Ti27     V29    10.0   .     S
Ti28     Ti27    10.0   1_655     S
Ti28     V29    10.0   1_655     S
V29     Ti28    10.0   1_455     S
V29     V32    10.0   .     S
Ti30     Ti31    10.0   .     S
Ti30     V32    10.0   .     S
Ti30     Er40    10.0   .     S
Ti31     V32    10.0   .     S
Ti31     Er36    10.0   .     S
Er33     Er34    10.0   1_554     S
Er33     Er35    10.0   1_645     S
Er33     Er39    10.0   1_655     S
Er34     Er33    10.0   1_556     S
Er34     Er36    10.0   1_645     S
Er34     Er40    10.0   1_655     S
Er35     Er36    10.0   1_554     S
Er35     Er33    10.0   1_465     S
Er35     Er37    10.0   1_565     S
Er36     Er35    10.0   1_556     S
Er36     Er34    10.0   1_465     S
Er36     Er38    10.0   1_565     S
Er37     Er38    10.0   1_554     S
Er37     Er39    10.0   .     S
Er37     Er35    10.0   1_545     S
Er38     Er37    10.0   1_556     S
Er38     Er36    10.0   1_545     S
Er38     Er40    10.0   .     S
Er39     Er40    10.0   1_554     S
Er39     Er33    10.0   1_455     S
Er40     Er39    10.0   1_556     S
Er40     Er34    10.0   1_455     S
