data_fly
_audit_creation_date              2020-02-02
_audit_creation_method            'Pymatgen'
_symmetry_space_group_name_H-M    'P1'
_symmetry_Int_Tables_number       1
loop_
_symmetry_equiv_pos_as_xyz
  x,y,z
_cell_length_a                    28.3652
_cell_length_b                    19.9999
_cell_length_c                    28.203
_cell_angle_alpha                 90.0
_cell_angle_beta                 90.0
_cell_angle_gamma                 90.0
loop_
_atom_site_label
_atom_site_type_symbol
_atom_site_fract_x
_atom_site_fract_y
_atom_site_fract_z
Er1     Er     0.75   0.0   0.25
Er2     Er     0.75   0.5   0.25
Er3     Er     0.75   0.5   0.75
Er4     Er     0.75   0.0   0.75
Er5     Er     0.25   0.0   0.75
Er6     Er     0.25   0.5   0.75
V7     V     0.5   0.0   0.5
V8     V     0.5   0.5   0.5
Er9     Er     0.25   0.0   0.25
Er10     Er     0.25   0.5   0.25
V11     V     0.0   0.0   0.0
V12     V     0.0   0.5   0.0
loop_
_geom_bond_atom_site_label_1
_geom_bond_atom_site_label_2
_geom_bond_distance
_geom_bond_site_symmetry_2
_ccdc_geom_bond_type
Er1     Er2    10.0   1_545     S
Er1     V7    10.0   .     S
Er1     V11    10.0   1_655     S
Er2     Er1    10.0   1_565     S
Er2     V8    10.0   .     S
Er2     V12    10.0   1_655     S
Er3     Er4    10.0   .     S
Er3     V8    10.0   .     S
Er3     V12    10.0   1_656     S
Er4     V11    10.0   1_656     S
Er4     V7    10.0   .     S
Er5     Er6    10.0   .     S
Er5     V7    10.0   .     S
Er5     V11    10.0   1_556     S
Er6     V8    10.0   .     S
Er6     V12    10.0   1_556     S
V7     V8    10.0   1_545     S
V7     V8    10.0   .     S
V7     Er9    10.0   .     S
V8     V7    10.0   1_565     S
V8     Er10    10.0   .     S
Er9     Er10    10.0   1_545     S
Er9     V11    10.0   .     S
Er10     Er9    10.0   1_565     S
Er10     V12    10.0   .     S
V11     Er1    10.0   1_455     S
V11     Er4    10.0   1_454     S
V11     V12    10.0   1_545     S
V11     V12    10.0   .     S
V11     Er5    10.0   1_554     S
V12     Er2    10.0   1_455     S
V12     Er3    10.0   1_454     S
V12     V11    10.0   1_565     S
V12     Er6    10.0   1_554     S
