data_fmz
_audit_creation_date              2020-02-02
_audit_creation_method            'Pymatgen'
_symmetry_space_group_name_H-M    'P1'
_symmetry_Int_Tables_number       1
loop_
_symmetry_equiv_pos_as_xyz
  x,y,z
_cell_length_a                    32.8781
_cell_length_b                    32.8781
_cell_length_c                    74.8739
_cell_angle_alpha                 90.0
_cell_angle_beta                 90.0
_cell_angle_gamma                 120.0
loop_
_atom_site_label
_atom_site_type_symbol
_atom_site_fract_x
_atom_site_fract_y
_atom_site_fract_z
V1     V     0.0974   0.4596   0.5317
V2     V     0.9026   0.5404   0.4683
Er3     Er     0.0408   0.7074   0.5833
V4     V     0.236   0.2071   0.135
V5     V     0.4307   0.1262   0.1983
Er6     Er     0.2926   0.9592   0.0833
Er7     Er     0.3741   0.3741   0.25
V8     V     0.2071   0.236   0.365
V9     V     0.1262   0.4307   0.3017
Er10     Er     0.9592   0.2926   0.4167
V11     V     0.5404   0.9026   0.0317
V12     V     0.4596   0.0974   0.9683
Er13     Er     0.7074   0.0408   0.9167
V14     V     0.8738   0.5693   0.6983
V15     V     0.7929   0.764   0.635
V16     V     0.5693   0.8738   0.8017
V17     V     0.764   0.7929   0.865
Er18     Er     0.6259   0.6259   0.75
V19     V     0.3045   0.4307   0.8017
V20     V     0.0289   0.236   0.865
Er21     Er     0.0   0.3741   0.75
Er22     Er     0.3333   0.2926   0.9167
V23     V     0.3622   0.4596   0.0317
V24     V     0.6378   0.5404   0.9683
Er25     Er     0.6667   0.7074   0.0833
V26     V     0.6955   0.1262   0.6983
V27     V     0.9711   0.2071   0.635
V28     V     0.3622   0.9026   0.5317
V29     V     0.6378   0.0974   0.4683
Er30     Er     0.6667   0.9592   0.5833
Er31     Er     0.3333   0.0408   0.4167
V32     V     0.0289   0.7929   0.365
V33     V     0.3045   0.8738   0.3017
V34     V     0.9711   0.764   0.135
V35     V     0.6955   0.5693   0.1983
Er36     Er     0.0   0.6259   0.25
V37     V     0.1262   0.6955   0.8017
V38     V     0.2071   0.9711   0.865
Er39     Er     0.3741   0.0   0.75
V40     V     0.764   0.9711   0.365
V41     V     0.5693   0.6955   0.3017
V42     V     0.0974   0.6378   0.0317
V43     V     0.9026   0.3622   0.9683
V44     V     0.7929   0.0289   0.135
V45     V     0.8738   0.3045   0.1983
Er46     Er     0.0408   0.3333   0.0833
Er47     Er     0.6259   0.0   0.25
Er48     Er     0.9592   0.6667   0.9167
V49     V     0.4596   0.3622   0.4683
V50     V     0.5404   0.6378   0.5317
Er51     Er     0.7074   0.6667   0.4167
V52     V     0.4307   0.3045   0.6983
V53     V     0.236   0.0289   0.635
Er54     Er     0.2926   0.3333   0.5833
loop_
_geom_bond_atom_site_label_1
_geom_bond_atom_site_label_2
_geom_bond_distance
_geom_bond_site_symmetry_2
_ccdc_geom_bond_type
V1     Er10    10.0   1_455     S
V1     Er3    10.0   .     S
V1     Er54    10.0   .     S
V2     Er10    10.0   .     S
V2     Er3    10.0   1_655     S
V2     Er51    10.0   .     S
Er3     V2    10.0   1_455     S
Er3     V14    10.0   1_455     S
Er3     V15    10.0   1_455     S
Er3     V28    10.0   .     S
Er3     V53    10.0   1_565     S
V4     Er7    10.0   .     S
V4     Er6    10.0   1_545     S
V4     Er46    10.0   .     S
V5     Er7    10.0   .     S
V5     Er6    10.0   1_545     S
V5     Er47    10.0   .     S
Er6     V5    10.0   1_565     S
Er6     V4    10.0   1_565     S
Er6     V12    10.0   1_564     S
Er6     V11    10.0   .     S
Er6     V34    10.0   1_455     S
Er6     V42    10.0   .     S
Er7     V8    10.0   .     S
Er7     V9    10.0   .     S
Er7     V35    10.0   .     S
Er7     V41    10.0   .     S
V8     Er10    10.0   1_455     S
V8     Er31    10.0   .     S
V9     Er10    10.0   1_455     S
V9     Er36    10.0   .     S
Er10     V1    10.0   1_655     S
Er10     V9    10.0   1_655     S
Er10     V8    10.0   1_655     S
Er10     V29    10.0   .     S
Er10     V40    10.0   1_545     S
V11     Er13    10.0   1_564     S
V11     Er25    10.0   .     S
V12     Er13    10.0   .     S
V12     Er6    10.0   1_546     S
V12     Er22    10.0   .     S
Er13     V11    10.0   1_546     S
Er13     V16    10.0   1_545     S
Er13     V17    10.0   1_545     S
Er13     V43    10.0   .     S
Er13     V20    10.0   1_655     S
V14     Er3    10.0   1_655     S
V14     Er18    10.0   .     S
V14     Er21    10.0   1_655     S
V15     Er3    10.0   1_655     S
V15     Er18    10.0   .     S
V15     Er30    10.0   .     S
V16     Er13    10.0   1_565     S
V16     Er18    10.0   .     S
V16     Er39    10.0   1_565     S
V17     Er13    10.0   1_565     S
V17     Er18    10.0   .     S
V17     Er48    10.0   .     S
Er18     V19    10.0   .     S
Er18     V52    10.0   .     S
V19     Er22    10.0   .     S
V19     Er21    10.0   .     S
V20     Er13    10.0   1_455     S
V20     Er22    10.0   .     S
V20     Er21    10.0   .     S
Er21     V27    10.0   1_455     S
Er21     V26    10.0   1_455     S
Er21     V14    10.0   1_455     S
Er21     V37    10.0   .     S
Er22     V23    10.0   1_556     S
Er22     V24    10.0   .     S
Er22     V38    10.0   1_545     S
V23     Er22    10.0   1_554     S
V23     Er25    10.0   .     S
V23     Er46    10.0   .     S
V24     Er25    10.0   1_556     S
V24     Er48    10.0   .     S
Er25     V24    10.0   1_554     S
Er25     V35    10.0   .     S
Er25     V34    10.0   .     S
Er25     V44    10.0   1_565     S
V26     Er30    10.0   1_545     S
V26     Er21    10.0   1_655     S
V26     Er39    10.0   .     S
V27     Er30    10.0   1_545     S
V27     Er21    10.0   1_655     S
V27     Er54    10.0   1_655     S
V28     Er31    10.0   1_565     S
V28     Er30    10.0   .     S
V29     Er31    10.0   .     S
V29     Er30    10.0   1_545     S
Er30     V26    10.0   1_565     S
Er30     V27    10.0   1_565     S
Er30     V29    10.0   1_565     S
Er30     V50    10.0   .     S
Er31     V28    10.0   1_545     S
Er31     V33    10.0   1_545     S
Er31     V32    10.0   1_545     S
Er31     V49    10.0   .     S
V32     Er36    10.0   .     S
V32     Er31    10.0   1_565     S
V32     Er51    10.0   1_455     S
V33     Er36    10.0   .     S
V33     Er31    10.0   1_565     S
V33     Er47    10.0   1_565     S
V34     Er6    10.0   1_655     S
V34     Er36    10.0   1_655     S
V35     Er36    10.0   1_655     S
Er36     V34    10.0   1_455     S
Er36     V35    10.0   1_455     S
Er36     V45    10.0   1_455     S
V37     Er48    10.0   1_455     S
V37     Er39    10.0   1_565     S
V38     Er22    10.0   1_565     S
V38     Er48    10.0   1_455     S
V38     Er39    10.0   1_565     S
Er39     V38    10.0   1_545     S
Er39     V37    10.0   1_545     S
Er39     V53    10.0   .     S
Er39     V52    10.0   .     S
Er39     V16    10.0   1_545     S
V40     Er10    10.0   1_565     S
V40     Er47    10.0   1_565     S
V40     Er51    10.0   .     S
V41     Er47    10.0   1_565     S
V41     Er51    10.0   .     S
V42     Er48    10.0   1_454     S
V42     Er46    10.0   .     S
V43     Er48    10.0   .     S
V43     Er46    10.0   1_656     S
V44     Er25    10.0   1_545     S
V44     Er47    10.0   .     S
V44     Er46    10.0   1_655     S
V45     Er36    10.0   1_655     S
V45     Er47    10.0   .     S
V45     Er46    10.0   1_655     S
Er46     V43    10.0   1_454     S
Er46     V45    10.0   1_455     S
Er46     V44    10.0   1_455     S
Er47     V40    10.0   1_545     S
Er47     V41    10.0   1_545     S
Er47     V33    10.0   1_545     S
Er48     V37    10.0   1_655     S
Er48     V38    10.0   1_655     S
Er48     V42    10.0   1_656     S
V49     Er54    10.0   .     S
V49     Er51    10.0   .     S
V50     Er54    10.0   .     S
V50     Er51    10.0   .     S
Er51     V32    10.0   1_655     S
V52     Er54    10.0   .     S
V53     Er3    10.0   1_545     S
V53     Er54    10.0   .     S
Er54     V27    10.0   1_455     S
