data_fna
_audit_creation_date              2020-02-02
_audit_creation_method            'Pymatgen'
_symmetry_space_group_name_H-M    'P1'
_symmetry_Int_Tables_number       1
loop_
_symmetry_equiv_pos_as_xyz
  x,y,z
_cell_length_a                    26.3053
_cell_length_b                    26.3053
_cell_length_c                    29.2991
_cell_angle_alpha                 90.0
_cell_angle_beta                 90.0
_cell_angle_gamma                 120.0
loop_
_atom_site_label
_atom_site_type_symbol
_atom_site_fract_x
_atom_site_fract_y
_atom_site_fract_z
V1     V     0.33   0.9966   0.3294
V2     V     0.0034   0.67   0.504
V3     V     0.33   0.3334   0.8373
V4     V     0.0034   0.3334   0.6627
V5     V     0.3334   0.0034   0.6706
V6     V     0.3334   0.33   0.496
V7     V     0.67   0.6666   0.3373
V8     V     0.9966   0.6666   0.1627
V9     V     0.6666   0.67   0.996
V10     V     0.67   0.0034   0.8294
V11     V     0.6666   0.9966   0.1706
V12     V     0.9966   0.33   0.004
loop_
_geom_bond_atom_site_label_1
_geom_bond_atom_site_label_2
_geom_bond_distance
_geom_bond_site_symmetry_2
_ccdc_geom_bond_type
V1     V8    10.0   1_455     S
V1     V2    10.0   .     S
V1     V5    10.0   1_565     S
V1     V6    10.0   1_565     S
V1     V11    10.0   .     S
V2     V8    10.0   1_455     S
V2     V5    10.0   1_565     S
V2     V7    10.0   1_455     S
V2     V4    10.0   .     S
V3     V12    10.0   1_456     S
V3     V4    10.0   .     S
V3     V6    10.0   .     S
V3     V5    10.0   .     S
V3     V9    10.0   .     S
V4     V6    10.0   .     S
V4     V10    10.0   1_455     S
V4     V12    10.0   1_456     S
V5     V2    10.0   1_545     S
V5     V6    10.0   .     S
V5     V1    10.0   1_545     S
V5     V10    10.0   .     S
V6     V1    10.0   1_545     S
V6     V7    10.0   .     S
V7     V2    10.0   1_655     S
V7     V8    10.0   .     S
V7     V9    10.0   1_554     S
V7     V11    10.0   .     S
V8     V1    10.0   1_655     S
V8     V2    10.0   1_655     S
V8     V9    10.0   1_554     S
V8     V12    10.0   .     S
V9     V7    10.0   1_556     S
V9     V8    10.0   1_556     S
V9     V10    10.0   1_565     S
V9     V11    10.0   1_556     S
V10     V9    10.0   1_545     S
V10     V4    10.0   1_655     S
V10     V12    10.0   1_556     S
V10     V11    10.0   1_546     S
V11     V10    10.0   1_564     S
V11     V9    10.0   1_554     S
V11     V12    10.0   1_565     S
V12     V3    10.0   1_654     S
V12     V10    10.0   1_554     S
V12     V4    10.0   1_654     S
V12     V11    10.0   1_545     S
