data_fnh
_audit_creation_date              2020-02-02
_audit_creation_method            'Pymatgen'
_symmetry_space_group_name_H-M    'P1'
_symmetry_Int_Tables_number       1
loop_
_symmetry_equiv_pos_as_xyz
  x,y,z
_cell_length_a                    42.8082
_cell_length_b                    42.8082
_cell_length_c                    13.2706
_cell_angle_alpha                 90.0
_cell_angle_beta                 90.0
_cell_angle_gamma                 120.0
loop_
_atom_site_label
_atom_site_type_symbol
_atom_site_fract_x
_atom_site_fract_y
_atom_site_fract_z
V1     V     0.4342   0.8685   0.9167
V2     V     0.4342   0.5658   0.9167
V3     V     0.2324   0.4649   0.4167
V4     V     0.1315   0.5658   0.9167
V5     V     0.2324   0.7676   0.4167
V6     V     0.5351   0.7676   0.4167
V7     V     0.8991   0.7982   0.75
V8     V     0.1009   0.8991   0.25
V9     V     0.7982   0.8991   0.25
V10     V     0.8991   0.1009   0.75
V11     V     0.2018   0.1009   0.75
V12     V     0.1009   0.2018   0.25
V13     V     0.7676   0.5351   0.5833
V14     V     0.7676   0.2324   0.5833
V15     V     0.5658   0.1315   0.0833
V16     V     0.4649   0.2324   0.5833
V17     V     0.5658   0.4342   0.0833
V18     V     0.8685   0.4342   0.0833
loop_
_geom_bond_atom_site_label_1
_geom_bond_atom_site_label_2
_geom_bond_distance
_geom_bond_site_symmetry_2
_ccdc_geom_bond_type
V1     V15    10.0   1_566     S
V1     V6    10.0   .     S
V1     V5    10.0   .     S
V1     V6    10.0   1_556     S
V1     V5    10.0   1_556     S
V2     V17    10.0   1_556     S
V2     V6    10.0   .     S
V2     V6    10.0   1_556     S
V2     V3    10.0   .     S
V2     V3    10.0   1_556     S
V3     V12    10.0   .     S
V3     V4    10.0   .     S
V3     V2    10.0   1_554     S
V3     V4    10.0   1_554     S
V4     V18    10.0   1_456     S
V4     V5    10.0   .     S
V4     V5    10.0   1_556     S
V4     V3    10.0   1_556     S
V5     V8    10.0   .     S
V5     V4    10.0   1_554     S
V5     V1    10.0   1_554     S
V6     V2    10.0   1_554     S
V6     V1    10.0   1_554     S
V6     V9    10.0   .     S
V7     V13    10.0   .     S
V7     V8    10.0   1_655     S
V7     V8    10.0   1_656     S
V7     V9    10.0   1_556     S
V7     V9    10.0   .     S
V8     V7    10.0   1_455     S
V8     V7    10.0   1_454     S
V8     V11    10.0   1_565     S
V8     V11    10.0   1_564     S
V9     V7    10.0   1_554     S
V9     V10    10.0   1_565     S
V9     V10    10.0   1_564     S
V10     V12    10.0   1_655     S
V10     V12    10.0   1_656     S
V10     V9    10.0   1_545     S
V10     V9    10.0   1_546     S
V10     V14    10.0   .     S
V11     V16    10.0   .     S
V11     V12    10.0   .     S
V11     V8    10.0   1_545     S
V11     V12    10.0   1_556     S
V11     V8    10.0   1_546     S
V12     V10    10.0   1_455     S
V12     V10    10.0   1_454     S
V12     V11    10.0   1_554     S
V13     V18    10.0   1_556     S
V13     V18    10.0   .     S
V13     V17    10.0   .     S
V13     V17    10.0   1_556     S
V14     V18    10.0   1_556     S
V14     V15    10.0   .     S
V14     V15    10.0   1_556     S
V14     V18    10.0   .     S
V15     V1    10.0   1_544     S
V15     V16    10.0   1_554     S
V15     V16    10.0   .     S
V15     V14    10.0   1_554     S
V16     V15    10.0   1_556     S
V16     V17    10.0   1_556     S
V16     V17    10.0   .     S
V17     V2    10.0   1_554     S
V17     V16    10.0   1_554     S
V17     V13    10.0   1_554     S
V18     V4    10.0   1_654     S
V18     V13    10.0   1_554     S
V18     V14    10.0   1_554     S
