data_fnn
_audit_creation_date              2020-02-02
_audit_creation_method            'Pymatgen'
_symmetry_space_group_name_H-M    'P1'
_symmetry_Int_Tables_number       1
loop_
_symmetry_equiv_pos_as_xyz
  x,y,z
_cell_length_a                    30.3807
_cell_length_b                    30.3807
_cell_length_c                    30.3807
_cell_angle_alpha                 90.0
_cell_angle_beta                 90.0
_cell_angle_gamma                 90.0
loop_
_atom_site_label
_atom_site_type_symbol
_atom_site_fract_x
_atom_site_fract_y
_atom_site_fract_z
V1     V     0.0   0.25   0.7104
V2     V     0.75   0.2104   0.5
V3     V     0.25   0.2896   0.5
V4     V     0.0   0.75   0.7896
V5     V     0.75   0.7896   0.0
V6     V     0.7896   0.0   0.75
V7     V     0.5   0.75   0.2104
V8     V     0.7104   0.0   0.25
V9     V     0.5   0.25   0.2896
V10     V     0.2896   0.5   0.25
V11     V     0.25   0.7104   0.0
V12     V     0.2104   0.5   0.75
V13     V     0.25   0.9604   0.5
V14     V     0.5   0.75   0.5396
V15     V     0.5   0.25   0.9604
V16     V     0.5396   0.5   0.75
V17     V     0.75   0.5396   0.5
V18     V     0.9604   0.5   0.25
V19     V     0.25   0.0396   0.0
V20     V     0.4604   0.0   0.75
V21     V     0.0396   0.0   0.25
V22     V     0.0   0.75   0.4604
V23     V     0.0   0.25   0.0396
V24     V     0.75   0.4604   0.0
loop_
_geom_bond_atom_site_label_1
_geom_bond_atom_site_label_2
_geom_bond_distance
_geom_bond_site_symmetry_2
_ccdc_geom_bond_type
V1     V2    10.0   1_455     S
V1     V6    10.0   1_455     S
V1     V3    10.0   .     S
V1     V12    10.0   .     S
V1     V23    10.0   1_556     S
V2     V1    10.0   1_655     S
V2     V6    10.0   .     S
V2     V8    10.0   .     S
V2     V9    10.0   .     S
V2     V17    10.0   .     S
V3     V9    10.0   .     S
V3     V12    10.0   .     S
V3     V10    10.0   .     S
V3     V13    10.0   1_545     S
V4     V5    10.0   1_456     S
V4     V6    10.0   1_465     S
V4     V11    10.0   1_556     S
V4     V12    10.0   .     S
V4     V22    10.0   .     S
V5     V4    10.0   1_654     S
V5     V6    10.0   1_564     S
V5     V7    10.0   .     S
V5     V8    10.0   1_565     S
V5     V24    10.0   .     S
V6     V1    10.0   1_655     S
V6     V5    10.0   1_546     S
V6     V4    10.0   1_645     S
V6     V20    10.0   .     S
V7     V11    10.0   .     S
V7     V8    10.0   1_565     S
V7     V10    10.0   .     S
V7     V14    10.0   .     S
V8     V5    10.0   1_545     S
V8     V7    10.0   1_545     S
V8     V9    10.0   .     S
V8     V21    10.0   1_655     S
V9     V10    10.0   .     S
V9     V15    10.0   1_554     S
V10     V11    10.0   .     S
V10     V18    10.0   1_455     S
V11     V12    10.0   1_554     S
V11     V4    10.0   1_554     S
V11     V19    10.0   1_565     S
V12     V11    10.0   1_556     S
V12     V16    10.0   .     S
V13     V21    10.0   1_565     S
V13     V22    10.0   .     S
V13     V20    10.0   1_565     S
V13     V14    10.0   .     S
V13     V3    10.0   1_565     S
V14     V16    10.0   .     S
V14     V17    10.0   .     S
V14     V20    10.0   1_565     S
V15     V24    10.0   1_556     S
V15     V16    10.0   .     S
V15     V20    10.0   .     S
V15     V19    10.0   1_556     S
V15     V9    10.0   1_556     S
V16     V17    10.0   .     S
V16     V24    10.0   1_556     S
V17     V18    10.0   .     S
V17     V22    10.0   1_655     S
V18     V23    10.0   1_655     S
V18     V24    10.0   .     S
V18     V22    10.0   1_655     S
V18     V10    10.0   1_655     S
V19     V15    10.0   1_554     S
V19     V20    10.0   1_554     S
V19     V21    10.0   .     S
V19     V23    10.0   .     S
V19     V11    10.0   1_545     S
V20     V13    10.0   1_545     S
V20     V14    10.0   1_545     S
V20     V19    10.0   1_556     S
V21     V13    10.0   1_545     S
V21     V22    10.0   1_545     S
V21     V23    10.0   .     S
V21     V8    10.0   1_455     S
V22     V17    10.0   1_455     S
V22     V18    10.0   1_455     S
V22     V21    10.0   1_565     S
V23     V18    10.0   1_455     S
V23     V24    10.0   1_455     S
V23     V1    10.0   1_554     S
V24     V15    10.0   1_554     S
V24     V16    10.0   1_554     S
V24     V23    10.0   1_655     S
