data_foga
_audit_creation_date              2020-02-02
_audit_creation_method            'Pymatgen'
_symmetry_space_group_name_H-M    'P1'
_symmetry_Int_Tables_number       1
loop_
_symmetry_equiv_pos_as_xyz
  x,y,z
_cell_length_a                    89.0865
_cell_length_b                    89.0865
_cell_length_c                    89.7561
_cell_angle_alpha                 90.0
_cell_angle_beta                 90.0
_cell_angle_gamma                 120.0
loop_
_atom_site_label
_atom_site_type_symbol
_atom_site_fract_x
_atom_site_fract_y
_atom_site_fract_z
V1     V     0.8818   0.6513   0.6126
V2     V     0.7695   0.6513   0.6126
V3     V     0.7849   0.6821   0.7208
V4     V     0.8972   0.6821   0.7208
Er5     Er     0.043   0.6748   0.4583
Er6     Er     0.957   0.6319   0.5417
Ti7     Ti     0.0   0.5561   0.5
Er8     Er     0.6319   0.6748   0.4583
Er9     Er     0.6748   0.6319   0.5417
Ti10     Ti     0.5561   0.5561   0.5
Er11     Er     0.0082   0.7096   0.2084
Er12     Er     0.9652   0.6237   0.125
Ti13     Ti     0.8895   0.6667   0.1667
V14     V     0.0154   0.5638   0.9459
V15     V     0.9846   0.5484   0.0541
Er16     Er     0.9918   0.7015   0.7916
Er17     Er     0.0348   0.6585   0.875
Ti18     Ti     0.1105   0.7772   0.8333
V19     V     0.9846   0.4362   0.0541
V20     V     0.0154   0.4516   0.9459
Er21     Er     0.0348   0.3763   0.875
Er22     Er     0.9918   0.2904   0.7916
Ti23     Ti     0.1105   0.3333   0.8333
V24     V     0.7695   0.1182   0.6126
V25     V     0.8818   0.2305   0.6126
V26     V     0.8972   0.2151   0.7208
V27     V     0.7849   0.1028   0.7208
Er28     Er     0.957   0.3252   0.5417
Er29     Er     0.043   0.3681   0.4583
Ti30     Ti     0.0   0.4439   0.5
Er31     Er     0.7096   0.0082   0.7916
Er32     Er     0.6237   0.9652   0.875
Ti33     Ti     0.6667   0.8895   0.8333
V34     V     0.5484   0.9846   0.9459
V35     V     0.5638   0.0154   0.0541
Er36     Er     0.6585   0.0348   0.125
Er37     Er     0.7015   0.9918   0.2084
Ti38     Ti     0.7772   0.1105   0.1667
V39     V     0.6513   0.7695   0.3874
V40     V     0.6513   0.8818   0.3874
V41     V     0.6821   0.7849   0.2792
V42     V     0.6821   0.8972   0.2792
Er43     Er     0.6319   0.957   0.4583
Er44     Er     0.6748   0.043   0.5417
Ti45     Ti     0.5561   0.0   0.5
Er46     Er     0.3415   0.3763   0.875
Er47     Er     0.2985   0.2904   0.7916
Ti48     Ti     0.2228   0.3333   0.8333
Er49     Er     0.6585   0.6237   0.125
Er50     Er     0.7015   0.7096   0.2084
Ti51     Ti     0.7772   0.6667   0.1667
V52     V     0.4516   0.4362   0.0541
V53     V     0.5638   0.5484   0.0541
V54     V     0.4362   0.4516   0.9459
V55     V     0.5484   0.5638   0.9459
Er56     Er     0.7096   0.7015   0.7916
Er57     Er     0.6237   0.6585   0.875
Ti58     Ti     0.6667   0.7772   0.8333
Er59     Er     0.3763   0.3415   0.125
Er60     Er     0.2904   0.2985   0.2084
Ti61     Ti     0.3333   0.2228   0.1667
Er62     Er     0.9652   0.3415   0.125
Er63     Er     0.0082   0.2985   0.2084
Ti64     Ti     0.8895   0.2228   0.1667
V65     V     0.4516   0.0154   0.0541
V66     V     0.4362   0.9846   0.9459
Er67     Er     0.2985   0.0082   0.7916
Er68     Er     0.3415   0.9652   0.875
Ti69     Ti     0.2228   0.8895   0.8333
V70     V     0.2151   0.8972   0.2792
V71     V     0.1028   0.7849   0.2792
V72     V     0.2305   0.8818   0.3874
V73     V     0.1182   0.7695   0.3874
Er74     Er     0.3763   0.0348   0.125
Er75     Er     0.2904   0.9918   0.2084
Ti76     Ti     0.3333   0.1105   0.1667
Er77     Er     0.3252   0.957   0.4583
Er78     Er     0.3681   0.043   0.5417
Ti79     Ti     0.4439   0.0   0.5
V80     V     0.2305   0.3487   0.3874
V81     V     0.1028   0.3179   0.2792
V82     V     0.2151   0.3179   0.2792
V83     V     0.1182   0.3487   0.3874
V84     V     0.3487   0.2305   0.6126
V85     V     0.3179   0.1028   0.7208
V86     V     0.3179   0.2151   0.7208
V87     V     0.3487   0.1182   0.6126
Er88     Er     0.3252   0.3681   0.4583
Er89     Er     0.3681   0.3252   0.5417
Ti90     Ti     0.4439   0.4439   0.5
loop_
_geom_bond_atom_site_label_1
_geom_bond_atom_site_label_2
_geom_bond_distance
_geom_bond_site_symmetry_2
_ccdc_geom_bond_type
V1     V2    10.0   .     S
V1     V4    10.001   .     S
V1     Er6    10.0   .     S
V2     V3    10.001   .     S
V2     Er9    10.0   .     S
V3     V4    10.0   .     S
V3     Er56    10.0   .     S
V4     Er16    10.0   .     S
Er5     Er6    9.999   1_455     S
Er5     Ti7    10.0   .     S
Er5     V73    10.0   .     S
Er6     Er5    9.999   1_655     S
Er6     Ti7    10.0   1_655     S
Ti7     Er6    10.0   1_455     S
Ti7     Ti30    10.001   .     S
Er8     Er9    9.999   .     S
Er8     Ti10    10.0   .     S
Er8     V39    10.0   .     S
Er9     Ti10    10.0   .     S
Ti10     Ti90    10.001   .     S
Er11     Er12    9.999   1_455     S
Er11     Ti13    10.0   1_455     S
Er11     V71    10.0   .     S
Er12     Er11    9.999   1_655     S
Er12     Ti13    10.0   .     S
Er12     V15    10.0   .     S
Ti13     Er11    10.0   1_655     S
Ti13     Ti51    10.001   .     S
V14     V20    10.0   .     S
V14     V15    10.001   1_456     S
V14     Er17    10.0   .     S
V15     V14    10.001   1_654     S
V15     V19    10.0   .     S
Er16     Er17    9.999   1_655     S
Er16     Ti18    10.0   1_655     S
Er17     Er16    9.999   1_455     S
Er17     Ti18    10.0   .     S
Ti18     Er16    10.0   1_455     S
Ti18     Ti69    10.001   .     S
V19     V20    10.001   1_654     S
V19     Er62    10.0   .     S
V20     V19    10.001   1_456     S
V20     Er21    10.0   .     S
Er21     Er22    9.999   1_455     S
Er21     Ti23    10.0   .     S
Er22     Er21    9.999   1_655     S
Er22     Ti23    10.0   1_655     S
Er22     V26    10.0   .     S
Ti23     Er22    10.0   1_455     S
Ti23     Ti48    10.001   .     S
V24     V25    10.0   .     S
V24     V27    10.001   .     S
V24     Er44    10.0   .     S
V25     V26    10.001   .     S
V25     Er28    10.0   .     S
V26     V27    10.0   .     S
V27     Er31    10.0   .     S
Er28     Er29    9.999   1_655     S
Er28     Ti30    10.0   1_655     S
Er29     Er28    9.999   1_455     S
Er29     Ti30    10.0   .     S
Er29     V83    10.0   .     S
Ti30     Er28    10.0   1_455     S
Er31     Er32    9.999   1_545     S
Er31     Ti33    10.0   1_545     S
Er32     Er31    9.999   1_565     S
Er32     Ti33    10.0   .     S
Er32     V34    10.0   .     S
Ti33     Er31    10.0   1_565     S
Ti33     Ti58    10.001   .     S
V34     V66    10.0   .     S
V34     V35    10.001   1_566     S
V35     V34    10.001   1_544     S
V35     V65    10.0   .     S
V35     Er36    10.0   .     S
Er36     Er37    9.999   1_545     S
Er36     Ti38    10.0   .     S
Er37     Er36    9.999   1_565     S
Er37     Ti38    10.0   1_565     S
Er37     V42    10.0   .     S
Ti38     Er37    10.0   1_545     S
Ti38     Ti64    10.001   .     S
V39     V40    10.0   .     S
V39     V41    10.001   .     S
V40     V42    10.001   .     S
V40     Er43    10.0   .     S
V41     V42    10.0   .     S
V41     Er50    10.0   .     S
Er43     Er44    9.999   1_565     S
Er43     Ti45    10.0   1_565     S
Er44     Er43    9.999   1_545     S
Er44     Ti45    10.0   .     S
Ti45     Er43    10.0   1_545     S
Ti45     Ti79    10.001   .     S
Er46     Er47    9.999   .     S
Er46     Ti48    10.0   .     S
Er46     V54    10.0   .     S
Er47     Ti48    10.0   .     S
Er47     V86    10.0   .     S
Er49     Er50    9.999   .     S
Er49     Ti51    10.0   .     S
Er49     V53    10.0   .     S
Er50     Ti51    10.0   .     S
V52     V53    10.0   .     S
V52     V54    10.001   1_554     S
V52     Er59    10.0   .     S
V53     V55    10.001   1_554     S
V54     V52    10.001   1_556     S
V54     V55    10.0   .     S
V55     V53    10.001   1_556     S
V55     Er57    10.0   .     S
Er56     Er57    9.999   .     S
Er56     Ti58    10.0   .     S
Er57     Ti58    10.0   .     S
Er59     Er60    9.999   .     S
Er59     Ti61    10.0   .     S
Er60     Ti61    10.0   .     S
Er60     V82    10.0   .     S
Ti61     Ti76    10.001   .     S
Er62     Er63    9.999   1_655     S
Er62     Ti64    10.0   .     S
Er63     Er62    9.999   1_455     S
Er63     Ti64    10.0   1_455     S
Er63     V81    10.0   .     S
Ti64     Er63    10.0   1_655     S
V65     V66    10.001   1_544     S
V65     Er74    10.0   .     S
V66     V65    10.001   1_566     S
V66     Er68    10.0   .     S
Er67     Er68    9.999   1_545     S
Er67     Ti69    10.0   1_545     S
Er67     V85    10.0   .     S
Er68     Er67    9.999   1_565     S
Er68     Ti69    10.0   .     S
Ti69     Er67    10.0   1_565     S
V70     V71    10.0   .     S
V70     V72    10.001   .     S
V70     Er75    10.0   .     S
V71     V73    10.001   .     S
V72     V73    10.0   .     S
V72     Er77    10.0   .     S
Er74     Er75    9.999   1_545     S
Er74     Ti76    10.0   .     S
Er75     Er74    9.999   1_565     S
Er75     Ti76    10.0   1_565     S
Ti76     Er75    10.0   1_545     S
Er77     Er78    9.999   1_565     S
Er77     Ti79    10.0   1_565     S
Er78     Er77    9.999   1_545     S
Er78     Ti79    10.0   .     S
Er78     V87    10.0   .     S
Ti79     Er77    10.0   1_545     S
V80     V82    10.001   .     S
V80     V83    10.0   .     S
V80     Er88    10.0   .     S
V81     V82    10.0   .     S
V81     V83    10.001   .     S
V84     V87    10.0   .     S
V84     V86    10.001   .     S
V84     Er89    10.0   .     S
V85     V87    10.001   .     S
V85     V86    10.0   .     S
Er88     Er89    9.999   .     S
Er88     Ti90    10.0   .     S
Er89     Ti90    10.0   .     S
