data_fon
_audit_creation_date              2020-02-02
_audit_creation_method            'Pymatgen'
_symmetry_space_group_name_H-M    'P1'
_symmetry_Int_Tables_number       1
loop_
_symmetry_equiv_pos_as_xyz
  x,y,z
_cell_length_a                    17.3248
_cell_length_b                    17.3248
_cell_length_c                    24.4827
_cell_angle_alpha                 90.0
_cell_angle_beta                 90.0
_cell_angle_gamma                 90.0
loop_
_atom_site_label
_atom_site_type_symbol
_atom_site_fract_x
_atom_site_fract_y
_atom_site_fract_z
V1     V     0.25   0.4171   0.9163
V2     V     0.25   0.0829   0.9163
Er3     Er     0.25   0.75   0.25
V4     V     0.5829   0.75   0.5837
V5     V     0.9171   0.75   0.5837
V6     V     0.4171   0.25   0.4163
V7     V     0.0829   0.25   0.4163
Er8     Er     0.75   0.25   0.75
V9     V     0.75   0.5829   0.0837
V10     V     0.75   0.9171   0.0837
loop_
_geom_bond_atom_site_label_1
_geom_bond_atom_site_label_2
_geom_bond_distance
_geom_bond_site_symmetry_2
_ccdc_geom_bond_type
V1     Er8    10.0   .     S
V1     Er3    10.0   1_556     S
V1     Er8    10.0   1_455     S
V2     Er8    10.0   .     S
V2     Er3    10.0   1_546     S
V2     Er8    10.0   1_455     S
Er3     V6    10.0   .     S
Er3     V7    10.0   .     S
Er3     V9    10.0   .     S
Er3     V10    10.0   .     S
Er3     V10    10.0   1_455     S
Er3     V9    10.0   1_455     S
Er3     V7    10.0   1_565     S
Er3     V6    10.0   1_565     S
Er3     V1    10.0   1_554     S
Er3     V2    10.0   1_564     S
Er3     V4    10.0   .     S
Er3     V5    10.0   1_455     S
V4     Er8    10.0   .     S
V4     Er8    10.0   1_565     S
V5     Er8    10.0   .     S
V5     Er8    10.0   1_565     S
V5     Er3    10.0   1_655     S
V6     Er3    10.0   1_545     S
V6     Er8    10.0   .     S
V7     Er3    10.0   1_545     S
V7     Er8    10.0   1_455     S
Er8     V4    10.0   1_545     S
Er8     V5    10.0   1_545     S
Er8     V1    10.0   1_655     S
Er8     V2    10.0   1_655     S
Er8     V7    10.0   1_655     S
Er8     V9    10.0   1_556     S
Er8     V10    10.0   1_546     S
V9     Er3    10.0   1_655     S
V9     Er8    10.0   1_554     S
V10     Er3    10.0   1_655     S
V10     Er8    10.0   1_564     S
