data_fsa
_audit_creation_date              2020-02-02
_audit_creation_method            'Pymatgen'
_symmetry_space_group_name_H-M    'P1'
_symmetry_Int_Tables_number       1
loop_
_symmetry_equiv_pos_as_xyz
  x,y,z
_cell_length_a                    30.8951
_cell_length_b                    30.8951
_cell_length_c                    22.4221
_cell_angle_alpha                 90.0
_cell_angle_beta                 90.0
_cell_angle_gamma                 120.0
loop_
_atom_site_label
_atom_site_type_symbol
_atom_site_fract_x
_atom_site_fract_y
_atom_site_fract_z
Er1     Er     0.3333   0.6667   0.5
V2     V     0.3738   0.1869   0.223
V3     V     0.8131   0.6262   0.777
V4     V     0.3738   0.1869   0.777
V5     V     0.1869   0.8131   0.777
V6     V     0.1869   0.8131   0.223
V7     V     0.8131   0.6262   0.223
V8     V     0.6262   0.8131   0.223
V9     V     0.1869   0.3738   0.777
V10     V     0.8131   0.1869   0.777
V11     V     0.6262   0.8131   0.777
V12     V     0.8131   0.1869   0.223
V13     V     0.1869   0.3738   0.223
Er14     Er     0.6667   0.3333   0.5
loop_
_geom_bond_atom_site_label_1
_geom_bond_atom_site_label_2
_geom_bond_distance
_geom_bond_site_symmetry_2
_ccdc_geom_bond_type
Er1     V9    10.0   .     S
Er1     V13    10.0   .     S
Er1     V11    10.0   .     S
Er1     V5    10.0   .     S
Er1     V8    10.0   .     S
Er1     V6    10.0   .     S
V2     V13    10.0   .     S
V2     V4    10.0   1_554     S
V2     V6    10.0   1_545     S
V2     Er14    10.0   .     S
V3     V11    10.0   .     S
V3     V5    10.0   1_655     S
V3     V7    10.0   1_556     S
V3     Er14    10.0   .     S
V4     V2    10.0   1_556     S
V4     V5    10.0   1_545     S
V4     V9    10.0   .     S
V4     Er14    10.0   .     S
V5     V4    10.0   1_565     S
V5     V3    10.0   1_455     S
V5     V6    10.0   1_556     S
V6     V5    10.0   1_554     S
V6     V7    10.0   1_455     S
V6     V2    10.0   1_565     S
V7     V6    10.0   1_655     S
V7     V3    10.0   1_554     S
V7     V8    10.0   .     S
V7     Er14    10.0   .     S
V8     V11    10.0   1_554     S
V8     V12    10.0   1_565     S
V9     V10    10.0   1_455     S
V9     V13    10.0   1_556     S
V10     V9    10.0   1_655     S
V10     V11    10.0   1_545     S
V10     V12    10.0   1_556     S
V10     Er14    10.0   .     S
V11     V8    10.0   1_556     S
V11     V10    10.0   1_565     S
V12     V10    10.0   1_554     S
V12     V13    10.0   1_655     S
V12     V8    10.0   1_545     S
V12     Er14    10.0   .     S
V13     V12    10.0   1_455     S
V13     V9    10.0   1_554     S
