data_fsk
_audit_creation_date              2020-02-02
_audit_creation_method            'Pymatgen'
_symmetry_space_group_name_H-M    'P1'
_symmetry_Int_Tables_number       1
loop_
_symmetry_equiv_pos_as_xyz
  x,y,z
_cell_length_a                    39.3791
_cell_length_b                    15.5461
_cell_length_c                    24.6471
_cell_angle_alpha                 90.0
_cell_angle_beta                 90.0
_cell_angle_gamma                 90.0
loop_
_atom_site_label
_atom_site_type_symbol
_atom_site_fract_x
_atom_site_fract_y
_atom_site_fract_z
Ti1     Ti     0.9826   0.75   0.1739
Ti2     Ti     0.5174   0.25   0.6739
V3     V     0.6423   0.25   0.3206
Er4     Er     0.7138   0.25   0.9313
V5     V     0.8577   0.75   0.8206
Er6     Er     0.7862   0.75   0.4313
Ti7     Ti     0.4826   0.75   0.3261
Ti8     Ti     0.0174   0.25   0.8261
V9     V     0.1423   0.25   0.1794
Er10     Er     0.2138   0.25   0.5687
V11     V     0.3577   0.75   0.6794
Er12     Er     0.2862   0.75   0.0687
loop_
_geom_bond_atom_site_label_1
_geom_bond_atom_site_label_2
_geom_bond_distance
_geom_bond_site_symmetry_2
_ccdc_geom_bond_type
Ti1     V5    10.0   1_554     S
Ti1     V9    10.0   1_665     S
Ti1     V9    10.0   1_655     S
Ti1     Er6    10.0   .     S
Ti2     V3    10.0   .     S
Ti2     V11    10.0   .     S
Ti2     V11    10.0   1_545     S
Ti2     Er4    10.0   .     S
V3     Er6    10.0   .     S
V3     Er6    10.0   1_545     S
V3     Er4    10.0   1_554     S
V3     Ti7    10.0   .     S
V3     Ti7    10.0   1_545     S
Er4     V3    10.0   1_556     S
Er4     V5    10.0   .     S
Er4     V5    10.0   1_545     S
V5     Ti1    10.0   1_556     S
V5     Er4    10.0   1_565     S
V5     Er6    10.0   .     S
V5     Ti8    10.0   1_655     S
V5     Ti8    10.0   1_665     S
Er6     V3    10.0   1_565     S
Ti7     V11    10.0   .     S
Ti7     V3    10.0   1_565     S
Ti7     Er12    10.0   .     S
Ti8     V9    10.0   1_556     S
Ti8     V5    10.0   1_455     S
Ti8     V5    10.0   1_445     S
Ti8     Er10    10.0   .     S
V9     Ti1    10.0   1_445     S
V9     Ti1    10.0   1_455     S
V9     Ti8    10.0   1_554     S
V9     Er12    10.0   1_545     S
V9     Er12    10.0   .     S
V9     Er10    10.0   .     S
Er10     V11    10.0   1_545     S
Er10     V11    10.0   .     S
V11     Ti2    10.0   1_565     S
V11     Er10    10.0   1_565     S
V11     Er12    10.0   1_556     S
Er12     V9    10.0   1_565     S
Er12     V11    10.0   1_554     S
