data_fsna
_audit_creation_date              2020-02-02
_audit_creation_method            'Pymatgen'
_symmetry_space_group_name_H-M    'P1'
_symmetry_Int_Tables_number       1
loop_
_symmetry_equiv_pos_as_xyz
  x,y,z
_cell_length_a                    55.3245
_cell_length_b                    55.3245
_cell_length_c                    55.3245
_cell_angle_alpha                 90.0
_cell_angle_beta                 90.0
_cell_angle_gamma                 90.0
loop_
_atom_site_label
_atom_site_type_symbol
_atom_site_fract_x
_atom_site_fract_y
_atom_site_fract_z
Er1     Er     0.5522   0.0522   0.4478
Er2     Er     0.4478   0.5522   0.0522
Er3     Er     0.0522   0.4478   0.5522
Ti4     Ti     0.4024   0.592   0.2225
V5     V     0.4547   0.5325   0.385
Ti6     Ti     0.408   0.7775   0.5976
V7     V     0.4675   0.615   0.5453
Ti8     Ti     0.7775   0.5976   0.408
V9     V     0.615   0.5453   0.4675
Ti10     Ti     0.592   0.2225   0.4024
V11     V     0.5325   0.385   0.4547
Ti12     Ti     0.5976   0.408   0.7775
V13     V     0.5453   0.4675   0.615
Ti14     Ti     0.2225   0.4024   0.592
V15     V     0.385   0.4547   0.5325
Er16     Er     0.0522   0.0522   0.0522
Er17     Er     0.9478   0.9478   0.9478
Er18     Er     0.5522   0.4478   0.9478
V19     V     0.385   0.0453   0.0325
Ti20     Ti     0.2225   0.0976   0.092
Ti21     Ti     0.5976   0.092   0.2775
V22     V     0.5453   0.0325   0.115
V23     V     0.5325   0.115   0.9547
Ti24     Ti     0.592   0.2775   0.9024
V25     V     0.615   0.9547   0.9675
Ti26     Ti     0.7775   0.9024   0.908
V27     V     0.4547   0.9675   0.885
Ti28     Ti     0.4024   0.908   0.7225
V29     V     0.4675   0.885   0.0453
Ti30     Ti     0.408   0.7225   0.0976
Er31     Er     0.4478   0.9478   0.5522
V32     V     0.0453   0.0325   0.385
Ti33     Ti     0.0976   0.092   0.2225
Ti34     Ti     0.092   0.2775   0.5976
V35     V     0.0325   0.115   0.5453
V36     V     0.115   0.9547   0.5325
Ti37     Ti     0.2775   0.9024   0.592
V38     V     0.9547   0.9675   0.615
Ti39     Ti     0.9024   0.908   0.7775
V40     V     0.9675   0.885   0.4547
Ti41     Ti     0.908   0.7225   0.4024
V42     V     0.885   0.0453   0.4675
Ti43     Ti     0.7225   0.0976   0.408
Er44     Er     0.9478   0.5522   0.4478
V45     V     0.9547   0.5325   0.115
Ti46     Ti     0.9024   0.592   0.2775
V47     V     0.0325   0.385   0.0453
Ti48     Ti     0.092   0.2225   0.0976
Ti49     Ti     0.2775   0.5976   0.092
V50     V     0.115   0.5453   0.0325
V51     V     0.885   0.4547   0.9675
Ti52     Ti     0.7225   0.4024   0.908
V53     V     0.9675   0.615   0.9547
Ti54     Ti     0.908   0.7775   0.9024
V55     V     0.0453   0.4675   0.885
Ti56     Ti     0.0976   0.408   0.7225
loop_
_geom_bond_atom_site_label_1
_geom_bond_atom_site_label_2
_geom_bond_distance
_geom_bond_site_symmetry_2
_ccdc_geom_bond_type
Er1     Ti21    10.0   .     S
Er1     Ti10    10.0   .     S
Er1     Ti43    10.0   .     S
Er1     Er31    10.0   1_545     S
Er2     Ti49    10.0   .     S
Er2     Ti4    10.0   .     S
Er2     Ti30    10.0   .     S
Er2     Er18    10.0   1_554     S
Er3     Ti34    10.0   .     S
Er3     Ti14    10.0   .     S
Er3     Ti56    10.0   .     S
Er3     Er44    10.0   1_455     S
Ti4     Ti30    10.0   .     S
Ti4     Ti49    10.0   .     S
Ti4     V5    10.0   .     S
V5     V7    10.0   .     S
V5     V15    10.001   .     S
V5     V9    10.0   .     S
V5     V11    10.001   .     S
Ti6     V7    10.0   .     S
Ti6     Er31    10.0   .     S
Ti6     Ti28    10.0   .     S
Ti6     Ti37    10.0   .     S
V7     V15    10.0   .     S
V7     V13    10.001   .     S
V7     V9    10.001   .     S
Ti8     V9    10.0   .     S
Ti8     Er44    10.0   .     S
Ti8     Ti46    10.0   .     S
Ti8     Ti41    10.0   .     S
V9     V11    10.0   .     S
V9     V13    10.001   .     S
Ti10     Ti21    10.0   .     S
Ti10     Ti43    10.0   .     S
Ti10     V11    10.0   .     S
V11     V13    10.0   .     S
V11     V15    10.001   .     S
Ti12     V13    10.0   .     S
Ti12     Er18    10.0   .     S
Ti12     Ti24    10.0   .     S
Ti12     Ti52    10.0   .     S
V13     V15    10.0   .     S
Ti14     Ti56    10.0   .     S
Ti14     Ti34    10.0   .     S
Ti14     V15    10.0   .     S
Er16     Ti48    10.0   .     S
Er16     Ti33    10.0   .     S
Er16     Ti20    10.0   .     S
Er16     Er17    10.0   1_444     S
Er17     Ti54    10.0   .     S
Er17     Ti39    10.0   .     S
Er17     Ti26    10.0   .     S
Er17     Er16    10.0   1_666     S
Er18     Ti52    10.0   .     S
Er18     Ti24    10.0   .     S
Er18     Er2    10.0   1_556     S
V19     Ti20    10.0   .     S
V19     V29    10.0   1_545     S
V19     V22    10.0   .     S
V19     V27    10.001   1_544     S
V19     V23    10.001   1_554     S
Ti20     Ti33    10.0   .     S
Ti20     Ti48    10.0   .     S
Ti21     Ti43    10.0   .     S
Ti21     V22    10.0   .     S
V22     V23    10.0   1_554     S
V22     V25    10.001   1_544     S
V22     V29    10.001   1_545     S
V23     V22    10.0   1_556     S
V23     Ti24    10.0   .     S
V23     V25    10.0   1_545     S
V23     V19    10.001   1_556     S
V23     V27    10.001   1_545     S
Ti24     Ti52    10.0   .     S
V25     V22    10.001   1_566     S
V25     Ti26    10.0   .     S
V25     V27    10.0   .     S
V25     V29    10.001   1_556     S
V25     V23    10.0   1_565     S
Ti26     Ti39    10.0   .     S
Ti26     Ti54    10.0   .     S
V27     Ti28    10.0   .     S
V27     V29    10.0   1_556     S
V27     V19    10.001   1_566     S
V27     V23    10.001   1_565     S
Ti28     Er31    10.0   .     S
Ti28     Ti37    10.0   .     S
V29     V19    10.0   1_565     S
V29     V22    10.001   1_565     S
V29     Ti30    10.0   .     S
V29     V27    10.0   1_554     S
V29     V25    10.001   1_554     S
Ti30     Ti49    10.0   .     S
Er31     Ti37    10.0   .     S
Er31     Er1    10.0   1_565     S
V32     Ti33    10.0   .     S
V32     V42    10.0   1_455     S
V32     V35    10.0   .     S
V32     V40    10.001   1_445     S
V32     V36    10.001   1_545     S
Ti33     Ti48    10.0   .     S
Ti34     Ti56    10.0   .     S
Ti34     V35    10.0   .     S
V35     V36    10.0   1_545     S
V35     V38    10.001   1_445     S
V35     V42    10.001   1_455     S
V36     V35    10.0   1_565     S
V36     Ti37    10.0   .     S
V36     V38    10.0   1_455     S
V36     V40    10.001   1_455     S
V36     V32    10.001   1_565     S
V38     V35    10.001   1_665     S
V38     Ti39    10.0   .     S
V38     V40    10.0   .     S
V38     V42    10.001   1_565     S
V38     V36    10.0   1_655     S
Ti39     Ti54    10.0   .     S
V40     Ti41    10.0   .     S
V40     V42    10.0   1_565     S
V40     V32    10.001   1_665     S
V40     V36    10.001   1_655     S
Ti41     Er44    10.0   .     S
Ti41     Ti46    10.0   .     S
V42     V32    10.0   1_655     S
V42     V35    10.001   1_655     S
V42     Ti43    10.0   .     S
V42     V40    10.0   1_545     S
V42     V38    10.001   1_545     S
Er44     Ti46    10.0   .     S
Er44     Er3    10.0   1_655     S
V45     Ti46    10.0   .     S
V45     V50    10.0   1_655     S
V45     V53    10.0   1_554     S
V45     V47    10.001   1_655     S
V45     V51    10.001   1_554     S
V47     Ti48    10.0   .     S
V47     V55    10.0   1_554     S
V47     V50    10.0   .     S
V47     V51    10.001   1_454     S
V47     V45    10.001   1_455     S
Ti49     V50    10.0   .     S
V50     V45    10.0   1_455     S
V50     V53    10.001   1_454     S
V50     V55    10.001   1_554     S
V51     Ti52    10.0   .     S
V51     V55    10.0   1_655     S
V51     V53    10.0   .     S
V51     V47    10.001   1_656     S
V51     V45    10.001   1_556     S
V53     V50    10.001   1_656     S
V53     Ti54    10.0   .     S
V53     V55    10.001   1_655     S
V53     V45    10.0   1_556     S
V55     V47    10.0   1_556     S
V55     V50    10.001   1_556     S
V55     Ti56    10.0   .     S
V55     V51    10.0   1_455     S
V55     V53    10.001   1_455     S
