data_fso
_audit_creation_date              2020-02-02
_audit_creation_method            'Pymatgen'
_symmetry_space_group_name_H-M    'P1'
_symmetry_Int_Tables_number       1
loop_
_symmetry_equiv_pos_as_xyz
  x,y,z
_cell_length_a                    14.791
_cell_length_b                    24.7242
_cell_length_c                    21.5146
_cell_angle_alpha                 90.0
_cell_angle_beta                 97.1733
_cell_angle_gamma                 90.0
loop_
_atom_site_label
_atom_site_type_symbol
_atom_site_fract_x
_atom_site_fract_y
_atom_site_fract_z
V1     V     0.2962   0.2402   0.2537
Ti2     Ti     0.2307   0.5   0.8947
Er3     Er     0.8396   0.4182   0.4924
V4     V     0.7038   0.7402   0.7463
Ti5     Ti     0.7693   0.0   0.1053
Er6     Er     0.1604   0.9182   0.5076
loop_
_geom_bond_atom_site_label_1
_geom_bond_atom_site_label_2
_geom_bond_distance
_geom_bond_site_symmetry_2
_ccdc_geom_bond_type
V1     Ti2    10.0   1_554     S
V1     Ti5    10.0   1_455     S
V1     Er3    10.0   1_455     S
V1     Er3    10.0   .     S
V1     Ti5    10.0   .     S
V1     Er6    10.0   1_545     S
Ti2     V1    10.0   1_556     S
Ti2     V4    10.0   .     S
Ti2     Er3    10.0   1_455     S
Ti2     V4    10.0   1_455     S
Er3     V1    10.0   1_655     S
Er3     Ti2    10.0   1_655     S
Er3     V4    10.0   .     S
V4     Ti5    10.0   1_566     S
V4     Ti2    10.0   1_655     S
V4     Er6    10.0   1_655     S
V4     Er6    10.0   .     S
Ti5     V1    10.0   1_655     S
Ti5     V4    10.0   1_544     S
Ti5     Er6    10.0   1_645     S
Er6     V4    10.0   1_455     S
Er6     Ti5    10.0   1_465     S
Er6     V1    10.0   1_565     S
