data_fsy
_audit_creation_date              2020-02-02
_audit_creation_method            'Pymatgen'
_symmetry_space_group_name_H-M    'P1'
_symmetry_Int_Tables_number       1
loop_
_symmetry_equiv_pos_as_xyz
  x,y,z
_cell_length_a                    23.0137
_cell_length_b                    32.7163
_cell_length_c                    16.3583
_cell_angle_alpha                 90.0
_cell_angle_beta                 90.0
_cell_angle_gamma                 90.0
loop_
_atom_site_label
_atom_site_type_symbol
_atom_site_fract_x
_atom_site_fract_y
_atom_site_fract_z
V1     V     0.5   0.5   0.0
V2     V     0.0   0.0   0.0
Ti3     Ti     0.25   0.25   0.0
Ti4     Ti     0.75   0.25   0.0
Ti5     Ti     0.75   0.75   0.0
Ti6     Ti     0.25   0.75   0.0
Er7     Er     0.0   0.2497   0.5
Er8     Er     0.0   0.7503   0.5
Er9     Er     0.5   0.7497   0.5
Er10     Er     0.5   0.2503   0.5
loop_
_geom_bond_atom_site_label_1
_geom_bond_atom_site_label_2
_geom_bond_distance
_geom_bond_site_symmetry_2
_ccdc_geom_bond_type
V1     Ti5    10.0   .     S
V1     Ti6    10.0   .     S
V1     Ti3    10.0   .     S
V1     Ti4    10.0   .     S
V2     Ti5    10.0   1_445     S
V2     Ti6    10.0   1_545     S
V2     Ti3    10.0   .     S
V2     Ti4    10.0   1_455     S
Ti3     Er7    10.0   .     S
Ti3     Er7    10.0   1_554     S
Ti3     Er10    10.0   .     S
Ti3     Er10    10.0   1_554     S
Ti4     V2    10.0   1_655     S
Ti4     Er7    10.0   1_654     S
Ti4     Er7    10.0   1_655     S
Ti4     Er10    10.0   1_554     S
Ti4     Er10    10.0   .     S
Ti5     V2    10.0   1_665     S
Ti5     Er8    10.0   1_655     S
Ti5     Er8    10.0   1_654     S
Ti5     Er9    10.0   .     S
Ti5     Er9    10.0   1_554     S
Ti6     V2    10.0   1_565     S
Ti6     Er8    10.0   1_554     S
Ti6     Er8    10.0   .     S
Ti6     Er9    10.0   1_554     S
Ti6     Er9    10.0   .     S
Er7     Ti4    10.0   1_456     S
Er7     Ti3    10.0   1_556     S
Er7     Ti4    10.0   1_455     S
Er8     Ti5    10.0   1_455     S
Er8     Ti6    10.0   1_556     S
Er8     Ti5    10.0   1_456     S
Er9     Ti6    10.0   1_556     S
Er9     Ti5    10.0   1_556     S
Er10     Ti4    10.0   1_556     S
Er10     Ti3    10.0   1_556     S
