data_fta
_audit_creation_date              2020-02-02
_audit_creation_method            'Pymatgen'
_symmetry_space_group_name_H-M    'P1'
_symmetry_Int_Tables_number       1
loop_
_symmetry_equiv_pos_as_xyz
  x,y,z
_cell_length_a                    19.9998
_cell_length_b                    20.0
_cell_length_c                    37.3206
_cell_angle_alpha                 90.0
_cell_angle_beta                 90.0
_cell_angle_gamma                 90.0
loop_
_atom_site_label
_atom_site_type_symbol
_atom_site_fract_x
_atom_site_fract_y
_atom_site_fract_z
Er1     Er     0.0   0.25   0.2321
Er2     Er     0.0   0.75   0.2321
Er3     Er     0.5   0.25   0.2321
Er4     Er     0.5   0.75   0.2321
V5     V     0.0   0.0   0.0
V6     V     0.0   0.5   0.0
V7     V     0.5   0.0   0.0
V8     V     0.5   0.5   0.0
Er9     Er     0.0   0.0   0.732
Er10     Er     0.0   0.5   0.732
Er11     Er     0.5   0.0   0.732
Er12     Er     0.5   0.5   0.732
V13     V     0.0   0.25   0.5
V14     V     0.0   0.75   0.5
V15     V     0.5   0.25   0.5
V16     V     0.5   0.75   0.5
loop_
_geom_bond_atom_site_label_1
_geom_bond_atom_site_label_2
_geom_bond_distance
_geom_bond_site_symmetry_2
_ccdc_geom_bond_type
Er1     V5    10.0   .     S
Er1     V6    10.0   .     S
Er1     Er3    10.0   .     S
Er1     Er3    10.0   1_455     S
Er1     V13    10.0   .     S
Er2     V6    10.0   .     S
Er2     V5    10.0   1_565     S
Er2     Er4    10.0   .     S
Er2     Er4    10.0   1_455     S
Er2     V14    10.0   .     S
Er3     V7    10.0   .     S
Er3     V8    10.0   .     S
Er3     Er1    10.0   1_655     S
Er3     V15    10.0   .     S
Er4     V8    10.0   .     S
Er4     V7    10.0   1_565     S
Er4     Er2    10.0   1_655     S
Er4     V16    10.0   .     S
V5     Er2    10.0   1_545     S
V5     Er9    10.0   1_554     S
V5     V6    10.0   .     S
V5     V6    10.0   1_545     S
V6     Er10    10.0   1_554     S
V6     V5    10.0   1_565     S
V7     Er4    10.0   1_545     S
V7     Er11    10.0   1_554     S
V7     V8    10.0   .     S
V7     V8    10.0   1_545     S
V8     Er12    10.0   1_554     S
V8     V7    10.0   1_565     S
Er9     V5    10.0   1_556     S
Er9     V14    10.0   1_545     S
Er9     V13    10.0   .     S
Er9     Er11    10.0   .     S
Er9     Er11    10.0   1_455     S
Er10     V6    10.0   1_556     S
Er10     V13    10.0   .     S
Er10     V14    10.0   .     S
Er10     Er12    10.0   .     S
Er10     Er12    10.0   1_455     S
Er11     V7    10.0   1_556     S
Er11     V16    10.0   1_545     S
Er11     V15    10.0   .     S
Er11     Er9    10.0   1_655     S
Er12     V8    10.0   1_556     S
Er12     V15    10.0   .     S
Er12     V16    10.0   .     S
Er12     Er10    10.0   1_655     S
V13     V14    10.0   1_545     S
V13     V14    10.0   .     S
V14     Er9    10.0   1_565     S
V14     V13    10.0   1_565     S
V15     V16    10.0   1_545     S
V15     V16    10.0   .     S
V16     Er11    10.0   1_565     S
V16     V15    10.0   1_565     S
