data_ftc
_audit_creation_date              2020-02-02
_audit_creation_method            'Pymatgen'
_symmetry_space_group_name_H-M    'P1'
_symmetry_Int_Tables_number       1
loop_
_symmetry_equiv_pos_as_xyz
  x,y,z
_cell_length_a                    41.8987
_cell_length_b                    41.8987
_cell_length_c                    57.507
_cell_angle_alpha                 90.0
_cell_angle_beta                 90.0
_cell_angle_gamma                 90.0
loop_
_atom_site_label
_atom_site_type_symbol
_atom_site_fract_x
_atom_site_fract_y
_atom_site_fract_z
Er1     Er     0.3006   0.5506   0.875
Er2     Er     0.6994   0.9494   0.875
Er3     Er     0.3006   0.9494   0.875
V4     V     0.6193   0.1307   0.9719
V5     V     0.6193   0.3693   0.9719
V6     V     0.3807   0.3693   0.9719
V7     V     0.3807   0.1307   0.9719
Er8     Er     0.6994   0.5506   0.875
V9     V     0.1193   0.6307   0.7781
V10     V     0.8807   0.6307   0.7781
V11     V     0.1193   0.8693   0.7781
V12     V     0.8807   0.8693   0.7781
Er13     Er     0.8006   0.9494   0.625
V14     V     0.3807   0.6307   0.7219
V15     V     0.6193   0.6307   0.7219
V16     V     0.3807   0.8693   0.7219
V17     V     0.6193   0.8693   0.7219
Er18     Er     0.8006   0.5506   0.625
Er19     Er     0.1994   0.5506   0.625
Er20     Er     0.1994   0.9494   0.625
V21     V     0.1193   0.3693   0.5281
V22     V     0.1193   0.1307   0.5281
V23     V     0.8807   0.1307   0.5281
V24     V     0.8807   0.3693   0.5281
Er25     Er     0.1994   0.4494   0.375
Er26     Er     0.1994   0.0506   0.375
Er27     Er     0.8006   0.0506   0.375
V28     V     0.6193   0.3693   0.2781
V29     V     0.3807   0.3693   0.2781
V30     V     0.3807   0.1307   0.2781
V31     V     0.6193   0.1307   0.2781
Er32     Er     0.8006   0.4494   0.375
V33     V     0.1193   0.6307   0.4719
V34     V     0.1193   0.8693   0.4719
V35     V     0.8807   0.6307   0.4719
V36     V     0.8807   0.8693   0.4719
V37     V     0.8807   0.3693   0.2219
V38     V     0.1193   0.3693   0.2219
V39     V     0.8807   0.1307   0.2219
V40     V     0.1193   0.1307   0.2219
Er41     Er     0.3006   0.4494   0.125
Er42     Er     0.3006   0.0506   0.125
Er43     Er     0.6994   0.4494   0.125
Er44     Er     0.6994   0.0506   0.125
V45     V     0.6193   0.6307   0.0281
V46     V     0.6193   0.8693   0.0281
V47     V     0.3807   0.6307   0.0281
V48     V     0.3807   0.8693   0.0281
loop_
_geom_bond_atom_site_label_1
_geom_bond_atom_site_label_2
_geom_bond_distance
_geom_bond_site_symmetry_2
_ccdc_geom_bond_type
Er1     V47    10.0   1_556     S
Er1     V14    10.0   .     S
Er1     V6    10.0   .     S
Er1     V9    10.0   .     S
Er2     V46    10.0   1_556     S
Er2     V17    10.0   .     S
Er2     V4    10.0   1_565     S
Er2     V12    10.0   .     S
Er3     V16    10.0   .     S
Er3     V48    10.0   1_556     S
Er3     V7    10.0   1_565     S
Er3     V11    10.0   .     S
V4     Er2    10.0   1_545     S
V4     V5    10.0   .     S
V4     V7    10.0   .     S
V4     Er44    10.0   1_556     S
V5     Er8    10.0   .     S
V5     V6    10.0   .     S
V5     Er43    10.0   1_556     S
V6     V7    10.0   .     S
V6     Er41    10.0   1_556     S
V7     Er3    10.0   1_545     S
V7     Er42    10.0   1_556     S
Er8     V15    10.0   .     S
Er8     V45    10.0   1_556     S
Er8     V10    10.0   .     S
V9     V10    10.0   1_455     S
V9     V11    10.0   .     S
V9     Er19    10.0   .     S
V10     V9    10.0   1_655     S
V10     V12    10.0   .     S
V10     Er18    10.0   .     S
V11     V12    10.0   1_455     S
V11     Er20    10.0   .     S
V12     V11    10.0   1_655     S
V12     Er13    10.0   .     S
Er13     V36    10.0   .     S
Er13     V17    10.0   .     S
Er13     V23    10.0   1_565     S
V14     Er19    10.0   .     S
V14     V15    10.0   .     S
V14     V16    10.0   .     S
V15     Er18    10.0   .     S
V15     V17    10.0   .     S
V16     Er20    10.0   .     S
V16     V17    10.0   .     S
Er18     V35    10.0   .     S
Er18     V24    10.0   .     S
Er19     V33    10.0   .     S
Er19     V21    10.0   .     S
Er20     V34    10.0   .     S
Er20     V22    10.0   1_565     S
V21     V22    10.0   .     S
V21     V24    10.0   1_455     S
V21     Er25    10.0   .     S
V22     Er20    10.0   1_545     S
V22     V23    10.0   1_455     S
V22     Er26    10.0   .     S
V23     Er13    10.0   1_545     S
V23     V24    10.0   .     S
V23     V22    10.0   1_655     S
V23     Er27    10.0   .     S
V24     V21    10.0   1_655     S
V24     Er32    10.0   .     S
Er25     V38    10.0   .     S
Er25     V29    10.0   .     S
Er25     V33    10.0   .     S
Er26     V40    10.0   .     S
Er26     V30    10.0   .     S
Er26     V34    10.0   1_545     S
Er27     V39    10.0   .     S
Er27     V31    10.0   .     S
Er27     V36    10.0   1_545     S
V28     Er32    10.0   .     S
V28     V29    10.0   .     S
V28     V31    10.0   .     S
V28     Er43    10.0   .     S
V29     V30    10.0   .     S
V29     Er41    10.0   .     S
V30     V31    10.0   .     S
V30     Er42    10.0   .     S
V31     Er44    10.0   .     S
Er32     V37    10.0   .     S
Er32     V35    10.0   .     S
V33     V34    10.0   .     S
V33     V35    10.0   1_455     S
V34     Er26    10.0   1_565     S
V34     V36    10.0   1_455     S
V35     V36    10.0   .     S
V35     V33    10.0   1_655     S
V36     Er27    10.0   1_565     S
V36     V34    10.0   1_655     S
V37     Er43    10.0   .     S
V37     V38    10.0   1_655     S
V37     V39    10.0   .     S
V38     Er41    10.0   .     S
V38     V37    10.0   1_455     S
V38     V40    10.0   .     S
V39     Er44    10.0   .     S
V39     V40    10.0   1_655     S
V40     Er42    10.0   .     S
V40     V39    10.0   1_455     S
Er41     V6    10.0   1_554     S
Er41     V47    10.0   .     S
Er42     V7    10.0   1_554     S
Er42     V48    10.0   1_545     S
Er43     V5    10.0   1_554     S
Er43     V45    10.0   .     S
Er44     V4    10.0   1_554     S
Er44     V46    10.0   1_545     S
V45     Er8    10.0   1_554     S
V45     V46    10.0   .     S
V45     V47    10.0   .     S
V46     Er2    10.0   1_554     S
V46     Er44    10.0   1_565     S
V46     V48    10.0   .     S
V47     Er1    10.0   1_554     S
V47     V48    10.0   .     S
V48     Er3    10.0   1_554     S
V48     Er42    10.0   1_565     S
