data_ftd
_audit_creation_date              2020-02-02
_audit_creation_method            'Pymatgen'
_symmetry_space_group_name_H-M    'P1'
_symmetry_Int_Tables_number       1
loop_
_symmetry_equiv_pos_as_xyz
  x,y,z
_cell_length_a                    30.9688
_cell_length_b                    30.9688
_cell_length_c                    123.9446
_cell_angle_alpha                 90.0
_cell_angle_beta                 90.0
_cell_angle_gamma                 90.0
loop_
_atom_site_label
_atom_site_type_symbol
_atom_site_fract_x
_atom_site_fract_y
_atom_site_fract_z
Er1     Er     0.6614   0.5885   0.8347
Er2     Er     0.3386   0.5886   0.8347
Er3     Er     0.6614   0.9115   0.8347
Er4     Er     0.3386   0.9114   0.8347
Er5     Er     0.6614   0.5886   0.9153
Er6     Er     0.3386   0.5886   0.9153
Er7     Er     0.6614   0.9114   0.9153
Er8     Er     0.3386   0.9114   0.9153
V9     V     0.3386   0.9114   0.4663
V10     V     0.3386   0.0885   0.5337
V11     V     0.3386   0.5886   0.4663
V12     V     0.3386   0.4114   0.5337
V13     V     0.6614   0.9114   0.4663
V14     V     0.6614   0.0885   0.5337
V15     V     0.6614   0.5886   0.4663
V16     V     0.6614   0.4114   0.5337
V17     V     0.3386   0.0886   0.7163
V18     V     0.1614   0.0886   0.7837
V19     V     0.6614   0.0886   0.7163
V20     V     0.8386   0.0886   0.7837
V21     V     0.6614   0.4114   0.7163
V22     V     0.8386   0.4114   0.7837
V23     V     0.3385   0.4115   0.7163
V24     V     0.1614   0.4115   0.7837
Er25     Er     0.8386   0.5885   0.6653
Er26     Er     0.1614   0.5886   0.6653
Er27     Er     0.8386   0.9115   0.6653
Er28     Er     0.1614   0.9114   0.6653
Er29     Er     0.1614   0.5886   0.5847
Er30     Er     0.1614   0.9114   0.5847
Er31     Er     0.8386   0.5886   0.5847
Er32     Er     0.8386   0.9114   0.5847
V33     V     0.8386   0.0885   0.9663
V34     V     0.8386   0.9114   0.0337
V35     V     0.8386   0.5886   0.0337
V36     V     0.8386   0.4114   0.9663
V37     V     0.1614   0.9114   0.0337
V38     V     0.1614   0.0885   0.9663
V39     V     0.1614   0.5886   0.0337
V40     V     0.1614   0.4114   0.9663
Er41     Er     0.8386   0.0886   0.4153
Er42     Er     0.8386   0.4114   0.4153
Er43     Er     0.1614   0.0886   0.4153
Er44     Er     0.1614   0.4114   0.4153
Er45     Er     0.1614   0.0885   0.3347
Er46     Er     0.8386   0.0886   0.3347
Er47     Er     0.8386   0.4114   0.3347
Er48     Er     0.1614   0.4114   0.3347
V49     V     0.1614   0.9114   0.2163
V50     V     0.3386   0.9114   0.2837
V51     V     0.6614   0.9114   0.2837
V52     V     0.8386   0.9114   0.2163
V53     V     0.3385   0.5886   0.2837
V54     V     0.1614   0.5886   0.2163
V55     V     0.6614   0.5886   0.2837
V56     V     0.8386   0.5886   0.2163
Er57     Er     0.3386   0.4114   0.1653
Er58     Er     0.3386   0.0885   0.1653
Er59     Er     0.6614   0.0886   0.1653
Er60     Er     0.6614   0.4114   0.1653
Er61     Er     0.6614   0.0886   0.0847
Er62     Er     0.6614   0.4114   0.0847
Er63     Er     0.3386   0.0886   0.0847
Er64     Er     0.3386   0.4114   0.0847
loop_
_geom_bond_atom_site_label_1
_geom_bond_atom_site_label_2
_geom_bond_distance
_geom_bond_site_symmetry_2
_ccdc_geom_bond_type
Er1     V22    10.0   .     S
Er1     Er2    10.0   .     S
Er1     Er3    10.0   .     S
Er1     Er5    10.0   .     S
Er2     V24    10.0   .     S
Er2     Er4    10.0   .     S
Er2     Er6    10.0   .     S
Er3     V20    10.0   1_565     S
Er3     Er4    10.0   .     S
Er3     Er7    10.0   .     S
Er4     V18    10.0   1_565     S
Er4     Er8    10.0   .     S
Er5     V36    10.0   .     S
Er5     Er6    10.0   .     S
Er5     Er7    10.0   .     S
Er6     V40    10.0   .     S
Er6     Er8    10.0   .     S
Er7     V33    10.0   1_565     S
Er7     Er8    10.0   .     S
Er8     V38    10.0   1_565     S
V9     V10    10.0   1_565     S
V9     V13    10.0   .     S
V9     V11    10.0   .     S
V9     Er43    10.0   1_565     S
V10     V9    10.0   1_545     S
V10     V14    10.0   .     S
V10     V12    10.0   .     S
V10     Er30    10.0   1_545     S
V11     V12    10.0   .     S
V11     V15    10.0   .     S
V11     Er44    10.0   .     S
V12     V16    10.0   .     S
V12     Er29    10.0   .     S
V13     V14    10.0   1_565     S
V13     V15    10.0   .     S
V13     Er41    10.0   1_565     S
V14     V13    10.0   1_545     S
V14     V16    10.0   .     S
V14     Er32    10.0   1_545     S
V15     V16    10.0   .     S
V15     Er42    10.0   .     S
V16     Er31    10.0   .     S
V17     V18    10.0   .     S
V17     V19    10.0   .     S
V17     V23    10.0   .     S
V17     Er28    10.0   1_545     S
V18     Er4    10.0   1_545     S
V18     V24    10.0   .     S
V18     V20    10.0   1_455     S
V19     V20    10.0   .     S
V19     V21    10.0   .     S
V19     Er27    10.0   1_545     S
V20     Er3    10.0   1_545     S
V20     V18    10.0   1_655     S
V20     V22    10.0   .     S
V21     V22    10.0   .     S
V21     V23    10.0   .     S
V21     Er25    10.0   .     S
V22     V24    10.0   1_655     S
V23     V24    10.0   .     S
V23     Er26    10.0   .     S
V24     V22    10.0   1_455     S
Er25     Er26    10.0   1_655     S
Er25     Er27    10.0   .     S
Er25     Er31    10.0   .     S
Er26     Er28    10.0   .     S
Er26     Er25    10.0   1_455     S
Er26     Er29    10.0   .     S
Er27     V19    10.0   1_565     S
Er27     Er28    10.0   1_655     S
Er27     Er32    10.0   .     S
Er28     V17    10.0   1_565     S
Er28     Er27    10.0   1_455     S
Er28     Er30    10.0   .     S
Er29     Er30    10.0   .     S
Er29     Er31    10.0   1_455     S
Er30     V10    10.0   1_565     S
Er30     Er32    10.0   1_455     S
Er31     Er32    10.0   .     S
Er31     Er29    10.0   1_655     S
Er32     V14    10.0   1_565     S
Er32     Er30    10.0   1_655     S
V33     Er7    10.0   1_545     S
V33     V34    10.0   1_546     S
V33     V36    10.0   .     S
V33     V38    10.0   1_655     S
V34     V33    10.0   1_564     S
V34     V35    10.0   .     S
V34     V37    10.0   1_655     S
V34     Er61    10.0   1_565     S
V35     V36    10.0   1_554     S
V35     V39    10.0   1_655     S
V35     Er62    10.0   .     S
V36     V35    10.0   1_556     S
V36     V40    10.0   1_655     S
V37     V38    10.0   1_564     S
V37     V39    10.0   .     S
V37     V34    10.0   1_455     S
V37     Er63    10.0   1_565     S
V38     Er8    10.0   1_545     S
V38     V37    10.0   1_546     S
V38     V40    10.0   .     S
V38     V33    10.0   1_455     S
V39     V40    10.0   1_554     S
V39     V35    10.0   1_455     S
V39     Er64    10.0   .     S
V40     V39    10.0   1_556     S
V40     V36    10.0   1_455     S
Er41     V13    10.0   1_545     S
Er41     Er42    10.0   .     S
Er41     Er43    10.0   1_655     S
Er41     Er46    10.0   .     S
Er42     Er44    10.0   1_655     S
Er42     Er47    10.0   .     S
Er43     V9    10.0   1_545     S
Er43     Er44    10.0   .     S
Er43     Er41    10.0   1_455     S
Er43     Er45    10.0   .     S
Er44     Er42    10.0   1_455     S
Er44     Er48    10.0   .     S
Er45     V50    10.0   1_545     S
Er45     Er48    10.0   .     S
Er45     Er46    10.0   1_455     S
Er46     V51    10.0   1_545     S
Er46     Er47    10.0   .     S
Er46     Er45    10.0   1_655     S
Er47     V55    10.0   .     S
Er47     Er48    10.0   1_655     S
Er48     V53    10.0   .     S
Er48     Er47    10.0   1_455     S
V49     V50    10.0   .     S
V49     V52    10.0   1_455     S
V49     V54    10.0   .     S
V49     Er58    10.0   1_565     S
V50     Er45    10.0   1_565     S
V50     V51    10.0   .     S
V50     V53    10.0   .     S
V51     Er46    10.0   1_565     S
V51     V52    10.0   .     S
V51     V55    10.0   .     S
V52     V49    10.0   1_655     S
V52     V56    10.0   .     S
V52     Er59    10.0   1_565     S
V53     V54    10.0   .     S
V53     V55    10.0   .     S
V54     V56    10.0   1_455     S
V54     Er57    10.0   .     S
V55     V56    10.0   .     S
V56     V54    10.0   1_655     S
V56     Er60    10.0   .     S
Er57     Er60    10.0   .     S
Er57     Er58    10.0   .     S
Er57     Er64    10.0   .     S
Er58     V49    10.0   1_545     S
Er58     Er59    10.0   .     S
Er58     Er63    10.0   .     S
Er59     V52    10.0   1_545     S
Er59     Er60    10.0   .     S
Er59     Er61    10.0   .     S
Er60     Er62    10.0   .     S
Er61     V34    10.0   1_545     S
Er61     Er62    10.0   .     S
Er61     Er63    10.0   .     S
Er62     Er64    10.0   .     S
Er63     V37    10.0   1_545     S
Er63     Er64    10.0   .     S
