data_fth
_audit_creation_date              2020-02-02
_audit_creation_method            'Pymatgen'
_symmetry_space_group_name_H-M    'P1'
_symmetry_Int_Tables_number       1
loop_
_symmetry_equiv_pos_as_xyz
  x,y,z
_cell_length_a                    49.873
_cell_length_b                    49.873
_cell_length_c                    64.7014
_cell_angle_alpha                 90.0
_cell_angle_beta                 90.0
_cell_angle_gamma                 90.0
loop_
_atom_site_label
_atom_site_type_symbol
_atom_site_fract_x
_atom_site_fract_y
_atom_site_fract_z
Er1     Er     0.3998   0.742   0.9227
Er2     Er     0.6002   0.742   0.9227
Er3     Er     0.3998   0.742   0.0773
Er4     Er     0.6002   0.742   0.0773
Er5     Er     0.758   0.1003   0.5773
Er6     Er     0.758   0.8998   0.5773
Er7     Er     0.758   0.1003   0.4227
Er8     Er     0.758   0.8998   0.4227
V9     V     0.3998   0.8998   0.6727
V10     V     0.3998   0.1003   0.6727
V11     V     0.6002   0.8998   0.6727
V12     V     0.6002   0.1003   0.6727
V13     V     0.3998   0.8998   0.8273
V14     V     0.3998   0.1003   0.8273
V15     V     0.6002   0.1003   0.8273
V16     V     0.6002   0.8998   0.8273
Er17     Er     0.3998   0.258   0.9227
Er18     Er     0.6002   0.258   0.9227
Er19     Er     0.3998   0.258   0.0773
Er20     Er     0.6002   0.258   0.0773
V21     V     0.6002   0.1003   0.3273
V22     V     0.6002   0.8998   0.3273
V23     V     0.3998   0.8998   0.3273
V24     V     0.3998   0.1003   0.3273
V25     V     0.6002   0.1003   0.1727
V26     V     0.6002   0.8998   0.1727
V27     V     0.3998   0.8998   0.1727
V28     V     0.3998   0.1003   0.1727
Er29     Er     0.242   0.1003   0.5773
Er30     Er     0.242   0.8998   0.5773
Er31     Er     0.242   0.1003   0.4227
Er32     Er     0.242   0.8998   0.4227
Er33     Er     0.742   0.3998   0.9227
Er34     Er     0.742   0.6002   0.9227
Er35     Er     0.742   0.3998   0.0773
Er36     Er     0.742   0.6002   0.0773
Er37     Er     0.1003   0.758   0.5773
Er38     Er     0.8998   0.758   0.5773
Er39     Er     0.1003   0.758   0.4227
Er40     Er     0.8998   0.758   0.4227
V41     V     0.8998   0.3998   0.6727
V42     V     0.1003   0.3998   0.6727
V43     V     0.1003   0.6002   0.6727
V44     V     0.8998   0.6002   0.6727
V45     V     0.1003   0.6002   0.8273
V46     V     0.8998   0.6002   0.8273
V47     V     0.8998   0.3998   0.8273
V48     V     0.1003   0.3998   0.8273
Er49     Er     0.258   0.3998   0.9227
Er50     Er     0.258   0.6002   0.9227
Er51     Er     0.258   0.3998   0.0773
Er52     Er     0.258   0.6002   0.0773
V53     V     0.8998   0.6002   0.3273
V54     V     0.1003   0.6002   0.3273
V55     V     0.8998   0.3998   0.3273
V56     V     0.1003   0.3998   0.3273
V57     V     0.8998   0.3998   0.1727
V58     V     0.1003   0.3998   0.1727
V59     V     0.1003   0.6002   0.1727
V60     V     0.8998   0.6002   0.1727
Er61     Er     0.1003   0.242   0.5773
Er62     Er     0.8998   0.242   0.5773
Er63     Er     0.1003   0.242   0.4227
Er64     Er     0.8998   0.242   0.4227
loop_
_geom_bond_atom_site_label_1
_geom_bond_atom_site_label_2
_geom_bond_distance
_geom_bond_site_symmetry_2
_ccdc_geom_bond_type
Er1     V13    10.0   .     S
Er1     Er2    10.0   .     S
Er1     Er3    10.0   1_556     S
Er1     Er50    10.001   .     S
Er2     V16    10.0   .     S
Er2     Er4    10.0   1_556     S
Er2     Er34    10.001   .     S
Er3     V27    10.0   .     S
Er3     Er4    10.0   .     S
Er3     Er1    10.0   1_554     S
Er3     Er52    10.001   .     S
Er4     V26    10.0   .     S
Er4     Er2    10.0   1_554     S
Er4     Er36    10.001   .     S
Er5     V12    10.0   .     S
Er5     Er6    10.0   1_545     S
Er5     Er7    10.0   .     S
Er5     Er62    10.001   .     S
Er6     V11    10.0   .     S
Er6     Er5    10.0   1_565     S
Er6     Er8    10.0   .     S
Er6     Er38    10.001   .     S
Er7     V21    10.0   .     S
Er7     Er8    10.0   1_545     S
Er7     Er64    10.001   .     S
Er8     V22    10.0   .     S
Er8     Er7    10.0   1_565     S
Er8     Er40    10.001   .     S
V9     V10    10.0   1_565     S
V9     V11    10.0   .     S
V9     V13    10.0   .     S
V9     Er30    10.0   .     S
V10     V9    10.0   1_545     S
V10     V12    10.0   .     S
V10     V14    10.0   .     S
V10     Er29    10.0   .     S
V11     V12    10.0   1_565     S
V11     V16    10.0   .     S
V12     V11    10.0   1_545     S
V12     V15    10.0   .     S
V13     V14    10.0   1_565     S
V13     V16    10.0   .     S
V14     V13    10.0   1_545     S
V14     V15    10.0   .     S
V14     Er17    10.0   .     S
V15     V16    10.0   1_545     S
V15     Er18    10.0   .     S
V16     V15    10.0   1_565     S
Er17     Er18    10.0   .     S
Er17     Er19    10.0   1_556     S
Er17     Er49    10.001   .     S
Er18     Er20    10.0   1_556     S
Er18     Er33    10.001   .     S
Er19     V28    10.0   .     S
Er19     Er20    10.0   .     S
Er19     Er17    10.0   1_554     S
Er19     Er51    10.001   .     S
Er20     V25    10.0   .     S
Er20     Er18    10.0   1_554     S
Er20     Er35    10.001   .     S
V21     V24    10.0   .     S
V21     V22    10.0   1_545     S
V21     V25    10.0   .     S
V22     V21    10.0   1_565     S
V22     V23    10.0   .     S
V22     V26    10.0   .     S
V23     V24    10.0   1_565     S
V23     V27    10.0   .     S
V23     Er32    10.0   .     S
V24     V23    10.0   1_545     S
V24     V28    10.0   .     S
V24     Er31    10.0   .     S
V25     V28    10.0   .     S
V25     V26    10.0   1_545     S
V26     V25    10.0   1_565     S
V26     V27    10.0   .     S
V27     V28    10.0   1_565     S
V28     V27    10.0   1_545     S
Er29     Er30    10.0   1_545     S
Er29     Er31    10.0   .     S
Er29     Er61    10.001   .     S
Er30     Er29    10.0   1_565     S
Er30     Er32    10.0   .     S
Er30     Er37    10.001   .     S
Er31     Er32    10.0   1_545     S
Er31     Er63    10.001   .     S
Er32     Er31    10.0   1_565     S
Er32     Er39    10.001   .     S
Er33     V47    10.0   .     S
Er33     Er34    10.0   .     S
Er33     Er35    10.0   1_556     S
Er34     V46    10.0   .     S
Er34     Er36    10.0   1_556     S
Er35     V57    10.0   .     S
Er35     Er36    10.0   .     S
Er35     Er33    10.0   1_554     S
Er36     V60    10.0   .     S
Er36     Er34    10.0   1_554     S
Er37     V43    10.0   .     S
Er37     Er38    10.0   1_455     S
Er37     Er39    10.0   .     S
Er38     V44    10.0   .     S
Er38     Er37    10.0   1_655     S
Er38     Er40    10.0   .     S
Er39     V54    10.0   .     S
Er39     Er40    10.0   1_455     S
Er40     V53    10.0   .     S
Er40     Er39    10.0   1_655     S
V41     V42    10.0   1_655     S
V41     V44    10.0   .     S
V41     V47    10.0   .     S
V41     Er62    10.0   .     S
V42     V41    10.0   1_455     S
V42     V43    10.0   .     S
V42     V48    10.0   .     S
V42     Er61    10.0   .     S
V43     V44    10.0   1_455     S
V43     V45    10.0   .     S
V44     V43    10.0   1_655     S
V44     V46    10.0   .     S
V45     V48    10.0   .     S
V45     V46    10.0   1_455     S
V45     Er50    10.0   .     S
V46     V45    10.0   1_655     S
V46     V47    10.0   .     S
V47     V48    10.0   1_655     S
V48     V47    10.0   1_455     S
V48     Er49    10.0   .     S
Er49     Er50    10.0   .     S
Er49     Er51    10.0   1_556     S
Er50     Er52    10.0   1_556     S
Er51     V58    10.0   .     S
Er51     Er52    10.0   .     S
Er51     Er49    10.0   1_554     S
Er52     V59    10.0   .     S
Er52     Er50    10.0   1_554     S
V53     V54    10.0   1_655     S
V53     V55    10.0   .     S
V53     V60    10.0   .     S
V54     V53    10.0   1_455     S
V54     V56    10.0   .     S
V54     V59    10.0   .     S
V55     V56    10.0   1_655     S
V55     V57    10.0   .     S
V55     Er64    10.0   .     S
V56     V55    10.0   1_455     S
V56     V58    10.0   .     S
V56     Er63    10.0   .     S
V57     V58    10.0   1_655     S
V57     V60    10.0   .     S
V58     V57    10.0   1_455     S
V58     V59    10.0   .     S
V59     V60    10.0   1_455     S
V60     V59    10.0   1_655     S
Er61     Er62    10.0   1_455     S
Er61     Er63    10.0   .     S
Er62     Er61    10.0   1_655     S
Er62     Er64    10.0   .     S
Er63     Er64    10.0   1_455     S
Er64     Er63    10.0   1_655     S
