data_ftp
_audit_creation_date              2020-02-02
_audit_creation_method            'Pymatgen'
_symmetry_space_group_name_H-M    'P1'
_symmetry_Int_Tables_number       1
loop_
_symmetry_equiv_pos_as_xyz
  x,y,z
_cell_length_a                    33.3733
_cell_length_b                    33.3733
_cell_length_c                    54.4309
_cell_angle_alpha                 90.0
_cell_angle_beta                 90.0
_cell_angle_gamma                 90.0
loop_
_atom_site_label
_atom_site_type_symbol
_atom_site_fract_x
_atom_site_fract_y
_atom_site_fract_z
V1     V     0.8941   0.1059   0.9081
V2     V     0.8941   0.1059   0.0919
V3     V     0.1059   0.8941   0.9081
V4     V     0.1059   0.8941   0.0919
Er5     Er     0.3555   0.9605   0.185
Er6     Er     0.5395   0.8555   0.315
Er7     Er     0.4605   0.1445   0.315
Er8     Er     0.6445   0.0395   0.185
Er9     Er     0.8555   0.5395   0.685
Er10     Er     0.1445   0.4605   0.685
Er11     Er     0.9605   0.3555   0.8149
Er12     Er     0.0395   0.6445   0.8149
Er13     Er     0.4605   0.1445   0.685
Er14     Er     0.5395   0.8555   0.685
Er15     Er     0.3555   0.9605   0.815
Er16     Er     0.6445   0.0395   0.815
Er17     Er     0.9605   0.3555   0.1851
Er18     Er     0.0395   0.6445   0.1851
Er19     Er     0.1445   0.4605   0.315
Er20     Er     0.8555   0.5395   0.315
V21     V     0.3941   0.3941   0.5919
V22     V     0.3941   0.3941   0.4081
V23     V     0.6059   0.6059   0.5919
V24     V     0.6059   0.6059   0.4081
loop_
_geom_bond_atom_site_label_1
_geom_bond_atom_site_label_2
_geom_bond_distance
_geom_bond_site_symmetry_2
_ccdc_geom_bond_type
V1     Er11    10.0   .     S
V1     Er16    10.0   .     S
V1     V2    10.0   1_556     S
V1     V3    10.0   1_645     S
V2     Er8    10.0   .     S
V2     Er17    10.0   .     S
V2     V1    10.0   1_554     S
V2     V4    10.0   1_645     S
V3     Er12    10.0   .     S
V3     Er15    10.0   .     S
V3     V4    10.0   1_556     S
V3     V1    10.0   1_465     S
V4     Er18    10.0   .     S
V4     Er5    10.0   .     S
V4     V3    10.0   1_554     S
V4     V2    10.0   1_465     S
Er5     Er7    10.0   1_565     S
Er5     Er8    10.0   1_565     S
Er5     Er6    10.0   .     S
Er6     Er7    10.0   1_565     S
Er6     Er8    10.0   1_565     S
Er6     V24    10.0   .     S
Er7     Er5    10.0   1_545     S
Er7     Er6    10.0   1_545     S
Er7     Er8    10.0   .     S
Er7     V22    10.0   .     S
Er8     Er5    10.0   1_545     S
Er8     Er6    10.0   1_545     S
Er9     Er10    10.0   1_655     S
Er9     Er11    10.0   .     S
Er9     Er12    10.0   1_655     S
Er9     V23    10.0   .     S
Er10     Er9    10.0   1_455     S
Er10     Er11    10.0   1_455     S
Er10     Er12    10.0   .     S
Er10     V21    10.0   .     S
Er11     Er10    10.0   1_655     S
Er11     Er12    10.0   1_655     S
Er12     Er9    10.0   1_455     S
Er12     Er11    10.0   1_455     S
Er13     Er14    10.0   1_545     S
Er13     Er15    10.0   1_545     S
Er13     Er16    10.0   .     S
Er13     V21    10.0   .     S
Er14     Er13    10.0   1_565     S
Er14     Er15    10.0   .     S
Er14     Er16    10.0   1_565     S
Er14     V23    10.0   .     S
Er15     Er13    10.0   1_565     S
Er15     Er16    10.0   1_565     S
Er16     Er14    10.0   1_545     S
Er16     Er15    10.0   1_545     S
Er17     Er18    10.0   1_655     S
Er17     Er20    10.0   .     S
Er17     Er19    10.0   1_655     S
Er18     Er17    10.0   1_455     S
Er18     Er19    10.0   .     S
Er18     Er20    10.0   1_455     S
Er19     Er17    10.0   1_455     S
Er19     Er20    10.0   1_455     S
Er19     V22    10.0   .     S
Er20     Er19    10.0   1_655     S
Er20     Er18    10.0   1_655     S
Er20     V24    10.0   .     S
V21     V22    10.0   .     S
V21     V23    10.0   .     S
V22     V24    10.0   .     S
V23     V24    10.0   .     S
