data_ftv
_audit_creation_date              2020-02-02
_audit_creation_method            'Pymatgen'
_symmetry_space_group_name_H-M    'P1'
_symmetry_Int_Tables_number       1
loop_
_symmetry_equiv_pos_as_xyz
  x,y,z
_cell_length_a                    54.4891
_cell_length_b                    54.4891
_cell_length_c                    54.4891
_cell_angle_alpha                 90.0
_cell_angle_beta                 90.0
_cell_angle_gamma                 90.0
loop_
_atom_site_label
_atom_site_type_symbol
_atom_site_fract_x
_atom_site_fract_y
_atom_site_fract_z
V1     V     0.9082   0.2983   0.5
V2     V     0.0918   0.2983   0.5
Er3     Er     0.9082   0.1148   0.5
Er4     Er     0.0918   0.1148   0.5
Er5     Er     0.6148   0.0   0.5918
V6     V     0.7983   0.0   0.4082
V7     V     0.7983   0.0   0.5918
Er8     Er     0.6148   0.0   0.4082
Er9     Er     0.3852   0.0   0.4082
V10     V     0.2017   0.0   0.4082
V11     V     0.2017   0.0   0.5918
Er12     Er     0.3852   0.0   0.5918
V13     V     0.9082   0.7017   0.5
V14     V     0.0918   0.7017   0.5
Er15     Er     0.9082   0.8852   0.5
Er16     Er     0.0918   0.8852   0.5
V17     V     0.2983   0.5   0.9082
V18     V     0.2983   0.5   0.0918
Er19     Er     0.1148   0.5   0.9082
Er20     Er     0.1148   0.5   0.0918
Er21     Er     0.0   0.4082   0.6148
V22     V     0.0   0.4082   0.7983
V23     V     0.0   0.5918   0.7983
Er24     Er     0.0   0.5918   0.6148
Er25     Er     0.0   0.5918   0.3852
V26     V     0.0   0.4082   0.2017
V27     V     0.0   0.5918   0.2017
Er28     Er     0.0   0.4082   0.3852
V29     V     0.7017   0.5   0.9082
V30     V     0.7017   0.5   0.0918
Er31     Er     0.8852   0.5   0.9082
Er32     Er     0.8852   0.5   0.0918
V33     V     0.5   0.9082   0.2983
V34     V     0.5   0.0918   0.2983
Er35     Er     0.5   0.9082   0.1148
Er36     Er     0.5   0.0918   0.1148
Er37     Er     0.5918   0.6148   0.0
V38     V     0.4082   0.7983   0.0
V39     V     0.5918   0.7983   0.0
Er40     Er     0.4082   0.6148   0.0
Er41     Er     0.4082   0.3852   0.0
V42     V     0.4082   0.2017   0.0
V43     V     0.5918   0.2017   0.0
Er44     Er     0.5918   0.3852   0.0
V45     V     0.5   0.9082   0.7017
V46     V     0.5   0.0918   0.7017
Er47     Er     0.5   0.9082   0.8852
Er48     Er     0.5   0.0918   0.8852
loop_
_geom_bond_atom_site_label_1
_geom_bond_atom_site_label_2
_geom_bond_distance
_geom_bond_site_symmetry_2
_ccdc_geom_bond_type
V1     Er28    10.0   1_655     S
V1     Er21    10.0   1_655     S
V1     V2    10.0   1_655     S
V1     Er3    10.0   .     S
V2     V1    10.0   1_455     S
V2     Er21    10.0   .     S
V2     Er28    10.0   .     S
V2     Er4    10.0   .     S
Er3     Er4    10.0   1_655     S
Er3     V7    10.0   .     S
Er3     V6    10.0   .     S
Er4     Er3    10.0   1_455     S
Er4     V11    10.0   .     S
Er4     V10    10.0   .     S
Er5     V7    10.0   .     S
Er5     Er8    10.0   .     S
Er5     V45    10.0   1_545     S
Er5     V46    10.0   .     S
V6     V7    10.0   .     S
V6     Er15    10.0   1_545     S
V6     Er8    10.0   .     S
V7     Er15    10.0   1_545     S
Er8     V33    10.0   1_545     S
Er8     V34    10.0   .     S
Er9     V10    10.0   .     S
Er9     Er12    10.0   .     S
Er9     V33    10.0   1_545     S
Er9     V34    10.0   .     S
V10     V11    10.0   .     S
V10     Er16    10.0   1_545     S
V11     Er16    10.0   1_545     S
V11     Er12    10.0   .     S
Er12     V45    10.0   1_545     S
Er12     V46    10.0   .     S
V13     Er24    10.0   1_655     S
V13     Er25    10.0   1_655     S
V13     V14    10.0   1_655     S
V13     Er15    10.0   .     S
V14     Er25    10.0   .     S
V14     V13    10.0   1_455     S
V14     Er24    10.0   .     S
V14     Er16    10.0   .     S
Er15     V7    10.0   1_565     S
Er15     V6    10.0   1_565     S
Er15     Er16    10.0   1_655     S
Er16     V11    10.0   1_565     S
Er16     V10    10.0   1_565     S
Er16     Er15    10.0   1_455     S
V17     Er41    10.0   1_556     S
V17     Er40    10.0   1_556     S
V17     V18    10.0   1_556     S
V17     Er19    10.0   .     S
V18     V17    10.0   1_554     S
V18     Er40    10.0   .     S
V18     Er41    10.0   .     S
V18     Er20    10.0   .     S
Er19     Er20    10.0   1_556     S
Er19     V23    10.0   .     S
Er19     V22    10.0   .     S
Er20     Er19    10.0   1_554     S
Er20     V27    10.0   .     S
Er20     V26    10.0   .     S
Er21     V1    10.0   1_455     S
Er21     V22    10.0   .     S
Er21     Er24    10.0   .     S
V22     V23    10.0   .     S
V22     Er31    10.0   1_455     S
V23     Er31    10.0   1_455     S
V23     Er24    10.0   .     S
Er24     V13    10.0   1_455     S
Er25     V13    10.0   1_455     S
Er25     V27    10.0   .     S
Er25     Er28    10.0   .     S
V26     V27    10.0   .     S
V26     Er32    10.0   1_455     S
V26     Er28    10.0   .     S
V27     Er32    10.0   1_455     S
Er28     V1    10.0   1_455     S
V29     Er37    10.0   1_556     S
V29     Er44    10.0   1_556     S
V29     V30    10.0   1_556     S
V29     Er31    10.0   .     S
V30     Er44    10.0   .     S
V30     V29    10.0   1_554     S
V30     Er37    10.0   .     S
V30     Er32    10.0   .     S
Er31     V23    10.0   1_655     S
Er31     V22    10.0   1_655     S
Er31     Er32    10.0   1_556     S
Er32     V27    10.0   1_655     S
Er32     V26    10.0   1_655     S
Er32     Er31    10.0   1_554     S
V33     Er9    10.0   1_565     S
V33     Er8    10.0   1_565     S
V33     V34    10.0   1_565     S
V33     Er35    10.0   .     S
V34     V33    10.0   1_545     S
V34     Er36    10.0   .     S
Er35     Er36    10.0   1_565     S
Er35     V39    10.0   .     S
Er35     V38    10.0   .     S
Er36     Er35    10.0   1_545     S
Er36     V43    10.0   .     S
Er36     V42    10.0   .     S
Er37     V29    10.0   1_554     S
Er37     V39    10.0   .     S
Er37     Er40    10.0   .     S
V38     V39    10.0   .     S
V38     Er47    10.0   1_554     S
V38     Er40    10.0   .     S
V39     Er47    10.0   1_554     S
Er40     V17    10.0   1_554     S
Er41     V17    10.0   1_554     S
Er41     V42    10.0   .     S
Er41     Er44    10.0   .     S
V42     V43    10.0   .     S
V42     Er48    10.0   1_554     S
V43     Er48    10.0   1_554     S
V43     Er44    10.0   .     S
Er44     V29    10.0   1_554     S
V45     Er5    10.0   1_565     S
V45     Er12    10.0   1_565     S
V45     V46    10.0   1_565     S
V45     Er47    10.0   .     S
V46     V45    10.0   1_545     S
V46     Er48    10.0   .     S
Er47     V39    10.0   1_556     S
Er47     V38    10.0   1_556     S
Er47     Er48    10.0   1_565     S
Er48     V43    10.0   1_556     S
Er48     V42    10.0   1_556     S
Er48     Er47    10.0   1_545     S
