data_fua
_audit_creation_date              2020-02-02
_audit_creation_method            'Pymatgen'
_symmetry_space_group_name_H-M    'P1'
_symmetry_Int_Tables_number       1
loop_
_symmetry_equiv_pos_as_xyz
  x,y,z
_cell_length_a                    45.2616
_cell_length_b                    45.2616
_cell_length_c                    74.1869
_cell_angle_alpha                 90.0
_cell_angle_beta                 90.0
_cell_angle_gamma                 120.0
loop_
_atom_site_label
_atom_site_type_symbol
_atom_site_fract_x
_atom_site_fract_y
_atom_site_fract_z
Er1     Er     0.6667   0.5543   0.9681
Er2     Er     0.4457   0.3333   0.9681
Er3     Er     0.4457   0.1124   0.9681
Er4     Er     0.6667   0.1124   0.9681
Er5     Er     0.8876   0.3333   0.9681
Er6     Er     0.8876   0.5543   0.9681
Er7     Er     0.5543   0.6667   0.0319
Er8     Er     0.1124   0.4457   0.0319
Er9     Er     0.1124   0.6667   0.0319
Er10     Er     0.3333   0.4457   0.0319
Er11     Er     0.5543   0.8876   0.0319
Er12     Er     0.3333   0.8876   0.0319
V13     V     0.6667   0.5543   0.8333
V14     V     0.6667   0.1124   0.8333
V15     V     0.4457   0.3333   0.8333
V16     V     0.4457   0.1124   0.8333
V17     V     0.8876   0.3333   0.8333
V18     V     0.8876   0.5543   0.8333
Er19     Er     0.7791   0.0   0.6348
Er20     Er     0.0   0.2209   0.6348
Er21     Er     0.2209   0.2209   0.6348
Er22     Er     0.2209   0.0   0.6348
Er23     Er     0.0   0.7791   0.6348
Er24     Er     0.7791   0.7791   0.6348
Er25     Er     0.8876   0.3333   0.6985
Er26     Er     0.8876   0.5543   0.6985
Er27     Er     0.6667   0.5543   0.6985
Er28     Er     0.6667   0.1124   0.6985
Er29     Er     0.4457   0.1124   0.6985
Er30     Er     0.4457   0.3333   0.6985
V31     V     0.7791   0.0   0.5
V32     V     0.2209   0.0   0.5
V33     V     0.2209   0.2209   0.5
V34     V     0.0   0.2209   0.5
V35     V     0.7791   0.7791   0.5
V36     V     0.0   0.7791   0.5
V37     V     0.5543   0.8876   0.1667
V38     V     0.3333   0.8876   0.1667
V39     V     0.1124   0.6667   0.1667
V40     V     0.1124   0.4457   0.1667
V41     V     0.3333   0.4457   0.1667
V42     V     0.5543   0.6667   0.1667
Er43     Er     0.7791   0.0   0.3652
Er44     Er     0.2209   0.0   0.3652
Er45     Er     0.2209   0.2209   0.3652
Er46     Er     0.0   0.2209   0.3652
Er47     Er     0.0   0.7791   0.3652
Er48     Er     0.7791   0.7791   0.3652
Er49     Er     0.5543   0.8876   0.3015
Er50     Er     0.3333   0.8876   0.3015
Er51     Er     0.5543   0.6667   0.3015
Er52     Er     0.1124   0.4457   0.3015
Er53     Er     0.1124   0.6667   0.3015
Er54     Er     0.3333   0.4457   0.3015
loop_
_geom_bond_atom_site_label_1
_geom_bond_atom_site_label_2
_geom_bond_distance
_geom_bond_site_symmetry_2
_ccdc_geom_bond_type
Er1     Er7    10.0   1_556     S
Er1     V13    10.0   .     S
Er1     Er2    10.0   .     S
Er1     Er6    10.0   .     S
Er2     Er10    10.0   1_556     S
Er2     V15    10.0   .     S
Er2     Er3    10.0   .     S
Er3     Er12    10.0   1_546     S
Er3     V16    10.0   .     S
Er3     Er4    10.0   .     S
Er4     V14    10.0   .     S
Er4     Er5    10.0   .     S
Er4     Er11    10.0   1_546     S
Er5     V17    10.0   .     S
Er5     Er6    10.0   .     S
Er5     Er8    10.0   1_656     S
Er6     Er9    10.0   1_656     S
Er6     V18    10.0   .     S
Er7     Er1    10.0   1_554     S
Er7     V42    10.0   .     S
Er7     Er10    10.0   .     S
Er7     Er11    10.0   .     S
Er8     Er5    10.0   1_454     S
Er8     V40    10.0   .     S
Er8     Er9    10.0   .     S
Er8     Er10    10.0   .     S
Er9     Er6    10.0   1_454     S
Er9     V39    10.0   .     S
Er9     Er12    10.0   .     S
Er10     Er2    10.0   1_554     S
Er10     V41    10.0   .     S
Er11     Er4    10.0   1_564     S
Er11     V37    10.0   .     S
Er11     Er12    10.0   .     S
Er12     Er3    10.0   1_564     S
Er12     V38    10.0   .     S
V13     V15    10.0   .     S
V13     V18    10.0   .     S
V13     Er27    10.0   .     S
V14     V16    10.0   .     S
V14     V17    10.0   .     S
V14     Er28    10.0   .     S
V15     V16    10.0   .     S
V15     Er30    10.0   .     S
V16     Er29    10.0   .     S
V17     V18    10.0   .     S
V17     Er25    10.0   .     S
V18     Er26    10.0   .     S
Er19     V31    10.0   .     S
Er19     Er24    10.0   1_545     S
Er19     Er20    10.0   1_655     S
Er19     Er28    10.0   .     S
Er20     V34    10.0   .     S
Er20     Er21    10.0   .     S
Er20     Er19    10.0   1_455     S
Er20     Er25    10.0   1_455     S
Er21     Er30    10.0   .     S
Er21     V33    10.0   .     S
Er21     Er22    10.0   .     S
Er22     Er29    10.0   .     S
Er22     V32    10.0   .     S
Er22     Er23    10.0   1_545     S
Er23     Er26    10.0   1_455     S
Er23     Er22    10.0   1_565     S
Er23     V36    10.0   .     S
Er23     Er24    10.0   1_455     S
Er24     Er27    10.0   .     S
Er24     Er19    10.0   1_565     S
Er24     V35    10.0   .     S
Er24     Er23    10.0   1_655     S
Er25     Er20    10.0   1_655     S
Er25     Er28    10.0   .     S
Er25     Er26    10.0   .     S
Er26     Er23    10.0   1_655     S
Er26     Er27    10.0   .     S
Er27     Er30    10.0   .     S
Er28     Er29    10.0   .     S
Er29     Er30    10.0   .     S
V31     V35    10.0   1_545     S
V31     V34    10.0   1_655     S
V31     Er43    10.0   .     S
V32     V36    10.0   1_545     S
V32     V33    10.0   .     S
V32     Er44    10.0   .     S
V33     V34    10.0   .     S
V33     Er45    10.0   .     S
V34     V31    10.0   1_455     S
V34     Er46    10.0   .     S
V35     V31    10.0   1_565     S
V35     V36    10.0   1_655     S
V35     Er48    10.0   .     S
V36     V32    10.0   1_565     S
V36     V35    10.0   1_455     S
V36     Er47    10.0   .     S
V37     V42    10.0   .     S
V37     V38    10.0   .     S
V37     Er49    10.0   .     S
V38     V39    10.0   .     S
V38     Er50    10.0   .     S
V39     V40    10.0   .     S
V39     Er53    10.0   .     S
V40     V41    10.0   .     S
V40     Er52    10.0   .     S
V41     V42    10.0   .     S
V41     Er54    10.0   .     S
V42     Er51    10.0   .     S
Er43     Er49    10.0   1_545     S
Er43     Er48    10.0   1_545     S
Er43     Er46    10.0   1_655     S
Er44     Er47    10.0   1_545     S
Er44     Er45    10.0   .     S
Er44     Er50    10.0   1_545     S
Er45     Er54    10.0   .     S
Er45     Er46    10.0   .     S
Er46     Er52    10.0   .     S
Er46     Er43    10.0   1_455     S
Er47     Er53    10.0   .     S
Er47     Er44    10.0   1_565     S
Er47     Er48    10.0   1_455     S
Er48     Er51    10.0   .     S
Er48     Er43    10.0   1_565     S
Er48     Er47    10.0   1_655     S
Er49     Er43    10.0   1_565     S
Er49     Er51    10.0   .     S
Er49     Er50    10.0   .     S
Er50     Er44    10.0   1_565     S
Er50     Er53    10.0   .     S
Er51     Er54    10.0   .     S
Er52     Er53    10.0   .     S
Er52     Er54    10.0   .     S
