data_fub
_audit_creation_date              2020-02-02
_audit_creation_method            'Pymatgen'
_symmetry_space_group_name_H-M    'P1'
_symmetry_Int_Tables_number       1
loop_
_symmetry_equiv_pos_as_xyz
  x,y,z
_cell_length_a                    82.7793
_cell_length_b                    82.7793
_cell_length_c                    82.7793
_cell_angle_alpha                 90.0
_cell_angle_beta                 90.0
_cell_angle_gamma                 90.0
loop_
_atom_site_label
_atom_site_type_symbol
_atom_site_fract_x
_atom_site_fract_y
_atom_site_fract_z
Er1     Er     0.7802   0.1344   0.4396
Er2     Er     0.7802   0.1344   0.5604
Er3     Er     0.8656   0.2198   0.5604
Er4     Er     0.8656   0.2198   0.4396
Er5     Er     0.1344   0.7802   0.5604
Er6     Er     0.1344   0.7802   0.4396
Er7     Er     0.2198   0.8656   0.4396
Er8     Er     0.2198   0.8656   0.5604
V9     V     0.0604   0.1458   0.5
V10     V     0.9396   0.1458   0.5
V11     V     0.1458   0.0604   0.5
V12     V     0.1458   0.9396   0.5
V13     V     0.8542   0.0604   0.5
V14     V     0.8542   0.9396   0.5
V15     V     0.0604   0.8542   0.5
V16     V     0.9396   0.8542   0.5
Er17     Er     0.4396   0.7802   0.1344
Er18     Er     0.5604   0.7802   0.1344
Er19     Er     0.5604   0.8656   0.2198
Er20     Er     0.4396   0.8656   0.2198
Er21     Er     0.5604   0.1344   0.7802
Er22     Er     0.4396   0.1344   0.7802
Er23     Er     0.4396   0.2198   0.8656
Er24     Er     0.5604   0.2198   0.8656
V25     V     0.5   0.0604   0.1458
V26     V     0.5   0.9396   0.1458
V27     V     0.5   0.1458   0.0604
V28     V     0.5   0.1458   0.9396
V29     V     0.5   0.8542   0.0604
V30     V     0.5   0.8542   0.9396
V31     V     0.5   0.0604   0.8542
V32     V     0.5   0.9396   0.8542
Er33     Er     0.5604   0.1344   0.2198
Er34     Er     0.4396   0.1344   0.2198
Er35     Er     0.5604   0.2198   0.1344
Er36     Er     0.4396   0.2198   0.1344
Er37     Er     0.7198   0.6344   0.0604
Er38     Er     0.7198   0.6344   0.9396
Er39     Er     0.6344   0.7198   0.0604
Er40     Er     0.6344   0.7198   0.9396
Er41     Er     0.3656   0.2802   0.0604
Er42     Er     0.3656   0.2802   0.9396
Er43     Er     0.2802   0.3656   0.0604
Er44     Er     0.2802   0.3656   0.9396
Er45     Er     0.7198   0.3656   0.0604
Er46     Er     0.7198   0.3656   0.9396
Er47     Er     0.6344   0.2802   0.0604
Er48     Er     0.6344   0.2802   0.9396
V49     V     0.4396   0.3542   0.0
V50     V     0.5604   0.3542   0.0
V51     V     0.3542   0.5604   0.0
V52     V     0.3542   0.4396   0.0
V53     V     0.6458   0.5604   0.0
V54     V     0.6458   0.4396   0.0
V55     V     0.4396   0.6458   0.0
V56     V     0.5604   0.6458   0.0
Er57     Er     0.3656   0.7198   0.0604
Er58     Er     0.3656   0.7198   0.9396
Er59     Er     0.2802   0.6344   0.0604
Er60     Er     0.2802   0.6344   0.9396
Er61     Er     0.2198   0.4396   0.1344
Er62     Er     0.2198   0.5604   0.1344
Er63     Er     0.1344   0.5604   0.2198
Er64     Er     0.1344   0.4396   0.2198
Er65     Er     0.1344   0.2198   0.4396
Er66     Er     0.1344   0.2198   0.5604
Er67     Er     0.2198   0.1344   0.5604
Er68     Er     0.2198   0.1344   0.4396
Er69     Er     0.3656   0.0604   0.2802
Er70     Er     0.3656   0.9396   0.2802
Er71     Er     0.2802   0.0604   0.3656
Er72     Er     0.2802   0.9396   0.3656
Er73     Er     0.7198   0.0604   0.3656
Er74     Er     0.7198   0.9396   0.3656
Er75     Er     0.6344   0.0604   0.2802
Er76     Er     0.6344   0.9396   0.2802
V77     V     0.4396   0.0   0.3542
V78     V     0.5604   0.0   0.3542
V79     V     0.3542   0.0   0.5604
V80     V     0.3542   0.0   0.4396
V81     V     0.5604   0.0   0.6458
V82     V     0.4396   0.0   0.6458
V83     V     0.6458   0.0   0.5604
V84     V     0.6458   0.0   0.4396
Er85     Er     0.3656   0.0604   0.7198
Er86     Er     0.3656   0.9396   0.7198
Er87     Er     0.2802   0.0604   0.6344
Er88     Er     0.2802   0.9396   0.6344
Er89     Er     0.5604   0.7802   0.8656
Er90     Er     0.4396   0.7802   0.8656
Er91     Er     0.5604   0.8656   0.7802
Er92     Er     0.4396   0.8656   0.7802
Er93     Er     0.6344   0.0604   0.7198
Er94     Er     0.6344   0.9396   0.7198
Er95     Er     0.7198   0.0604   0.6344
Er96     Er     0.7198   0.9396   0.6344
Er97     Er     0.0604   0.6344   0.7198
Er98     Er     0.9396   0.6344   0.7198
Er99     Er     0.0604   0.7198   0.6344
Er100     Er     0.9396   0.7198   0.6344
Er101     Er     0.0604   0.3656   0.2802
Er102     Er     0.9396   0.3656   0.2802
Er103     Er     0.0604   0.2802   0.3656
Er104     Er     0.9396   0.2802   0.3656
Er105     Er     0.7802   0.4396   0.8656
Er106     Er     0.7802   0.5604   0.8656
Er107     Er     0.8656   0.4396   0.7802
Er108     Er     0.8656   0.5604   0.7802
Er109     Er     0.7802   0.8656   0.5604
Er110     Er     0.7802   0.8656   0.4396
Er111     Er     0.8656   0.7802   0.4396
Er112     Er     0.8656   0.7802   0.5604
Er113     Er     0.0604   0.7198   0.3656
Er114     Er     0.9396   0.7198   0.3656
Er115     Er     0.0604   0.6344   0.2802
Er116     Er     0.9396   0.6344   0.2802
V117     V     0.0   0.4396   0.3542
V118     V     0.0   0.5604   0.3542
V119     V     0.0   0.3542   0.4396
V120     V     0.0   0.3542   0.5604
V121     V     0.0   0.5604   0.6458
V122     V     0.0   0.4396   0.6458
V123     V     0.0   0.6458   0.4396
V124     V     0.0   0.6458   0.5604
Er125     Er     0.0604   0.3656   0.7198
Er126     Er     0.9396   0.3656   0.7198
Er127     Er     0.0604   0.2802   0.6344
Er128     Er     0.9396   0.2802   0.6344
Er129     Er     0.7802   0.5604   0.1344
Er130     Er     0.7802   0.4396   0.1344
Er131     Er     0.8656   0.4396   0.2198
Er132     Er     0.8656   0.5604   0.2198
Er133     Er     0.1344   0.4396   0.7802
Er134     Er     0.1344   0.5604   0.7802
Er135     Er     0.2198   0.5604   0.8656
Er136     Er     0.2198   0.4396   0.8656
V137     V     0.0604   0.5   0.1458
V138     V     0.9396   0.5   0.1458
V139     V     0.1458   0.5   0.0604
V140     V     0.1458   0.5   0.9396
V141     V     0.8542   0.5   0.0604
V142     V     0.8542   0.5   0.9396
V143     V     0.0604   0.5   0.8542
V144     V     0.9396   0.5   0.8542
loop_
_geom_bond_atom_site_label_1
_geom_bond_atom_site_label_2
_geom_bond_distance
_geom_bond_site_symmetry_2
_ccdc_geom_bond_type
Er1     V13    10.0   .     S
Er1     Er2    10.0   .     S
Er1     Er4    10.0   .     S
Er1     Er73    10.0   .     S
Er2     V13    10.0   .     S
Er2     Er3    10.0   .     S
Er2     Er95    10.0   .     S
Er3     Er4    10.0   .     S
Er3     V10    10.0   .     S
Er3     Er128    10.0   .     S
Er4     V10    10.0   .     S
Er4     Er104    10.0   .     S
Er5     V15    10.0   .     S
Er5     Er6    10.0   .     S
Er5     Er8    10.0   .     S
Er5     Er99    10.0   .     S
Er6     V15    10.0   .     S
Er6     Er7    10.0   .     S
Er6     Er113    10.0   .     S
Er7     Er8    10.0   .     S
Er7     V12    10.0   .     S
Er7     Er72    10.0   .     S
Er8     V12    10.0   .     S
Er8     Er88    10.0   .     S
V9     V10    10.0   1_455     S
V9     V11    10.0   .     S
V9     Er65    10.0   .     S
V9     Er66    10.0   .     S
V10     V9    10.0   1_655     S
V10     V13    10.0   .     S
V11     V12    10.0   1_545     S
V11     Er67    10.0   .     S
V11     Er68    10.0   .     S
V12     V11    10.0   1_565     S
V12     V15    10.0   .     S
V13     V14    10.0   1_545     S
V14     Er109    10.0   .     S
V14     Er110    10.0   .     S
V14     V13    10.0   1_565     S
V14     V16    10.0   .     S
V15     V16    10.0   1_455     S
V16     Er111    10.0   .     S
V16     Er112    10.0   .     S
V16     V15    10.0   1_655     S
Er17     V29    10.0   .     S
Er17     Er18    10.0   .     S
Er17     Er20    10.0   .     S
Er17     Er57    10.0   .     S
Er18     V29    10.0   .     S
Er18     Er19    10.0   .     S
Er18     Er39    10.0   .     S
Er19     Er20    10.0   .     S
Er19     V26    10.0   .     S
Er19     Er76    10.0   .     S
Er20     V26    10.0   .     S
Er20     Er70    10.0   .     S
Er21     V31    10.0   .     S
Er21     Er22    10.0   .     S
Er21     Er24    10.0   .     S
Er21     Er93    10.0   .     S
Er22     V31    10.0   .     S
Er22     Er23    10.0   .     S
Er22     Er85    10.0   .     S
Er23     Er24    10.0   .     S
Er23     V28    10.0   .     S
Er23     Er42    10.0   .     S
Er24     V28    10.0   .     S
Er24     Er48    10.0   .     S
V25     V26    10.0   1_545     S
V25     V27    10.0   .     S
V25     Er34    10.0   .     S
V25     Er33    10.0   .     S
V26     V25    10.0   1_565     S
V26     V29    10.0   .     S
V27     V28    10.0   1_554     S
V27     Er35    10.0   .     S
V27     Er36    10.0   .     S
V28     V27    10.0   1_556     S
V28     V31    10.0   .     S
V29     V30    10.0   1_554     S
V30     Er89    10.0   .     S
V30     Er90    10.0   .     S
V30     V29    10.0   1_556     S
V30     V32    10.0   .     S
V31     V32    10.0   1_545     S
V32     Er92    10.0   .     S
V32     Er91    10.0   .     S
V32     V31    10.0   1_565     S
Er33     Er34    10.0   .     S
Er33     Er35    10.0   .     S
Er33     Er75    10.0   .     S
Er34     Er36    10.0   .     S
Er34     Er69    10.0   .     S
Er35     Er36    10.0   .     S
Er35     Er47    10.0   .     S
Er36     Er41    10.0   .     S
Er37     Er38    10.0   1_554     S
Er37     Er39    10.0   .     S
Er37     V53    10.0   .     S
Er37     Er129    10.0   .     S
Er38     Er37    10.0   1_556     S
Er38     Er40    10.0   .     S
Er38     Er106    10.0   .     S
Er38     V53    10.0   1_556     S
Er39     Er40    10.0   1_554     S
Er39     V56    10.0   .     S
Er40     Er39    10.0   1_556     S
Er40     Er89    10.0   .     S
Er40     V56    10.0   1_556     S
Er41     Er42    10.0   1_554     S
Er41     Er43    10.0   .     S
Er41     V49    10.0   .     S
Er42     Er41    10.0   1_556     S
Er42     Er44    10.0   .     S
Er42     V49    10.0   1_556     S
Er43     Er44    10.0   1_554     S
Er43     V52    10.0   .     S
Er43     Er61    10.0   .     S
Er44     Er43    10.0   1_556     S
Er44     Er136    10.0   .     S
Er44     V52    10.0   1_556     S
Er45     Er46    10.0   1_554     S
Er45     Er47    10.0   .     S
Er45     V54    10.0   .     S
Er45     Er130    10.0   .     S
Er46     Er45    10.0   1_556     S
Er46     Er48    10.0   .     S
Er46     Er105    10.0   .     S
Er46     V54    10.0   1_556     S
Er47     Er48    10.0   1_554     S
Er47     V50    10.0   .     S
Er48     Er47    10.0   1_556     S
Er48     V50    10.0   1_556     S
V49     Er42    10.0   1_554     S
V49     V50    10.0   .     S
V49     V52    10.0   .     S
V50     Er48    10.0   1_554     S
V50     V54    10.0   .     S
V51     Er60    10.0   1_554     S
V51     Er59    10.0   .     S
V51     V52    10.0   .     S
V51     V55    10.0   .     S
V52     Er44    10.0   1_554     S
V53     Er38    10.0   1_554     S
V53     V54    10.0   .     S
V53     V56    10.0   .     S
V54     Er46    10.0   1_554     S
V55     Er57    10.0   .     S
V55     Er58    10.0   1_554     S
V55     V56    10.0   .     S
V56     Er40    10.0   1_554     S
Er57     Er58    10.0   1_554     S
Er57     Er59    10.0   .     S
Er58     V55    10.0   1_556     S
Er58     Er57    10.0   1_556     S
Er58     Er60    10.0   .     S
Er58     Er90    10.0   .     S
Er59     Er60    10.0   1_554     S
Er59     Er62    10.0   .     S
Er60     V51    10.0   1_556     S
Er60     Er59    10.0   1_556     S
Er60     Er135    10.0   .     S
Er61     V139    10.0   .     S
Er61     Er62    10.0   .     S
Er61     Er64    10.0   .     S
Er62     V139    10.0   .     S
Er62     Er63    10.0   .     S
Er63     V137    10.0   .     S
Er63     Er64    10.0   .     S
Er63     Er115    10.0   .     S
Er64     V137    10.0   .     S
Er64     Er101    10.0   .     S
Er65     Er66    10.0   .     S
Er65     Er68    10.0   .     S
Er65     Er103    10.0   .     S
Er66     Er67    10.0   .     S
Er66     Er127    10.0   .     S
Er67     Er68    10.0   .     S
Er67     Er87    10.0   .     S
Er68     Er71    10.0   .     S
Er69     Er70    10.0   1_545     S
Er69     Er71    10.0   .     S
Er69     V77    10.0   .     S
Er70     Er69    10.0   1_565     S
Er70     Er72    10.0   .     S
Er70     V77    10.0   1_565     S
Er71     Er72    10.0   1_545     S
Er71     V80    10.0   .     S
Er72     Er71    10.0   1_565     S
Er72     V80    10.0   1_565     S
Er73     Er74    10.0   1_545     S
Er73     Er75    10.0   .     S
Er73     V84    10.0   .     S
Er74     Er73    10.0   1_565     S
Er74     Er76    10.0   .     S
Er74     Er110    10.0   .     S
Er74     V84    10.0   1_565     S
Er75     Er76    10.0   1_545     S
Er75     V78    10.0   .     S
Er76     Er75    10.0   1_565     S
Er76     V78    10.0   1_565     S
V77     Er70    10.0   1_545     S
V77     V78    10.0   .     S
V77     V80    10.0   .     S
V78     Er76    10.0   1_545     S
V78     V84    10.0   .     S
V79     Er87    10.0   .     S
V79     Er88    10.0   1_545     S
V79     V80    10.0   .     S
V79     V82    10.0   .     S
V80     Er72    10.0   1_545     S
V81     Er93    10.0   .     S
V81     Er94    10.0   1_545     S
V81     V82    10.0   .     S
V81     V83    10.0   .     S
V82     Er86    10.0   1_545     S
V82     Er85    10.0   .     S
V83     Er96    10.0   1_545     S
V83     Er95    10.0   .     S
V83     V84    10.0   .     S
V84     Er74    10.0   1_545     S
Er85     Er86    10.0   1_545     S
Er85     Er87    10.0   .     S
Er86     V82    10.0   1_565     S
Er86     Er85    10.0   1_565     S
Er86     Er88    10.0   .     S
Er86     Er92    10.0   .     S
Er87     Er88    10.0   1_545     S
Er88     V79    10.0   1_565     S
Er88     Er87    10.0   1_565     S
Er89     Er90    10.0   .     S
Er89     Er91    10.0   .     S
Er90     Er92    10.0   .     S
Er91     Er92    10.0   .     S
Er91     Er94    10.0   .     S
Er93     Er94    10.0   1_545     S
Er93     Er95    10.0   .     S
Er94     V81    10.0   1_565     S
Er94     Er93    10.0   1_565     S
Er94     Er96    10.0   .     S
Er95     Er96    10.0   1_545     S
Er96     V83    10.0   1_565     S
Er96     Er95    10.0   1_565     S
Er96     Er109    10.0   .     S
Er97     Er98    10.0   1_455     S
Er97     Er99    10.0   .     S
Er97     V121    10.0   .     S
Er97     Er134    10.0   .     S
Er98     Er97    10.0   1_655     S
Er98     Er100    10.0   .     S
Er98     Er108    10.0   .     S
Er98     V121    10.0   1_655     S
Er99     Er100    10.0   1_455     S
Er99     V124    10.0   .     S
Er100     Er99    10.0   1_655     S
Er100     Er112    10.0   .     S
Er100     V124    10.0   1_655     S
Er101     Er102    10.0   1_455     S
Er101     Er103    10.0   .     S
Er101     V117    10.0   .     S
Er102     Er101    10.0   1_655     S
Er102     Er104    10.0   .     S
Er102     Er131    10.0   .     S
Er102     V117    10.0   1_655     S
Er103     Er104    10.0   1_455     S
Er103     V119    10.0   .     S
Er104     Er103    10.0   1_655     S
Er104     V119    10.0   1_655     S
Er105     Er106    10.0   .     S
Er105     Er107    10.0   .     S
Er105     V142    10.0   .     S
Er106     Er108    10.0   .     S
Er106     V142    10.0   .     S
Er107     Er108    10.0   .     S
Er107     Er126    10.0   .     S
Er107     V144    10.0   .     S
Er108     V144    10.0   .     S
Er109     Er110    10.0   .     S
Er109     Er112    10.0   .     S
Er110     Er111    10.0   .     S
Er111     Er112    10.0   .     S
Er111     Er114    10.0   .     S
Er113     Er114    10.0   1_455     S
Er113     Er115    10.0   .     S
Er113     V123    10.0   .     S
Er114     Er113    10.0   1_655     S
Er114     Er116    10.0   .     S
Er114     V123    10.0   1_655     S
Er115     Er116    10.0   1_455     S
Er115     V118    10.0   .     S
Er116     Er115    10.0   1_655     S
Er116     Er132    10.0   .     S
Er116     V118    10.0   1_655     S
V117     Er102    10.0   1_455     S
V117     V118    10.0   .     S
V117     V119    10.0   .     S
V118     Er116    10.0   1_455     S
V118     V123    10.0   .     S
V119     Er104    10.0   1_455     S
V119     V120    10.0   .     S
V120     Er128    10.0   1_455     S
V120     Er127    10.0   .     S
V120     V122    10.0   .     S
V121     Er98    10.0   1_455     S
V121     V122    10.0   .     S
V121     V124    10.0   .     S
V122     Er125    10.0   .     S
V122     Er126    10.0   1_455     S
V123     Er114    10.0   1_455     S
V123     V124    10.0   .     S
V124     Er100    10.0   1_455     S
Er125     Er126    10.0   1_455     S
Er125     Er127    10.0   .     S
Er125     Er133    10.0   .     S
Er126     V122    10.0   1_655     S
Er126     Er125    10.0   1_655     S
Er126     Er128    10.0   .     S
Er127     Er128    10.0   1_455     S
Er128     V120    10.0   1_655     S
Er128     Er127    10.0   1_655     S
Er129     V141    10.0   .     S
Er129     Er130    10.0   .     S
Er129     Er132    10.0   .     S
Er130     V141    10.0   .     S
Er130     Er131    10.0   .     S
Er131     Er132    10.0   .     S
Er131     V138    10.0   .     S
Er132     V138    10.0   .     S
Er133     V143    10.0   .     S
Er133     Er134    10.0   .     S
Er133     Er136    10.0   .     S
Er134     V143    10.0   .     S
Er134     Er135    10.0   .     S
Er135     Er136    10.0   .     S
Er135     V140    10.0   .     S
Er136     V140    10.0   .     S
V137     V138    10.0   1_455     S
V137     V139    10.0   .     S
V138     V137    10.0   1_655     S
V138     V141    10.0   .     S
V139     V140    10.0   1_554     S
V140     V139    10.0   1_556     S
V140     V143    10.0   .     S
V141     V142    10.0   1_554     S
V142     V141    10.0   1_556     S
V142     V144    10.0   .     S
V143     V144    10.0   1_455     S
V144     V143    10.0   1_655     S
