data_fue
_audit_creation_date              2020-02-02
_audit_creation_method            'Pymatgen'
_symmetry_space_group_name_H-M    'P1'
_symmetry_Int_Tables_number       1
loop_
_symmetry_equiv_pos_as_xyz
  x,y,z
_cell_length_a                    58.2843
_cell_length_b                    58.2843
_cell_length_c                    58.2843
_cell_angle_alpha                 90.0
_cell_angle_beta                 90.0
_cell_angle_gamma                 90.0
loop_
_atom_site_label
_atom_site_type_symbol
_atom_site_fract_x
_atom_site_fract_y
_atom_site_fract_z
Er1     Er     0.7071   0.5858   0.8284
Er2     Er     0.8284   0.5858   0.7071
Er3     Er     0.5858   0.7071   0.8284
Er4     Er     0.5858   0.8284   0.7071
Er5     Er     0.8284   0.7071   0.5858
Er6     Er     0.7071   0.8284   0.5858
V7     V     0.7071   0.0   0.5858
V8     V     0.5858   0.0   0.7071
Er9     Er     0.8284   0.4142   0.7071
Er10     Er     0.7071   0.4142   0.8284
Er11     Er     0.5858   0.2929   0.8284
Er12     Er     0.8284   0.2929   0.5858
Er13     Er     0.5858   0.1716   0.7071
Er14     Er     0.7071   0.1716   0.5858
V15     V     0.0   0.2929   0.5858
V16     V     0.0   0.4142   0.7071
Er17     Er     0.1716   0.2929   0.5858
Er18     Er     0.2929   0.1716   0.5858
Er19     Er     0.4142   0.1716   0.7071
Er20     Er     0.4142   0.2929   0.8284
Er21     Er     0.1716   0.4142   0.7071
Er22     Er     0.2929   0.4142   0.8284
V23     V     0.2929   0.0   0.5858
V24     V     0.4142   0.0   0.7071
V25     V     0.0   0.7071   0.5858
V26     V     0.0   0.5858   0.7071
Er27     Er     0.4142   0.7071   0.8284
Er28     Er     0.4142   0.8284   0.7071
Er29     Er     0.2929   0.8284   0.5858
Er30     Er     0.2929   0.5858   0.8284
Er31     Er     0.1716   0.7071   0.5858
Er32     Er     0.1716   0.5858   0.7071
V33     V     0.5858   0.2929   0.0
V34     V     0.7071   0.4142   0.0
Er35     Er     0.5858   0.2929   0.1716
Er36     Er     0.5858   0.1716   0.2929
Er37     Er     0.7071   0.4142   0.1716
Er38     Er     0.8284   0.4142   0.2929
Er39     Er     0.7071   0.1716   0.4142
Er40     Er     0.8284   0.2929   0.4142
V41     V     0.5858   0.7071   0.0
V42     V     0.7071   0.5858   0.0
V43     V     0.5858   0.0   0.2929
V44     V     0.7071   0.0   0.4142
Er45     Er     0.7071   0.8284   0.4142
Er46     Er     0.8284   0.7071   0.4142
Er47     Er     0.5858   0.8284   0.2929
Er48     Er     0.8284   0.5858   0.2929
Er49     Er     0.5858   0.7071   0.1716
Er50     Er     0.7071   0.5858   0.1716
V51     V     0.2929   0.5858   0.0
V52     V     0.4142   0.7071   0.0
V53     V     0.0   0.5858   0.2929
V54     V     0.0   0.7071   0.4142
Er55     Er     0.2929   0.5858   0.1716
Er56     Er     0.1716   0.5858   0.2929
Er57     Er     0.4142   0.7071   0.1716
Er58     Er     0.4142   0.8284   0.2929
Er59     Er     0.1716   0.7071   0.4142
Er60     Er     0.2929   0.8284   0.4142
V61     V     0.2929   0.4142   0.0
V62     V     0.4142   0.2929   0.0
V63     V     0.2929   0.0   0.4142
V64     V     0.4142   0.0   0.2929
V65     V     0.0   0.2929   0.4142
V66     V     0.0   0.4142   0.2929
Er67     Er     0.4142   0.2929   0.1716
Er68     Er     0.4142   0.1716   0.2929
Er69     Er     0.2929   0.4142   0.1716
Er70     Er     0.1716   0.4142   0.2929
Er71     Er     0.2929   0.1716   0.4142
Er72     Er     0.1716   0.2929   0.4142
loop_
_geom_bond_atom_site_label_1
_geom_bond_atom_site_label_2
_geom_bond_distance
_geom_bond_site_symmetry_2
_ccdc_geom_bond_type
Er1     V42    10.0   1_556     S
Er1     Er2    10.0   .     S
Er1     Er3    10.0   .     S
Er1     Er10    10.0   .     S
Er2     V26    10.0   1_655     S
Er2     Er5    10.0   .     S
Er2     Er9    10.0   .     S
Er3     V41    10.0   1_556     S
Er3     Er4    10.0   .     S
Er3     Er27    10.0   .     S
Er4     V8    10.0   1_565     S
Er4     Er6    10.0   .     S
Er4     Er28    10.0   .     S
Er5     V25    10.0   1_655     S
Er5     Er6    10.0   .     S
Er5     Er46    10.0   .     S
Er6     V7    10.0   1_565     S
Er6     Er45    10.0   .     S
V7     Er6    10.0   1_545     S
V7     V8    10.0   .     S
V7     Er14    10.0   .     S
V7     V44    10.0   .     S
V8     Er4    10.0   1_545     S
V8     Er13    10.0   .     S
V8     V24    10.0   .     S
Er9     V16    10.0   1_655     S
Er9     Er10    10.0   .     S
Er9     Er12    10.0   .     S
Er10     V34    10.0   1_556     S
Er10     Er11    10.0   .     S
Er11     V33    10.0   1_556     S
Er11     Er13    10.0   .     S
Er11     Er20    10.0   .     S
Er12     V15    10.0   1_655     S
Er12     Er14    10.0   .     S
Er12     Er40    10.0   .     S
Er13     Er14    10.0   .     S
Er13     Er19    10.0   .     S
Er14     Er39    10.0   .     S
V15     Er12    10.0   1_455     S
V15     V16    10.0   .     S
V15     Er17    10.0   .     S
V15     V65    10.0   .     S
V16     Er9    10.0   1_455     S
V16     Er21    10.0   .     S
V16     V26    10.0   .     S
Er17     Er21    10.0   .     S
Er17     Er18    10.0   .     S
Er17     Er72    10.0   .     S
Er18     V23    10.0   .     S
Er18     Er19    10.0   .     S
Er18     Er71    10.0   .     S
Er19     V24    10.0   .     S
Er19     Er20    10.0   .     S
Er20     V62    10.0   1_556     S
Er20     Er22    10.0   .     S
Er21     Er22    10.0   .     S
Er21     Er32    10.0   .     S
Er22     V61    10.0   1_556     S
Er22     Er30    10.0   .     S
V23     V24    10.0   .     S
V23     Er29    10.0   1_545     S
V23     V63    10.0   .     S
V24     Er28    10.0   1_545     S
V25     Er5    10.0   1_455     S
V25     V26    10.0   .     S
V25     Er31    10.0   .     S
V25     V54    10.0   .     S
V26     Er2    10.0   1_455     S
V26     Er32    10.0   .     S
Er27     V52    10.0   1_556     S
Er27     Er28    10.0   .     S
Er27     Er30    10.0   .     S
Er28     V24    10.0   1_565     S
Er28     Er29    10.0   .     S
Er29     V23    10.0   1_565     S
Er29     Er31    10.0   .     S
Er29     Er60    10.0   .     S
Er30     V51    10.0   1_556     S
Er30     Er32    10.0   .     S
Er31     Er32    10.0   .     S
Er31     Er59    10.0   .     S
V33     Er11    10.0   1_554     S
V33     V34    10.0   .     S
V33     Er35    10.0   .     S
V33     V62    10.0   .     S
V34     Er10    10.0   1_554     S
V34     Er37    10.0   .     S
V34     V42    10.0   .     S
Er35     Er37    10.0   .     S
Er35     Er36    10.0   .     S
Er35     Er67    10.0   .     S
Er36     V43    10.0   .     S
Er36     Er39    10.0   .     S
Er36     Er68    10.0   .     S
Er37     Er38    10.0   .     S
Er37     Er50    10.0   .     S
Er38     V66    10.0   1_655     S
Er38     Er40    10.0   .     S
Er38     Er48    10.0   .     S
Er39     V44    10.0   .     S
Er39     Er40    10.0   .     S
Er40     V65    10.0   1_655     S
V41     Er3    10.0   1_554     S
V41     V42    10.0   .     S
V41     Er49    10.0   .     S
V41     V52    10.0   .     S
V42     Er1    10.0   1_554     S
V42     Er50    10.0   .     S
V43     V44    10.0   .     S
V43     Er47    10.0   1_545     S
V43     V64    10.0   .     S
V44     Er45    10.0   1_545     S
Er45     V44    10.0   1_565     S
Er45     Er46    10.0   .     S
Er45     Er47    10.0   .     S
Er46     V54    10.0   1_655     S
Er46     Er48    10.0   .     S
Er47     V43    10.0   1_565     S
Er47     Er49    10.0   .     S
Er47     Er58    10.0   .     S
Er48     V53    10.0   1_655     S
Er48     Er50    10.0   .     S
Er49     Er50    10.0   .     S
Er49     Er57    10.0   .     S
V51     Er30    10.0   1_554     S
V51     V52    10.0   .     S
V51     Er55    10.0   .     S
V51     V61    10.0   .     S
V52     Er27    10.0   1_554     S
V52     Er57    10.0   .     S
V53     Er48    10.0   1_455     S
V53     V54    10.0   .     S
V53     Er56    10.0   .     S
V53     V66    10.0   .     S
V54     Er46    10.0   1_455     S
V54     Er59    10.0   .     S
Er55     Er57    10.0   .     S
Er55     Er56    10.0   .     S
Er55     Er69    10.0   .     S
Er56     Er59    10.0   .     S
Er56     Er70    10.0   .     S
Er57     Er58    10.0   .     S
Er58     V64    10.0   1_565     S
Er58     Er60    10.0   .     S
Er59     Er60    10.0   .     S
Er60     V63    10.0   1_565     S
V61     Er22    10.0   1_554     S
V61     V62    10.0   .     S
V61     Er69    10.0   .     S
V62     Er20    10.0   1_554     S
V62     Er67    10.0   .     S
V63     Er60    10.0   1_545     S
V63     V64    10.0   .     S
V63     Er71    10.0   .     S
V64     Er58    10.0   1_545     S
V64     Er68    10.0   .     S
V65     Er40    10.0   1_455     S
V65     V66    10.0   .     S
V65     Er72    10.0   .     S
V66     Er38    10.0   1_455     S
V66     Er70    10.0   .     S
Er67     Er68    10.0   .     S
Er67     Er69    10.0   .     S
Er68     Er71    10.0   .     S
Er69     Er70    10.0   .     S
Er70     Er72    10.0   .     S
Er71     Er72    10.0   .     S
