data_fuf
_audit_creation_date              2020-02-02
_audit_creation_method            'Pymatgen'
_symmetry_space_group_name_H-M    'P1'
_symmetry_Int_Tables_number       1
loop_
_symmetry_equiv_pos_as_xyz
  x,y,z
_cell_length_a                    51.3783
_cell_length_b                    51.3783
_cell_length_c                    51.3783
_cell_angle_alpha                 90.0
_cell_angle_beta                 90.0
_cell_angle_gamma                 90.0
loop_
_atom_site_label
_atom_site_type_symbol
_atom_site_fract_x
_atom_site_fract_y
_atom_site_fract_z
Er1     Er     0.3624   0.8624   0.5
Er2     Er     0.1376   0.6376   0.5
V3     V     0.25   0.75   0.6124
V4     V     0.25   0.75   0.3876
Er5     Er     0.5   0.8624   0.3624
Er6     Er     0.5   0.6376   0.1376
V7     V     0.3876   0.75   0.25
V8     V     0.6124   0.75   0.25
Er9     Er     0.6376   0.5   0.1376
Er10     Er     0.8624   0.5   0.3624
V11     V     0.75   0.6124   0.25
V12     V     0.75   0.3876   0.25
Er13     Er     0.6376   0.0   0.3624
Er14     Er     0.8624   0.0   0.1376
V15     V     0.75   0.8876   0.25
V16     V     0.75   0.1124   0.25
Er17     Er     0.0   0.8624   0.1376
V18     V     0.1124   0.75   0.25
Er19     Er     0.0   0.6376   0.3624
V20     V     0.8876   0.75   0.25
Er21     Er     0.3624   0.6376   0.0
Er22     Er     0.1376   0.8624   0.0
V23     V     0.25   0.75   0.1124
V24     V     0.25   0.75   0.8876
Er25     Er     0.3624   0.5   0.8624
Er26     Er     0.1376   0.5   0.6376
V27     V     0.25   0.3876   0.75
V28     V     0.25   0.6124   0.75
Er29     Er     0.1376   0.0   0.8624
V30     V     0.25   0.1124   0.75
Er31     Er     0.3624   0.0   0.6376
V32     V     0.25   0.8876   0.75
Er33     Er     0.5   0.1376   0.6376
Er34     Er     0.5   0.3624   0.8624
V35     V     0.6124   0.25   0.75
V36     V     0.3876   0.25   0.75
Er37     Er     0.8624   0.1376   0.0
V38     V     0.75   0.25   0.1124
Er39     Er     0.6376   0.3624   0.0
V40     V     0.75   0.25   0.8876
Er41     Er     0.0   0.3624   0.6376
Er42     Er     0.0   0.1376   0.8624
V43     V     0.1124   0.25   0.75
V44     V     0.8876   0.25   0.75
Er45     Er     0.8624   0.3624   0.5
Er46     Er     0.6376   0.1376   0.5
V47     V     0.75   0.25   0.3876
V48     V     0.75   0.25   0.6124
loop_
_geom_bond_atom_site_label_1
_geom_bond_atom_site_label_2
_geom_bond_distance
_geom_bond_site_symmetry_2
_ccdc_geom_bond_type
Er1     V3    10.0   .     S
Er1     V4    10.0   .     S
Er1     Er31    10.0   1_565     S
Er1     Er5    10.0   .     S
Er2     V3    10.0   .     S
Er2     V4    10.0   .     S
Er2     Er19    10.0   .     S
Er2     Er26    10.0   .     S
V3     V32    10.0   .     S
V3     V28    10.0   .     S
V4     V18    10.0   .     S
V4     V7    10.0   .     S
Er5     V7    10.0   .     S
Er5     V8    10.0   .     S
Er5     Er13    10.0   1_565     S
Er6     V8    10.0   .     S
Er6     V7    10.0   .     S
Er6     Er9    10.0   .     S
Er6     Er21    10.0   .     S
V7     V23    10.0   .     S
V8     V15    10.0   .     S
V8     V11    10.0   .     S
Er9     V11    10.0   .     S
Er9     V12    10.0   .     S
Er9     Er39    10.0   .     S
Er10     V11    10.0   .     S
Er10     V12    10.0   .     S
Er10     Er19    10.0   1_655     S
Er10     Er45    10.0   .     S
V11     V20    10.0   .     S
V12     V38    10.0   .     S
V12     V47    10.0   .     S
Er13     Er5    10.0   1_545     S
Er13     V16    10.0   .     S
Er13     V15    10.0   1_545     S
Er13     Er46    10.0   .     S
Er14     V15    10.0   1_545     S
Er14     V16    10.0   .     S
Er14     Er37    10.0   .     S
Er14     Er17    10.0   1_645     S
V15     Er13    10.0   1_565     S
V15     Er14    10.0   1_565     S
V15     V20    10.0   .     S
V16     V38    10.0   .     S
V16     V47    10.0   .     S
Er17     V20    10.0   1_455     S
Er17     V18    10.0   .     S
Er17     Er22    10.0   .     S
Er17     Er14    10.0   1_465     S
V18     Er19    10.0   .     S
V18     V23    10.0   .     S
Er19     Er10    10.0   1_455     S
Er19     V20    10.0   1_455     S
V20     Er17    10.0   1_655     S
V20     Er19    10.0   1_655     S
Er21     V24    10.0   1_554     S
Er21     V23    10.0   .     S
Er21     Er25    10.0   1_554     S
Er22     V24    10.0   1_554     S
Er22     V23    10.0   .     S
Er22     Er29    10.0   1_564     S
V24     Er21    10.0   1_556     S
V24     Er22    10.0   1_556     S
V24     V28    10.0   .     S
V24     V32    10.0   .     S
Er25     V27    10.0   .     S
Er25     V28    10.0   .     S
Er25     Er21    10.0   1_556     S
Er25     Er34    10.0   .     S
Er26     V28    10.0   .     S
Er26     V27    10.0   .     S
Er26     Er41    10.0   .     S
V27     V36    10.0   .     S
V27     V43    10.0   .     S
Er29     V32    10.0   1_545     S
Er29     V30    10.0   .     S
Er29     Er42    10.0   .     S
Er29     Er22    10.0   1_546     S
V30     Er31    10.0   .     S
V30     V36    10.0   .     S
V30     V43    10.0   .     S
Er31     Er1    10.0   1_545     S
Er31     V32    10.0   1_545     S
Er31     Er33    10.0   .     S
V32     Er29    10.0   1_565     S
V32     Er31    10.0   1_565     S
Er33     V35    10.0   .     S
Er33     V36    10.0   .     S
Er33     Er46    10.0   .     S
Er34     V35    10.0   .     S
Er34     V36    10.0   .     S
Er34     Er39    10.0   1_556     S
V35     V40    10.0   .     S
V35     V48    10.0   .     S
Er37     V40    10.0   1_554     S
Er37     V38    10.0   .     S
Er37     Er42    10.0   1_654     S
V38     Er39    10.0   .     S
Er39     Er34    10.0   1_554     S
Er39     V40    10.0   1_554     S
V40     Er37    10.0   1_556     S
V40     Er39    10.0   1_556     S
V40     V44    10.0   .     S
Er41     V44    10.0   1_455     S
Er41     V43    10.0   .     S
Er41     Er45    10.0   1_455     S
Er42     V44    10.0   1_455     S
Er42     V43    10.0   .     S
Er42     Er37    10.0   1_456     S
V44     Er41    10.0   1_655     S
V44     Er42    10.0   1_655     S
V44     V48    10.0   .     S
Er45     V47    10.0   .     S
Er45     V48    10.0   .     S
Er45     Er41    10.0   1_655     S
Er46     V48    10.0   .     S
Er46     V47    10.0   .     S
