data_fug
_audit_creation_date              2020-02-02
_audit_creation_method            'Pymatgen'
_symmetry_space_group_name_H-M    'P1'
_symmetry_Int_Tables_number       1
loop_
_symmetry_equiv_pos_as_xyz
  x,y,z
_cell_length_a                    62.4266
_cell_length_b                    62.4266
_cell_length_c                    62.4266
_cell_angle_alpha                 90.0
_cell_angle_beta                 90.0
_cell_angle_gamma                 90.0
loop_
_atom_site_label
_atom_site_type_symbol
_atom_site_fract_x
_atom_site_fract_y
_atom_site_fract_z
V1     V     0.9199   0.5801   0.8066
V2     V     0.0801   0.5801   0.8066
V3     V     0.0801   0.4199   0.8066
V4     V     0.9199   0.4199   0.8066
V5     V     0.8066   0.4199   0.0801
V6     V     0.8066   0.4199   0.9199
V7     V     0.8066   0.5801   0.9199
V8     V     0.8066   0.5801   0.0801
V9     V     0.1934   0.5801   0.9199
V10     V     0.1934   0.5801   0.0801
V11     V     0.1934   0.4199   0.0801
V12     V     0.1934   0.4199   0.9199
V13     V     0.9199   0.5801   0.1934
V14     V     0.0801   0.5801   0.1934
V15     V     0.9199   0.4199   0.1934
V16     V     0.0801   0.4199   0.1934
V17     V     0.4199   0.9199   0.8066
V18     V     0.4199   0.0801   0.8066
V19     V     0.5801   0.9199   0.8066
V20     V     0.5801   0.0801   0.8066
V21     V     0.5801   0.8066   0.9199
V22     V     0.5801   0.8066   0.0801
V23     V     0.4199   0.8066   0.9199
V24     V     0.4199   0.8066   0.0801
V25     V     0.4199   0.1934   0.0801
V26     V     0.4199   0.1934   0.9199
V27     V     0.5801   0.1934   0.9199
V28     V     0.5801   0.1934   0.0801
V29     V     0.4199   0.0801   0.1934
V30     V     0.4199   0.9199   0.1934
V31     V     0.5801   0.9199   0.1934
V32     V     0.5801   0.0801   0.1934
V33     V     0.9199   0.8066   0.4199
V34     V     0.0801   0.8066   0.4199
V35     V     0.9199   0.8066   0.5801
V36     V     0.0801   0.8066   0.5801
V37     V     0.8066   0.0801   0.4199
V38     V     0.8066   0.9199   0.4199
V39     V     0.8066   0.9199   0.5801
V40     V     0.8066   0.0801   0.5801
V41     V     0.1934   0.0801   0.4199
V42     V     0.1934   0.9199   0.4199
V43     V     0.1934   0.9199   0.5801
V44     V     0.1934   0.0801   0.5801
V45     V     0.0801   0.1934   0.4199
V46     V     0.9199   0.1934   0.4199
V47     V     0.9199   0.1934   0.5801
V48     V     0.0801   0.1934   0.5801
Er49     Er     0.8066   0.3066   0.4199
Er50     Er     0.8066   0.4199   0.3066
Er51     Er     0.6934   0.4199   0.1934
Er52     Er     0.6934   0.1934   0.4199
Er53     Er     0.5801   0.1934   0.3066
Er54     Er     0.5801   0.3066   0.1934
Er55     Er     0.6934   0.1934   0.5801
Er56     Er     0.5801   0.1934   0.6934
Er57     Er     0.5801   0.3066   0.8066
Er58     Er     0.8066   0.3066   0.5801
Er59     Er     0.6934   0.4199   0.8066
Er60     Er     0.8066   0.4199   0.6934
Er61     Er     0.5801   0.6934   0.8066
Er62     Er     0.6934   0.5801   0.8066
Er63     Er     0.8066   0.5801   0.6934
Er64     Er     0.8066   0.6934   0.5801
Er65     Er     0.5801   0.8066   0.6934
Er66     Er     0.6934   0.8066   0.5801
Er67     Er     0.6934   0.5801   0.1934
Er68     Er     0.5801   0.6934   0.1934
Er69     Er     0.8066   0.5801   0.3066
Er70     Er     0.5801   0.8066   0.3066
Er71     Er     0.8066   0.6934   0.4199
Er72     Er     0.6934   0.8066   0.4199
Er73     Er     0.1934   0.5801   0.6934
Er74     Er     0.1934   0.6934   0.5801
Er75     Er     0.3066   0.8066   0.5801
Er76     Er     0.3066   0.5801   0.8066
Er77     Er     0.4199   0.8066   0.6934
Er78     Er     0.4199   0.6934   0.8066
Er79     Er     0.4199   0.8066   0.3066
Er80     Er     0.3066   0.8066   0.4199
Er81     Er     0.1934   0.6934   0.4199
Er82     Er     0.4199   0.6934   0.1934
Er83     Er     0.3066   0.5801   0.1934
Er84     Er     0.1934   0.5801   0.3066
Er85     Er     0.3066   0.4199   0.1934
Er86     Er     0.4199   0.3066   0.1934
Er87     Er     0.4199   0.1934   0.3066
Er88     Er     0.3066   0.1934   0.4199
Er89     Er     0.1934   0.4199   0.3066
Er90     Er     0.1934   0.3066   0.4199
Er91     Er     0.3066   0.4199   0.8066
Er92     Er     0.4199   0.3066   0.8066
Er93     Er     0.4199   0.1934   0.6934
Er94     Er     0.1934   0.4199   0.6934
Er95     Er     0.1934   0.3066   0.5801
Er96     Er     0.3066   0.1934   0.5801
loop_
_geom_bond_atom_site_label_1
_geom_bond_atom_site_label_2
_geom_bond_distance
_geom_bond_site_symmetry_2
_ccdc_geom_bond_type
V1     V2    9.999   1_655     S
V1     V4    9.999   .     S
V1     V7    10.0   .     S
V1     Er63    10.0   .     S
V2     V1    9.999   1_455     S
V2     V3    9.999   .     S
V2     V9    10.0   .     S
V2     Er73    10.0   .     S
V3     V4    9.999   1_455     S
V3     V12    10.0   .     S
V3     Er94    10.0   .     S
V4     V3    9.999   1_655     S
V4     V6    10.0   .     S
V4     Er60    10.0   .     S
V5     V8    9.999   .     S
V5     V6    9.999   1_554     S
V5     V15    10.0   .     S
V5     Er51    10.0   .     S
V6     V5    9.999   1_556     S
V6     V7    9.999   .     S
V6     Er59    10.0   .     S
V7     V8    9.999   1_556     S
V7     Er62    10.0   .     S
V8     V7    9.999   1_554     S
V8     V13    10.0   .     S
V8     Er67    10.0   .     S
V9     V10    9.999   1_556     S
V9     V12    9.999   .     S
V9     Er76    10.0   .     S
V10     V9    9.999   1_554     S
V10     V11    9.999   .     S
V10     V14    10.0   .     S
V10     Er83    10.0   .     S
V11     V12    9.999   1_554     S
V11     V16    10.0   .     S
V11     Er85    10.0   .     S
V12     V11    9.999   1_556     S
V12     Er91    10.0   .     S
V13     V14    9.999   1_655     S
V13     V15    9.999   .     S
V13     Er69    10.0   .     S
V14     V13    9.999   1_455     S
V14     V16    9.999   .     S
V14     Er84    10.0   .     S
V15     V16    9.999   1_655     S
V15     Er50    10.0   .     S
V16     V15    9.999   1_455     S
V16     Er89    10.0   .     S
V17     V18    9.999   1_565     S
V17     V19    9.999   .     S
V17     V23    10.0   .     S
V17     Er77    10.0   .     S
V18     V17    9.999   1_545     S
V18     V20    9.999   .     S
V18     V26    10.0   .     S
V18     Er93    10.0   .     S
V19     V20    9.999   1_565     S
V19     V21    10.0   .     S
V19     Er65    10.0   .     S
V20     V19    9.999   1_545     S
V20     V27    10.0   .     S
V20     Er56    10.0   .     S
V21     V22    9.999   1_556     S
V21     V23    9.999   .     S
V21     Er61    10.0   .     S
V22     V21    9.999   1_554     S
V22     V24    9.999   .     S
V22     V31    10.0   .     S
V22     Er68    10.0   .     S
V23     V24    9.999   1_556     S
V23     Er78    10.0   .     S
V24     V23    9.999   1_554     S
V24     V30    10.0   .     S
V24     Er82    10.0   .     S
V25     V28    9.999   .     S
V25     V26    9.999   1_554     S
V25     V29    10.0   .     S
V25     Er86    10.0   .     S
V26     V25    9.999   1_556     S
V26     V27    9.999   .     S
V26     Er92    10.0   .     S
V27     V28    9.999   1_556     S
V27     Er57    10.0   .     S
V28     V27    9.999   1_554     S
V28     V32    10.0   .     S
V28     Er54    10.0   .     S
V29     V32    9.999   .     S
V29     V30    9.999   1_545     S
V29     Er87    10.0   .     S
V30     V29    9.999   1_565     S
V30     V31    9.999   .     S
V30     Er79    10.0   .     S
V31     V32    9.999   1_565     S
V31     Er70    10.0   .     S
V32     V31    9.999   1_545     S
V32     Er53    10.0   .     S
V33     V34    9.999   1_655     S
V33     V35    9.999   .     S
V33     V38    10.0   .     S
V33     Er71    10.0   .     S
V34     V33    9.999   1_455     S
V34     V36    9.999   .     S
V34     V42    10.0   .     S
V34     Er81    10.0   .     S
V35     V36    9.999   1_655     S
V35     V39    10.0   .     S
V35     Er64    10.0   .     S
V36     V35    9.999   1_455     S
V36     V43    10.0   .     S
V36     Er74    10.0   .     S
V37     V40    9.999   .     S
V37     V38    9.999   1_545     S
V37     V46    10.0   .     S
V37     Er52    10.0   .     S
V38     V37    9.999   1_565     S
V38     V39    9.999   .     S
V38     Er72    10.0   .     S
V39     V40    9.999   1_565     S
V39     Er66    10.0   .     S
V40     V39    9.999   1_545     S
V40     V47    10.0   .     S
V40     Er55    10.0   .     S
V41     V44    9.999   .     S
V41     V42    9.999   1_545     S
V41     V45    10.0   .     S
V41     Er88    10.0   .     S
V42     V41    9.999   1_565     S
V42     V43    9.999   .     S
V42     Er80    10.0   .     S
V43     V44    9.999   1_565     S
V43     Er75    10.0   .     S
V44     V43    9.999   1_545     S
V44     V48    10.0   .     S
V44     Er96    10.0   .     S
V45     V48    9.999   .     S
V45     V46    9.999   1_455     S
V45     Er90    10.0   .     S
V46     V45    9.999   1_655     S
V46     V47    9.999   .     S
V46     Er49    10.0   .     S
V47     V48    9.999   1_655     S
V47     Er58    10.0   .     S
V48     V47    9.999   1_455     S
V48     Er95    10.0   .     S
Er49     Er50    10.0   .     S
Er49     Er52    10.0   .     S
Er49     Er58    10.001   .     S
Er50     Er51    10.0   .     S
Er50     Er69    10.001   .     S
Er51     Er54    10.0   .     S
Er51     Er67    10.001   .     S
Er52     Er53    10.0   .     S
Er52     Er55    10.001   .     S
Er53     Er54    10.0   .     S
Er53     Er87    10.001   .     S
Er54     Er86    10.001   .     S
Er55     Er58    10.0   .     S
Er55     Er56    10.0   .     S
Er56     Er57    10.0   .     S
Er56     Er93    10.001   .     S
Er57     Er59    10.0   .     S
Er57     Er92    10.001   .     S
Er58     Er60    10.0   .     S
Er59     Er60    10.0   .     S
Er59     Er62    10.001   .     S
Er60     Er63    10.001   .     S
Er61     Er62    10.0   .     S
Er61     Er65    10.0   .     S
Er61     Er78    10.001   .     S
Er62     Er63    10.0   .     S
Er63     Er64    10.0   .     S
Er64     Er66    10.0   .     S
Er64     Er71    10.001   .     S
Er65     Er66    10.0   .     S
Er65     Er77    10.001   .     S
Er66     Er72    10.001   .     S
Er67     Er69    10.0   .     S
Er67     Er68    10.0   .     S
Er68     Er70    10.0   .     S
Er68     Er82    10.001   .     S
Er69     Er71    10.0   .     S
Er70     Er72    10.0   .     S
Er70     Er79    10.001   .     S
Er71     Er72    10.0   .     S
Er73     Er76    10.0   .     S
Er73     Er74    10.0   .     S
Er73     Er94    10.001   .     S
Er74     Er75    10.0   .     S
Er74     Er81    10.001   .     S
Er75     Er77    10.0   .     S
Er75     Er80    10.001   .     S
Er76     Er78    10.0   .     S
Er76     Er91    10.001   .     S
Er77     Er78    10.0   .     S
Er79     Er80    10.0   .     S
Er79     Er82    10.0   .     S
Er80     Er81    10.0   .     S
Er81     Er84    10.0   .     S
Er82     Er83    10.0   .     S
Er83     Er84    10.0   .     S
Er83     Er85    10.001   .     S
Er84     Er89    10.001   .     S
Er85     Er86    10.0   .     S
Er85     Er89    10.0   .     S
Er86     Er87    10.0   .     S
Er87     Er88    10.0   .     S
Er88     Er90    10.0   .     S
Er88     Er96    10.001   .     S
Er89     Er90    10.0   .     S
Er90     Er95    10.001   .     S
Er91     Er92    10.0   .     S
Er91     Er94    10.0   .     S
Er92     Er93    10.0   .     S
Er93     Er96    10.0   .     S
Er94     Er95    10.0   .     S
Er95     Er96    10.0   .     S
