data_ful
_audit_creation_date              2020-02-02
_audit_creation_method            'Pymatgen'
_symmetry_space_group_name_H-M    'P1'
_symmetry_Int_Tables_number       1
loop_
_symmetry_equiv_pos_as_xyz
  x,y,z
_cell_length_a                    61.8479
_cell_length_b                    61.8479
_cell_length_c                    61.8479
_cell_angle_alpha                 90.0
_cell_angle_beta                 90.0
_cell_angle_gamma                 90.0
loop_
_atom_site_label
_atom_site_type_symbol
_atom_site_fract_x
_atom_site_fract_y
_atom_site_fract_z
V1     V     0.6357   0.3308   0.75
V2     V     0.6357   0.1692   0.75
V3     V     0.75   0.3308   0.8643
V4     V     0.75   0.1692   0.8643
V5     V     0.8643   0.3308   0.75
V6     V     0.8643   0.1692   0.75
V7     V     0.75   0.1692   0.6357
V8     V     0.75   0.3308   0.6357
Er9     Er     0.9323   0.4533   0.161
Er10     Er     0.839   0.5467   0.0677
Er11     Er     0.0467   0.5677   0.161
Er12     Er     0.9533   0.661   0.0677
Er13     Er     0.0677   0.661   0.9533
Er14     Er     0.161   0.5677   0.0467
Er15     Er     0.839   0.4323   0.9533
Er16     Er     0.9323   0.339   0.0467
Er17     Er     0.9533   0.4323   0.839
Er18     Er     0.0467   0.339   0.9323
Er19     Er     0.0677   0.5467   0.839
Er20     Er     0.161   0.4533   0.9323
V21     V     0.6357   0.75   0.1692
V22     V     0.6357   0.75   0.3308
V23     V     0.75   0.6357   0.3308
V24     V     0.75   0.6357   0.1692
V25     V     0.75   0.8643   0.3308
V26     V     0.75   0.8643   0.1692
V27     V     0.8643   0.75   0.3308
V28     V     0.8643   0.75   0.1692
Er29     Er     0.0677   0.839   0.5467
Er30     Er     0.161   0.9323   0.4533
Er31     Er     0.161   0.0467   0.5677
Er32     Er     0.0677   0.9533   0.661
Er33     Er     0.9533   0.0677   0.661
Er34     Er     0.0467   0.161   0.5677
Er35     Er     0.9533   0.839   0.4323
Er36     Er     0.0467   0.9323   0.339
Er37     Er     0.9323   0.161   0.4533
Er38     Er     0.839   0.0677   0.5467
Er39     Er     0.839   0.9533   0.4323
Er40     Er     0.9323   0.0467   0.339
V41     V     0.3308   0.75   0.6357
V42     V     0.1692   0.75   0.6357
V43     V     0.3308   0.8643   0.75
V44     V     0.1692   0.8643   0.75
V45     V     0.3308   0.75   0.8643
V46     V     0.1692   0.75   0.8643
V47     V     0.1692   0.6357   0.75
V48     V     0.3308   0.6357   0.75
Er49     Er     0.4323   0.9533   0.839
Er50     Er     0.339   0.0467   0.9323
Er51     Er     0.5467   0.0677   0.839
Er52     Er     0.4533   0.161   0.9323
Er53     Er     0.5677   0.161   0.0467
Er54     Er     0.661   0.0677   0.9533
Er55     Er     0.5677   0.0467   0.161
Er56     Er     0.661   0.9533   0.0677
Er57     Er     0.339   0.9323   0.0467
Er58     Er     0.4323   0.839   0.9533
Er59     Er     0.5467   0.839   0.0677
Er60     Er     0.4533   0.9323   0.161
V61     V     0.8308   0.25   0.3643
V62     V     0.6692   0.25   0.3643
V63     V     0.8308   0.1357   0.25
V64     V     0.6692   0.1357   0.25
V65     V     0.8308   0.25   0.1357
V66     V     0.6692   0.25   0.1357
V67     V     0.8308   0.3643   0.25
V68     V     0.6692   0.3643   0.25
Er69     Er     0.4323   0.661   0.5467
Er70     Er     0.339   0.5677   0.4533
Er71     Er     0.5467   0.661   0.4323
Er72     Er     0.4533   0.5677   0.339
Er73     Er     0.5677   0.4533   0.339
Er74     Er     0.661   0.5467   0.4323
Er75     Er     0.661   0.4323   0.5467
Er76     Er     0.5677   0.339   0.4533
Er77     Er     0.4323   0.5467   0.661
Er78     Er     0.339   0.4533   0.5677
Er79     Er     0.5467   0.4323   0.661
Er80     Er     0.4533   0.339   0.5677
V81     V     0.25   0.3643   0.8308
V82     V     0.25   0.3643   0.6692
V83     V     0.3643   0.25   0.8308
V84     V     0.3643   0.25   0.6692
V85     V     0.25   0.1357   0.8308
V86     V     0.25   0.1357   0.6692
V87     V     0.1357   0.25   0.8308
V88     V     0.1357   0.25   0.6692
V89     V     0.3643   0.8308   0.25
V90     V     0.3643   0.6692   0.25
V91     V     0.25   0.8308   0.1357
V92     V     0.25   0.6692   0.1357
V93     V     0.1357   0.8308   0.25
V94     V     0.1357   0.6692   0.25
V95     V     0.25   0.8308   0.3643
V96     V     0.25   0.6692   0.3643
loop_
_geom_bond_atom_site_label_1
_geom_bond_atom_site_label_2
_geom_bond_distance
_geom_bond_site_symmetry_2
_ccdc_geom_bond_type
V1     V2    10.0   .     S
V1     V3    10.0   .     S
V1     V8    10.0   .     S
V1     Er79    10.0   .     S
V2     V4    10.0   .     S
V2     V7    10.0   .     S
V2     Er51    10.0   .     S
V3     V4    10.0   .     S
V3     V5    10.0   .     S
V3     Er15    10.0   .     S
V4     V6    10.0   .     S
V4     Er54    10.0   .     S
V5     V6    10.0   .     S
V5     V8    10.0   .     S
V5     Er17    10.0   .     S
V6     V7    10.0   .     S
V6     Er33    10.0   .     S
V7     V8    10.0   .     S
V7     Er38    10.0   .     S
V8     Er75    10.0   .     S
Er9     Er10    9.999   .     S
Er9     Er16    10.0   .     S
Er9     Er11    10.0   1_655     S
Er9     V67    10.0   .     S
Er10     Er15    10.0   1_554     S
Er10     Er12    10.0   .     S
Er10     V24    10.0   .     S
Er11     Er12    9.999   1_455     S
Er11     Er14    10.0   .     S
Er11     Er9    10.0   1_455     S
Er11     V94    10.0   .     S
Er12     Er11    9.999   1_655     S
Er12     Er13    10.0   1_654     S
Er12     V28    10.0   .     S
Er13     Er14    9.999   1_556     S
Er13     Er12    10.0   1_456     S
Er13     Er19    10.0   .     S
Er13     V46    10.0   .     S
Er14     Er13    9.999   1_554     S
Er14     Er20    10.0   1_554     S
Er14     V92    10.0   .     S
Er15     Er10    10.0   1_556     S
Er15     Er16    9.999   1_556     S
Er15     Er17    10.0   .     S
Er16     Er15    9.999   1_554     S
Er16     Er18    10.0   1_654     S
Er16     V65    10.0   .     S
Er17     Er18    9.999   1_655     S
Er17     Er19    10.0   1_655     S
Er18     Er17    9.999   1_455     S
Er18     Er20    10.0   .     S
Er18     Er16    10.0   1_456     S
Er18     V87    10.0   .     S
Er19     Er20    9.999   .     S
Er19     Er17    10.0   1_455     S
Er19     V47    10.0   .     S
Er20     Er14    10.0   1_556     S
Er20     V81    10.0   .     S
V21     V22    10.0   .     S
V21     V26    10.0   .     S
V21     V24    10.0   .     S
V21     Er59    10.0   .     S
V22     V25    10.0   .     S
V22     V23    10.0   .     S
V22     Er71    10.0   .     S
V23     V24    10.0   .     S
V23     V27    10.0   .     S
V23     Er74    10.0   .     S
V24     V28    10.0   .     S
V25     V26    10.0   .     S
V25     V27    10.0   .     S
V25     Er39    10.0   .     S
V26     V28    10.0   .     S
V26     Er56    10.0   .     S
V27     V28    10.0   .     S
V27     Er35    10.0   .     S
Er29     Er30    9.999   .     S
Er29     Er35    10.0   1_455     S
Er29     Er32    10.0   .     S
Er29     V42    10.0   .     S
Er30     Er36    10.0   .     S
Er30     Er31    10.0   1_565     S
Er30     V95    10.0   .     S
Er31     Er32    9.999   1_545     S
Er31     Er34    10.0   .     S
Er31     Er30    10.0   1_545     S
Er31     V86    10.0   .     S
Er32     Er31    9.999   1_565     S
Er32     Er33    10.0   1_465     S
Er32     V44    10.0   .     S
Er33     Er34    9.999   1_655     S
Er33     Er32    10.0   1_645     S
Er33     Er38    10.0   .     S
Er34     Er33    9.999   1_455     S
Er34     Er37    10.0   1_455     S
Er34     V88    10.0   .     S
Er35     Er29    10.0   1_655     S
Er35     Er36    9.999   1_655     S
Er35     Er39    10.0   .     S
Er36     Er35    9.999   1_455     S
Er36     Er40    10.0   1_465     S
Er36     V93    10.0   .     S
Er37     Er38    9.999   .     S
Er37     Er40    10.0   .     S
Er37     Er34    10.0   1_655     S
Er37     V61    10.0   .     S
Er38     Er39    10.0   1_545     S
Er39     Er38    10.0   1_565     S
Er39     Er40    9.999   1_565     S
Er40     Er39    9.999   1_545     S
Er40     Er36    10.0   1_645     S
Er40     V63    10.0   .     S
V41     V42    10.0   .     S
V41     V43    10.0   .     S
V41     V48    10.0   .     S
V41     Er69    10.0   .     S
V42     V44    10.0   .     S
V42     V47    10.0   .     S
V43     V44    10.0   .     S
V43     V45    10.0   .     S
V43     Er49    10.0   .     S
V44     V46    10.0   .     S
V45     V46    10.0   .     S
V45     V48    10.0   .     S
V45     Er58    10.0   .     S
V46     V47    10.0   .     S
V47     V48    10.0   .     S
V48     Er77    10.0   .     S
Er49     Er50    9.999   1_565     S
Er49     Er51    10.0   1_565     S
Er49     Er58    10.0   .     S
Er50     Er49    9.999   1_545     S
Er50     Er52    10.0   .     S
Er50     Er57    10.0   1_546     S
Er50     V85    10.0   .     S
Er51     Er52    9.999   .     S
Er51     Er49    10.0   1_545     S
Er51     Er54    10.0   .     S
Er52     Er53    10.0   1_556     S
Er52     V83    10.0   .     S
Er53     Er54    9.999   1_554     S
Er53     Er55    10.0   .     S
Er53     Er52    10.0   1_554     S
Er53     V66    10.0   .     S
Er54     Er53    9.999   1_556     S
Er54     Er56    10.0   1_546     S
Er55     Er56    9.999   1_545     S
Er55     Er60    10.0   1_545     S
Er55     V64    10.0   .     S
Er56     Er55    9.999   1_565     S
Er56     Er54    10.0   1_564     S
Er56     Er59    10.0   .     S
Er57     Er58    9.999   1_554     S
Er57     Er60    10.0   .     S
Er57     Er50    10.0   1_564     S
Er57     V91    10.0   .     S
Er58     Er57    9.999   1_556     S
Er58     Er59    10.0   1_556     S
Er59     Er60    9.999   .     S
Er59     Er58    10.0   1_554     S
Er60     Er55    10.0   1_565     S
Er60     V89    10.0   .     S
V61     V62    10.0   .     S
V61     V67    10.0   .     S
V61     V63    10.0   .     S
V62     V68    10.0   .     S
V62     V64    10.0   .     S
V62     Er76    10.0   .     S
V63     V64    10.0   .     S
V63     V65    10.0   .     S
V64     V66    10.0   .     S
V65     V66    10.0   .     S
V65     V67    10.0   .     S
V66     V68    10.0   .     S
V67     V68    10.0   .     S
V68     Er73    10.0   .     S
Er69     Er70    9.999   .     S
Er69     Er77    10.0   .     S
Er69     Er71    10.0   .     S
Er70     Er72    10.0   .     S
Er70     Er78    10.0   .     S
Er70     V96    10.0   .     S
Er71     Er72    9.999   .     S
Er71     Er74    10.0   .     S
Er72     Er73    10.0   .     S
Er72     V90    10.0   .     S
Er73     Er74    9.999   .     S
Er73     Er76    10.0   .     S
Er74     Er75    10.0   .     S
Er75     Er76    9.999   .     S
Er75     Er79    10.0   .     S
Er76     Er80    10.0   .     S
Er77     Er78    9.999   .     S
Er77     Er79    10.0   .     S
Er78     Er80    10.0   .     S
Er78     V82    10.0   .     S
Er79     Er80    9.999   .     S
Er80     V84    10.0   .     S
V81     V82    10.0   .     S
V81     V83    10.0   .     S
V81     V87    10.0   .     S
V82     V84    10.0   .     S
V82     V88    10.0   .     S
V83     V84    10.0   .     S
V83     V85    10.0   .     S
V84     V86    10.0   .     S
V85     V86    10.0   .     S
V85     V87    10.0   .     S
V86     V88    10.0   .     S
V87     V88    10.0   .     S
V89     V90    10.0   .     S
V89     V95    10.0   .     S
V89     V91    10.0   .     S
V90     V96    10.0   .     S
V90     V92    10.0   .     S
V91     V92    10.0   .     S
V91     V93    10.0   .     S
V92     V94    10.0   .     S
V93     V94    10.0   .     S
V93     V95    10.0   .     S
V94     V96    10.0   .     S
V95     V96    10.0   .     S
