data_fun
_audit_creation_date              2020-02-02
_audit_creation_method            'Pymatgen'
_symmetry_space_group_name_H-M    'P1'
_symmetry_Int_Tables_number       1
loop_
_symmetry_equiv_pos_as_xyz
  x,y,z
_cell_length_a                    48.2623
_cell_length_b                    48.2623
_cell_length_c                    48.3281
_cell_angle_alpha                 90.0
_cell_angle_beta                 90.0
_cell_angle_gamma                 90.0
loop_
_atom_site_label
_atom_site_type_symbol
_atom_site_fract_x
_atom_site_fract_y
_atom_site_fract_z
Er1     Er     0.3964   0.1036   0.3535
Er2     Er     0.6036   0.1036   0.3535
Er3     Er     0.6036   0.8964   0.3535
Er4     Er     0.3964   0.8964   0.3535
Er5     Er     0.6036   0.8964   0.1465
Er6     Er     0.3964   0.8964   0.1465
Er7     Er     0.3964   0.1036   0.1465
Er8     Er     0.6036   0.1036   0.1465
Er9     Er     0.8964   0.3964   0.3535
Er10     Er     0.8964   0.6036   0.3535
Er11     Er     0.1036   0.3964   0.3535
Er12     Er     0.1036   0.6036   0.3535
Er13     Er     0.8964   0.3964   0.1465
Er14     Er     0.8964   0.6036   0.1465
Er15     Er     0.1036   0.6036   0.1465
Er16     Er     0.1036   0.3964   0.1465
Er17     Er     0.3964   0.8964   0.6465
Er18     Er     0.6036   0.8964   0.6465
Er19     Er     0.3964   0.1036   0.6465
Er20     Er     0.6036   0.1036   0.6465
Er21     Er     0.3964   0.8964   0.8535
Er22     Er     0.6036   0.8964   0.8535
Er23     Er     0.6036   0.1036   0.8535
Er24     Er     0.3964   0.1036   0.8535
V25     V     0.2501   0.1036   0.5
V26     V     0.1036   0.2501   0.5
V27     V     0.8964   0.2501   0.5
V28     V     0.7499   0.1036   0.5
V29     V     0.8964   0.7499   0.5
V30     V     0.7499   0.8964   0.5
V31     V     0.2501   0.8964   0.5
V32     V     0.1036   0.7499   0.5
V33     V     0.7501   0.6036   0.0
V34     V     0.6036   0.7501   0.0
V35     V     0.6036   0.2499   0.0
V36     V     0.7501   0.3964   0.0
V37     V     0.2499   0.6036   0.0
V38     V     0.3964   0.7501   0.0
V39     V     0.2499   0.3964   0.0
V40     V     0.3964   0.2499   0.0
Er41     Er     0.1036   0.3964   0.6465
Er42     Er     0.1036   0.6036   0.6465
Er43     Er     0.8964   0.6036   0.6465
Er44     Er     0.8964   0.3964   0.6465
Er45     Er     0.8964   0.6036   0.8535
Er46     Er     0.8964   0.3964   0.8535
Er47     Er     0.1036   0.3964   0.8535
Er48     Er     0.1036   0.6036   0.8535
loop_
_geom_bond_atom_site_label_1
_geom_bond_atom_site_label_2
_geom_bond_distance
_geom_bond_site_symmetry_2
_ccdc_geom_bond_type
Er1     V25    10.0   .     S
Er1     Er4    10.0   1_545     S
Er1     Er2    10.0   .     S
Er1     Er7    10.0   .     S
Er2     V28    10.0   .     S
Er2     Er3    10.0   1_545     S
Er2     Er8    10.0   .     S
Er3     Er2    10.0   1_565     S
Er3     V30    10.0   .     S
Er3     Er4    10.0   .     S
Er3     Er5    10.0   .     S
Er4     Er1    10.0   1_565     S
Er4     V31    10.0   .     S
Er4     Er6    10.0   .     S
Er5     V34    10.0   .     S
Er5     Er6    10.0   .     S
Er5     Er8    10.0   1_565     S
Er6     V38    10.0   .     S
Er6     Er7    10.0   1_565     S
Er7     V40    10.0   .     S
Er7     Er6    10.0   1_545     S
Er7     Er8    10.0   .     S
Er8     V35    10.0   .     S
Er8     Er5    10.0   1_545     S
Er9     V27    10.0   .     S
Er9     Er10    10.0   .     S
Er9     Er11    10.0   1_655     S
Er9     Er13    10.0   .     S
Er10     V29    10.0   .     S
Er10     Er12    10.0   1_655     S
Er10     Er14    10.0   .     S
Er11     V26    10.0   .     S
Er11     Er9    10.0   1_455     S
Er11     Er12    10.0   .     S
Er11     Er16    10.0   .     S
Er12     V32    10.0   .     S
Er12     Er10    10.0   1_455     S
Er12     Er15    10.0   .     S
Er13     V36    10.0   .     S
Er13     Er14    10.0   .     S
Er13     Er16    10.0   1_655     S
Er14     V33    10.0   .     S
Er14     Er15    10.0   1_655     S
Er15     V37    10.0   .     S
Er15     Er14    10.0   1_455     S
Er15     Er16    10.0   .     S
Er16     V39    10.0   .     S
Er16     Er13    10.0   1_455     S
Er17     V31    10.0   .     S
Er17     Er18    10.0   .     S
Er17     Er19    10.0   1_565     S
Er17     Er21    10.0   .     S
Er18     V30    10.0   .     S
Er18     Er20    10.0   1_565     S
Er18     Er22    10.0   .     S
Er19     V25    10.0   .     S
Er19     Er17    10.0   1_545     S
Er19     Er20    10.0   .     S
Er19     Er24    10.0   .     S
Er20     V28    10.0   .     S
Er20     Er18    10.0   1_545     S
Er20     Er23    10.0   .     S
Er21     V38    10.0   1_556     S
Er21     Er22    10.0   .     S
Er21     Er24    10.0   1_565     S
Er22     V34    10.0   1_556     S
Er22     Er23    10.0   1_565     S
Er23     V35    10.0   1_556     S
Er23     Er22    10.0   1_545     S
Er23     Er24    10.0   .     S
Er24     V40    10.0   1_556     S
Er24     Er21    10.0   1_545     S
V25     V26    10.0   .     S
V25     V31    10.0   1_545     S
V26     V27    10.0   1_455     S
V26     Er41    10.0   .     S
V27     V26    10.0   1_655     S
V27     V28    10.0   .     S
V27     Er44    10.0   .     S
V28     V30    10.0   1_545     S
V29     V30    10.0   .     S
V29     V32    10.0   1_655     S
V29     Er43    10.0   .     S
V30     V28    10.0   1_565     S
V31     V25    10.0   1_565     S
V31     V32    10.0   .     S
V32     V29    10.0   1_455     S
V32     Er42    10.0   .     S
V33     V34    10.0   .     S
V33     V36    10.0   .     S
V33     Er45    10.0   1_554     S
V34     Er22    10.0   1_554     S
V34     V38    10.0   .     S
V35     Er23    10.0   1_554     S
V35     V36    10.0   .     S
V35     V40    10.0   .     S
V36     Er46    10.0   1_554     S
V37     V38    10.0   .     S
V37     V39    10.0   .     S
V37     Er48    10.0   1_554     S
V38     Er21    10.0   1_554     S
V39     V40    10.0   .     S
V39     Er47    10.0   1_554     S
V40     Er24    10.0   1_554     S
Er41     Er44    10.0   1_455     S
Er41     Er42    10.0   .     S
Er41     Er47    10.0   .     S
Er42     Er43    10.0   1_455     S
Er42     Er48    10.0   .     S
Er43     Er42    10.0   1_655     S
Er43     Er44    10.0   .     S
Er43     Er45    10.0   .     S
Er44     Er41    10.0   1_655     S
Er44     Er46    10.0   .     S
Er45     V33    10.0   1_556     S
Er45     Er46    10.0   .     S
Er45     Er48    10.0   1_655     S
Er46     V36    10.0   1_556     S
Er46     Er47    10.0   1_655     S
Er47     V39    10.0   1_556     S
Er47     Er46    10.0   1_455     S
Er47     Er48    10.0   .     S
Er48     V37    10.0   1_556     S
Er48     Er45    10.0   1_455     S
