data_fut
_audit_creation_date              2020-02-02
_audit_creation_method            'Pymatgen'
_symmetry_space_group_name_H-M    'P1'
_symmetry_Int_Tables_number       1
loop_
_symmetry_equiv_pos_as_xyz
  x,y,z
_cell_length_a                    60.5317
_cell_length_b                    60.5317
_cell_length_c                    60.5317
_cell_angle_alpha                 90.0
_cell_angle_beta                 90.0
_cell_angle_gamma                 90.0
loop_
_atom_site_label
_atom_site_type_symbol
_atom_site_fract_x
_atom_site_fract_y
_atom_site_fract_z
Er1     Er     0.5826   0.1838   0.6994
Er2     Er     0.5826   0.3006   0.8162
Er3     Er     0.4174   0.1838   0.6994
Er4     Er     0.4174   0.3006   0.8162
V5     V     0.5   0.9174   0.8006
V6     V     0.5   0.0826   0.8006
V7     V     0.5   0.1994   0.9174
V8     V     0.5   0.1994   0.0826
V9     V     0.5   0.0826   0.1994
V10     V     0.5   0.9174   0.1994
Er11     Er     0.5826   0.1838   0.3006
Er12     Er     0.5826   0.3006   0.1838
Er13     Er     0.4174   0.1838   0.3006
Er14     Er     0.4174   0.3006   0.1838
Er15     Er     0.4174   0.8162   0.6994
Er16     Er     0.4174   0.6994   0.8162
Er17     Er     0.5826   0.6994   0.8162
Er18     Er     0.5826   0.8162   0.6994
Er19     Er     0.5826   0.6994   0.1838
Er20     Er     0.5826   0.8162   0.3006
Er21     Er     0.4174   0.6994   0.1838
Er22     Er     0.4174   0.8162   0.3006
V23     V     0.5   0.8006   0.9174
V24     V     0.5   0.8006   0.0826
Er25     Er     0.8162   0.4174   0.6994
Er26     Er     0.6994   0.4174   0.8162
Er27     Er     0.8162   0.5826   0.6994
Er28     Er     0.6994   0.5826   0.8162
Er29     Er     0.1838   0.4174   0.6994
Er30     Er     0.3006   0.4174   0.8162
Er31     Er     0.1838   0.5826   0.6994
Er32     Er     0.3006   0.5826   0.8162
V33     V     0.9174   0.5   0.8006
V34     V     0.0826   0.5   0.8006
V35     V     0.1994   0.5   0.9174
V36     V     0.1994   0.5   0.0826
Er37     Er     0.1838   0.5826   0.3006
Er38     Er     0.3006   0.5826   0.1838
Er39     Er     0.1838   0.4174   0.3006
Er40     Er     0.3006   0.4174   0.1838
V41     V     0.9174   0.5   0.1994
V42     V     0.0826   0.5   0.1994
Er43     Er     0.6994   0.5826   0.1838
Er44     Er     0.8162   0.5826   0.3006
Er45     Er     0.6994   0.4174   0.1838
Er46     Er     0.8162   0.4174   0.3006
V47     V     0.8006   0.5   0.9174
V48     V     0.8006   0.5   0.0826
Er49     Er     0.6994   0.1838   0.4174
Er50     Er     0.8162   0.3006   0.4174
Er51     Er     0.6994   0.1838   0.5826
Er52     Er     0.8162   0.3006   0.5826
V53     V     0.8006   0.9174   0.5
V54     V     0.8006   0.0826   0.5
Er55     Er     0.8162   0.6994   0.5826
Er56     Er     0.6994   0.8162   0.5826
Er57     Er     0.8162   0.6994   0.4174
Er58     Er     0.6994   0.8162   0.4174
V59     V     0.1994   0.9174   0.5
V60     V     0.1994   0.0826   0.5
V61     V     0.9174   0.1994   0.5
V62     V     0.0826   0.1994   0.5
Er63     Er     0.1838   0.3006   0.5826
Er64     Er     0.3006   0.1838   0.5826
Er65     Er     0.1838   0.3006   0.4174
Er66     Er     0.3006   0.1838   0.4174
Er67     Er     0.1838   0.6994   0.5826
Er68     Er     0.3006   0.8162   0.5826
Er69     Er     0.1838   0.6994   0.4174
Er70     Er     0.3006   0.8162   0.4174
V71     V     0.9174   0.8006   0.5
V72     V     0.0826   0.8006   0.5
loop_
_geom_bond_atom_site_label_1
_geom_bond_atom_site_label_2
_geom_bond_distance
_geom_bond_site_symmetry_2
_ccdc_geom_bond_type
Er1     Er2    9.999   .     S
Er1     Er3    10.0   .     S
Er1     V6    10.0   .     S
Er1     Er51    10.0   .     S
Er2     Er4    10.0   .     S
Er2     V7    10.0   .     S
Er2     Er26    10.0   .     S
Er3     Er4    9.999   .     S
Er3     V6    10.0   .     S
Er3     Er64    10.0   .     S
Er4     V7    10.0   .     S
Er4     Er30    10.0   .     S
V5     Er15    10.0   .     S
V5     Er18    10.0   .     S
V5     V6    10.0   1_565     S
V5     V23    10.0   .     S
V6     V5    10.0   1_545     S
V6     V7    10.0   .     S
V7     V8    10.0   1_556     S
V8     Er12    10.0   .     S
V8     Er14    10.0   .     S
V8     V7    10.0   1_554     S
V8     V9    10.0   .     S
V9     Er13    10.0   .     S
V9     Er11    10.0   .     S
V9     V10    10.0   1_545     S
V10     Er20    10.0   .     S
V10     Er22    10.0   .     S
V10     V9    10.0   1_565     S
V10     V24    10.0   .     S
Er11     Er12    9.999   .     S
Er11     Er13    10.0   .     S
Er11     Er49    10.0   .     S
Er12     Er14    10.0   .     S
Er12     Er45    10.0   .     S
Er13     Er14    9.999   .     S
Er13     Er66    10.0   .     S
Er14     Er40    10.0   .     S
Er15     Er16    9.999   .     S
Er15     Er18    10.0   .     S
Er15     Er68    10.0   .     S
Er16     Er17    10.0   .     S
Er16     V23    10.0   .     S
Er16     Er32    10.0   .     S
Er17     Er18    9.999   .     S
Er17     V23    10.0   .     S
Er17     Er28    10.0   .     S
Er18     Er56    10.0   .     S
Er19     Er20    9.999   .     S
Er19     Er21    10.0   .     S
Er19     V24    10.0   .     S
Er19     Er43    10.0   .     S
Er20     Er22    10.0   .     S
Er20     Er58    10.0   .     S
Er21     Er22    9.999   .     S
Er21     V24    10.0   .     S
Er21     Er38    10.0   .     S
Er22     Er70    10.0   .     S
V23     V24    10.0   1_556     S
V24     V23    10.0   1_554     S
Er25     Er26    9.999   .     S
Er25     Er27    10.0   .     S
Er25     V33    10.0   .     S
Er25     Er52    10.0   .     S
Er26     Er28    10.0   .     S
Er26     V47    10.0   .     S
Er27     Er28    9.999   .     S
Er27     V33    10.0   .     S
Er27     Er55    10.0   .     S
Er28     V47    10.0   .     S
Er29     Er30    9.999   .     S
Er29     Er31    10.0   .     S
Er29     V34    10.0   .     S
Er29     Er63    10.0   .     S
Er30     Er32    10.0   .     S
Er30     V35    10.0   .     S
Er31     Er32    9.999   .     S
Er31     V34    10.0   .     S
Er31     Er67    10.0   .     S
Er32     V35    10.0   .     S
V33     V34    10.0   1_655     S
V33     V47    10.0   .     S
V34     V33    10.0   1_455     S
V34     V35    10.0   .     S
V35     V36    10.0   1_556     S
V36     Er40    10.0   .     S
V36     Er38    10.0   .     S
V36     V35    10.0   1_554     S
V36     V42    10.0   .     S
Er37     Er38    9.999   .     S
Er37     Er39    10.0   .     S
Er37     V42    10.0   .     S
Er37     Er69    10.0   .     S
Er38     Er40    10.0   .     S
Er39     Er40    9.999   .     S
Er39     V42    10.0   .     S
Er39     Er65    10.0   .     S
V41     Er46    10.0   .     S
V41     Er44    10.0   .     S
V41     V42    10.0   1_655     S
V41     V48    10.0   .     S
V42     V41    10.0   1_455     S
Er43     Er44    9.999   .     S
Er43     Er45    10.0   .     S
Er43     V48    10.0   .     S
Er44     Er46    10.0   .     S
Er44     Er57    10.0   .     S
Er45     Er46    9.999   .     S
Er45     V48    10.0   .     S
Er46     Er50    10.0   .     S
V47     V48    10.0   1_556     S
V48     V47    10.0   1_554     S
Er49     Er50    9.999   .     S
Er49     Er51    10.0   .     S
Er49     V54    10.0   .     S
Er50     Er52    10.0   .     S
Er50     V61    10.0   .     S
Er51     Er52    9.999   .     S
Er51     V54    10.0   .     S
Er52     V61    10.0   .     S
V53     Er56    10.0   .     S
V53     Er58    10.0   .     S
V53     V54    10.0   1_565     S
V53     V71    10.0   .     S
V54     V53    10.0   1_545     S
V54     V61    10.0   .     S
Er55     Er56    9.999   .     S
Er55     Er57    10.0   .     S
Er55     V71    10.0   .     S
Er56     Er58    10.0   .     S
Er57     Er58    9.999   .     S
Er57     V71    10.0   .     S
V59     Er70    10.0   .     S
V59     Er68    10.0   .     S
V59     V60    10.0   1_565     S
V59     V72    10.0   .     S
V60     Er64    10.0   .     S
V60     Er66    10.0   .     S
V60     V59    10.0   1_545     S
V60     V62    10.0   .     S
V61     V62    10.0   1_655     S
V62     Er65    10.0   .     S
V62     Er63    10.0   .     S
V62     V61    10.0   1_455     S
Er63     Er64    9.999   .     S
Er63     Er65    10.0   .     S
Er64     Er66    10.0   .     S
Er65     Er66    9.999   .     S
Er67     Er68    9.999   .     S
Er67     Er69    10.0   .     S
Er67     V72    10.0   .     S
Er68     Er70    10.0   .     S
Er69     Er70    9.999   .     S
Er69     V72    10.0   .     S
V71     V72    10.0   1_655     S
V72     V71    10.0   1_455     S
