data_fuy
_audit_creation_date              2020-02-02
_audit_creation_method            'Pymatgen'
_symmetry_space_group_name_H-M    'P1'
_symmetry_Int_Tables_number       1
loop_
_symmetry_equiv_pos_as_xyz
  x,y,z
_cell_length_a                    52.5002
_cell_length_b                    52.5002
_cell_length_c                    52.5002
_cell_angle_alpha                 90.0
_cell_angle_beta                 90.0
_cell_angle_gamma                 90.0
loop_
_atom_site_label
_atom_site_type_symbol
_atom_site_fract_x
_atom_site_fract_y
_atom_site_fract_z
Er1     Er     0.945   0.8103   0.4203
Er2     Er     0.8103   0.945   0.4203
Er3     Er     0.6897   0.945   0.0797
Er4     Er     0.555   0.8103   0.0797
V5     V     0.75   0.8847   0.25
V6     V     0.8847   0.75   0.25
V7     V     0.6153   0.75   0.25
Er8     Er     0.555   0.6897   0.4203
Er9     Er     0.6897   0.555   0.4203
Er10     Er     0.945   0.6897   0.0797
Er11     Er     0.8103   0.555   0.0797
V12     V     0.75   0.6153   0.25
Er13     Er     0.5797   0.055   0.1897
Er14     Er     0.5797   0.1897   0.055
V15     V     0.75   0.1153   0.25
Er16     Er     0.9203   0.1897   0.445
Er17     Er     0.9203   0.055   0.3103
V18     V     0.75   0.25   0.3847
Er19     Er     0.5797   0.445   0.3103
Er20     Er     0.5797   0.3103   0.445
V21     V     0.75   0.25   0.1153
Er22     Er     0.9203   0.445   0.1897
Er23     Er     0.9203   0.3103   0.055
V24     V     0.75   0.3847   0.25
Er25     Er     0.945   0.4203   0.8103
Er26     Er     0.8103   0.4203   0.945
Er27     Er     0.945   0.0797   0.6897
Er28     Er     0.8103   0.0797   0.555
V29     V     0.8847   0.25   0.75
V30     V     0.75   0.25   0.8847
V31     V     0.75   0.25   0.6153
Er32     Er     0.555   0.4203   0.6897
Er33     Er     0.6897   0.4203   0.555
Er34     Er     0.6897   0.0797   0.945
Er35     Er     0.555   0.0797   0.8103
V36     V     0.6153   0.25   0.75
Er37     Er     0.055   0.1897   0.5797
Er38     Er     0.1897   0.055   0.5797
V39     V     0.25   0.1153   0.75
Er40     Er     0.445   0.1897   0.9203
Er41     Er     0.3103   0.055   0.9203
V42     V     0.3847   0.25   0.75
Er43     Er     0.3103   0.445   0.5797
Er44     Er     0.445   0.3103   0.5797
V45     V     0.1153   0.25   0.75
Er46     Er     0.055   0.3103   0.9203
Er47     Er     0.1897   0.445   0.9203
V48     V     0.25   0.3847   0.75
Er49     Er     0.1897   0.5797   0.055
Er50     Er     0.055   0.5797   0.1897
V51     V     0.1153   0.75   0.25
Er52     Er     0.1897   0.9203   0.445
Er53     Er     0.055   0.9203   0.3103
V54     V     0.25   0.75   0.3847
Er55     Er     0.445   0.5797   0.3103
Er56     Er     0.3103   0.5797   0.445
V57     V     0.25   0.75   0.1153
Er58     Er     0.3103   0.9203   0.055
Er59     Er     0.445   0.9203   0.1897
V60     V     0.3847   0.75   0.25
Er61     Er     0.4203   0.945   0.8103
Er62     Er     0.4203   0.8103   0.945
Er63     Er     0.0797   0.6897   0.945
Er64     Er     0.0797   0.555   0.8103
V65     V     0.25   0.75   0.8847
V66     V     0.25   0.8847   0.75
V67     V     0.25   0.6153   0.75
Er68     Er     0.4203   0.555   0.6897
Er69     Er     0.4203   0.6897   0.555
Er70     Er     0.0797   0.945   0.6897
Er71     Er     0.0797   0.8103   0.555
V72     V     0.25   0.75   0.6153
loop_
_geom_bond_atom_site_label_1
_geom_bond_atom_site_label_2
_geom_bond_distance
_geom_bond_site_symmetry_2
_ccdc_geom_bond_type
Er1     Er2    10.0   .     S
Er1     V6    10.0   .     S
Er1     Er53    10.0   1_655     S
Er1     Er71    10.0   1_655     S
Er2     V5    10.0   .     S
Er2     Er17    10.0   1_565     S
Er2     Er28    10.0   1_565     S
Er3     Er4    10.0   .     S
Er3     V5    10.0   .     S
Er3     Er13    10.0   1_565     S
Er3     Er34    10.0   1_564     S
Er4     V7    10.0   .     S
Er4     Er59    10.0   .     S
Er4     Er62    10.0   1_554     S
V5     V7    10.0   .     S
V5     V6    10.0   .     S
V6     Er10    10.0   .     S
V6     V12    10.0   .     S
V7     Er8    10.0   .     S
V7     V12    10.0   .     S
Er8     Er9    10.0   .     S
Er8     Er55    10.0   .     S
Er8     Er69    10.0   .     S
Er9     V12    10.0   .     S
Er9     Er19    10.0   .     S
Er9     Er33    10.0   .     S
Er10     Er11    10.0   .     S
Er10     Er50    10.0   1_655     S
Er10     Er63    10.0   1_654     S
Er11     V12    10.0   .     S
Er11     Er22    10.0   .     S
Er11     Er26    10.0   1_554     S
Er13     Er14    10.0   .     S
Er13     V15    10.0   .     S
Er13     Er3    10.0   1_545     S
Er13     Er59    10.0   1_545     S
Er14     V21    10.0   .     S
Er14     Er34    10.0   1_554     S
Er14     Er40    10.0   1_554     S
V15     Er17    10.0   .     S
V15     V18    10.0   .     S
V15     V21    10.0   .     S
Er16     Er17    10.0   .     S
Er16     V18    10.0   .     S
Er16     Er28    10.0   .     S
Er16     Er37    10.0   1_655     S
Er17     Er2    10.0   1_545     S
Er17     Er53    10.0   1_645     S
V18     Er20    10.0   .     S
V18     V24    10.0   .     S
Er19     Er20    10.0   .     S
Er19     V24    10.0   .     S
Er19     Er55    10.0   .     S
Er20     Er33    10.0   .     S
Er20     Er44    10.0   .     S
V21     Er23    10.0   .     S
V21     V24    10.0   .     S
Er22     Er23    10.0   .     S
Er22     V24    10.0   .     S
Er22     Er50    10.0   1_655     S
Er23     Er26    10.0   1_554     S
Er23     Er46    10.0   1_654     S
Er25     Er26    10.0   .     S
Er25     V29    10.0   .     S
Er25     Er46    10.0   1_655     S
Er25     Er64    10.0   1_655     S
Er26     Er23    10.0   1_556     S
Er26     V30    10.0   .     S
Er26     Er11    10.0   1_556     S
Er27     Er28    10.0   .     S
Er27     V29    10.0   .     S
Er27     Er37    10.0   1_655     S
Er27     Er70    10.0   1_645     S
Er28     V31    10.0   .     S
Er28     Er2    10.0   1_545     S
V29     V31    10.0   .     S
V29     V30    10.0   .     S
V30     Er34    10.0   .     S
V30     V36    10.0   .     S
V31     Er33    10.0   .     S
V31     V36    10.0   .     S
Er32     Er33    10.0   .     S
Er32     V36    10.0   .     S
Er32     Er44    10.0   .     S
Er32     Er68    10.0   .     S
Er34     Er14    10.0   1_556     S
Er34     Er35    10.0   .     S
Er34     Er3    10.0   1_546     S
Er35     V36    10.0   .     S
Er35     Er40    10.0   .     S
Er35     Er61    10.0   1_545     S
Er37     Er38    10.0   .     S
Er37     V45    10.0   .     S
Er37     Er27    10.0   1_455     S
Er37     Er16    10.0   1_455     S
Er38     V39    10.0   .     S
Er38     Er70    10.0   1_545     S
Er38     Er52    10.0   1_545     S
V39     Er41    10.0   .     S
V39     V42    10.0   .     S
V39     V45    10.0   .     S
Er40     Er41    10.0   .     S
Er40     V42    10.0   .     S
Er40     Er14    10.0   1_556     S
Er41     Er61    10.0   1_545     S
Er41     Er58    10.0   1_546     S
V42     Er44    10.0   .     S
V42     V48    10.0   .     S
Er43     Er44    10.0   .     S
Er43     V48    10.0   .     S
Er43     Er68    10.0   .     S
Er43     Er56    10.0   .     S
V45     Er46    10.0   .     S
V45     V48    10.0   .     S
Er46     Er47    10.0   .     S
Er46     Er25    10.0   1_455     S
Er46     Er23    10.0   1_456     S
Er47     V48    10.0   .     S
Er47     Er64    10.0   .     S
Er47     Er49    10.0   1_556     S
Er49     Er50    10.0   .     S
Er49     V57    10.0   .     S
Er49     Er63    10.0   1_554     S
Er49     Er47    10.0   1_554     S
Er50     V51    10.0   .     S
Er50     Er10    10.0   1_455     S
Er50     Er22    10.0   1_455     S
V51     Er53    10.0   .     S
V51     V54    10.0   .     S
V51     V57    10.0   .     S
Er52     Er53    10.0   .     S
Er52     V54    10.0   .     S
Er52     Er71    10.0   .     S
Er52     Er38    10.0   1_565     S
Er53     Er1    10.0   1_455     S
Er53     Er17    10.0   1_465     S
V54     Er56    10.0   .     S
V54     V60    10.0   .     S
Er55     Er56    10.0   .     S
Er55     V60    10.0   .     S
Er56     Er69    10.0   .     S
V57     Er58    10.0   .     S
V57     V60    10.0   .     S
Er58     Er59    10.0   .     S
Er58     Er62    10.0   1_554     S
Er58     Er41    10.0   1_564     S
Er59     V60    10.0   .     S
Er59     Er13    10.0   1_565     S
Er61     Er41    10.0   1_565     S
Er61     Er62    10.0   .     S
Er61     V66    10.0   .     S
Er61     Er35    10.0   1_565     S
Er62     Er58    10.0   1_556     S
Er62     V65    10.0   .     S
Er62     Er4    10.0   1_556     S
Er63     Er64    10.0   .     S
Er63     V65    10.0   .     S
Er63     Er49    10.0   1_556     S
Er63     Er10    10.0   1_456     S
Er64     V67    10.0   .     S
Er64     Er25    10.0   1_455     S
V65     V67    10.0   .     S
V65     V66    10.0   .     S
V66     Er70    10.0   .     S
V66     V72    10.0   .     S
V67     Er68    10.0   .     S
V67     V72    10.0   .     S
Er68     Er69    10.0   .     S
Er69     V72    10.0   .     S
Er70     Er38    10.0   1_565     S
Er70     Er71    10.0   .     S
Er70     Er27    10.0   1_465     S
Er71     V72    10.0   .     S
Er71     Er1    10.0   1_455     S
