data_fvd
_audit_creation_date              2020-02-02
_audit_creation_method            'Pymatgen'
_symmetry_space_group_name_H-M    'P1'
_symmetry_Int_Tables_number       1
loop_
_symmetry_equiv_pos_as_xyz
  x,y,z
_cell_length_a                    46.4082
_cell_length_b                    46.4082
_cell_length_c                    60.5161
_cell_angle_alpha                 90.0
_cell_angle_beta                 90.0
_cell_angle_gamma                 90.0
loop_
_atom_site_label
_atom_site_type_symbol
_atom_site_fract_x
_atom_site_fract_y
_atom_site_fract_z
Er1     Er     0.9424   0.8589   0.0826
Er2     Er     0.9424   0.8589   0.9174
Er3     Er     0.1411   0.9424   0.0826
Er4     Er     0.1411   0.9424   0.9174
Er5     Er     0.0576   0.1411   0.0826
Er6     Er     0.0576   0.1411   0.9174
Er7     Er     0.8589   0.0576   0.0826
Er8     Er     0.8589   0.0576   0.9174
Er9     Er     0.3589   0.4424   0.9174
Er10     Er     0.3589   0.4424   0.0826
Er11     Er     0.4424   0.6411   0.9174
Er12     Er     0.4424   0.6411   0.0826
Er13     Er     0.6411   0.5576   0.9174
Er14     Er     0.6411   0.5576   0.0826
Er15     Er     0.5576   0.3589   0.9174
Er16     Er     0.5576   0.3589   0.0826
Er17     Er     0.8589   0.9424   0.5826
Er18     Er     0.8589   0.9424   0.4174
Er19     Er     0.0576   0.8589   0.4174
Er20     Er     0.0576   0.8589   0.5826
Er21     Er     0.1411   0.0576   0.4174
Er22     Er     0.1411   0.0576   0.5826
Er23     Er     0.9424   0.1411   0.4174
Er24     Er     0.9424   0.1411   0.5826
V25     V     0.2542   0.3982   0.223
V26     V     0.1018   0.2458   0.223
V27     V     0.7458   0.3982   0.277
V28     V     0.8982   0.2458   0.277
V29     V     0.2542   0.6018   0.277
V30     V     0.1018   0.7542   0.277
V31     V     0.7458   0.6018   0.223
V32     V     0.8982   0.7542   0.223
V33     V     0.3982   0.7458   0.223
V34     V     0.2458   0.8982   0.223
V35     V     0.3982   0.2542   0.277
V36     V     0.2458   0.1018   0.277
V37     V     0.6018   0.2542   0.223
V38     V     0.7542   0.1018   0.223
V39     V     0.6018   0.7458   0.277
V40     V     0.7542   0.8982   0.277
V41     V     0.2542   0.6018   0.723
V42     V     0.1018   0.7542   0.723
V43     V     0.7458   0.6018   0.777
V44     V     0.8982   0.7542   0.777
V45     V     0.2542   0.3982   0.777
V46     V     0.1018   0.2458   0.777
V47     V     0.7458   0.3982   0.723
V48     V     0.8982   0.2458   0.723
V49     V     0.3982   0.2542   0.723
V50     V     0.2458   0.1018   0.723
V51     V     0.3982   0.7458   0.777
V52     V     0.2458   0.8982   0.777
V53     V     0.6018   0.2542   0.777
V54     V     0.7542   0.1018   0.777
V55     V     0.6018   0.7458   0.723
V56     V     0.7542   0.8982   0.723
Er57     Er     0.4424   0.3589   0.5826
Er58     Er     0.4424   0.3589   0.4174
Er59     Er     0.3589   0.5576   0.5826
Er60     Er     0.3589   0.5576   0.4174
Er61     Er     0.5576   0.6411   0.4174
Er62     Er     0.5576   0.6411   0.5826
Er63     Er     0.6411   0.4424   0.5826
Er64     Er     0.6411   0.4424   0.4174
loop_
_geom_bond_atom_site_label_1
_geom_bond_atom_site_label_2
_geom_bond_distance
_geom_bond_site_symmetry_2
_ccdc_geom_bond_type
Er1     Er2    10.0   1_554     S
Er1     Er3    10.0   1_655     S
Er1     Er7    10.0   1_565     S
Er1     V32    10.0   .     S
Er2     Er1    10.0   1_556     S
Er2     Er4    10.0   1_655     S
Er2     Er8    10.0   1_565     S
Er2     V44    10.0   .     S
Er3     Er4    10.0   1_554     S
Er3     Er1    10.0   1_455     S
Er3     Er5    10.0   1_565     S
Er3     V34    10.0   .     S
Er4     Er3    10.0   1_556     S
Er4     Er2    10.0   1_455     S
Er4     Er6    10.0   1_565     S
Er4     V52    10.0   .     S
Er5     Er6    10.0   1_554     S
Er5     Er3    10.0   1_545     S
Er5     Er7    10.0   1_455     S
Er5     V26    10.0   .     S
Er6     Er5    10.0   1_556     S
Er6     Er4    10.0   1_545     S
Er6     Er8    10.0   1_455     S
Er6     V46    10.0   .     S
Er7     Er8    10.0   1_554     S
Er7     Er5    10.0   1_655     S
Er7     Er1    10.0   1_545     S
Er7     V38    10.0   .     S
Er8     Er7    10.0   1_556     S
Er8     Er6    10.0   1_655     S
Er8     Er2    10.0   1_545     S
Er8     V54    10.0   .     S
Er9     Er10    10.0   1_556     S
Er9     Er11    10.0   .     S
Er9     Er15    10.0   .     S
Er9     V45    10.0   .     S
Er10     Er9    10.0   1_554     S
Er10     Er12    10.0   .     S
Er10     Er16    10.0   .     S
Er10     V25    10.0   .     S
Er11     Er12    10.0   1_556     S
Er11     Er13    10.0   .     S
Er11     V51    10.0   .     S
Er12     Er11    10.0   1_554     S
Er12     Er14    10.0   .     S
Er12     V33    10.0   .     S
Er13     Er14    10.0   1_556     S
Er13     Er15    10.0   .     S
Er13     V43    10.0   .     S
Er14     Er13    10.0   1_554     S
Er14     Er16    10.0   .     S
Er14     V31    10.0   .     S
Er15     Er16    10.0   1_556     S
Er15     V53    10.0   .     S
Er16     Er15    10.0   1_554     S
Er16     V37    10.0   .     S
Er17     Er18    10.0   .     S
Er17     Er24    10.0   1_565     S
Er17     Er20    10.0   1_655     S
Er17     V56    10.0   .     S
Er18     Er23    10.0   1_565     S
Er18     Er19    10.0   1_655     S
Er18     V40    10.0   .     S
Er19     Er20    10.0   .     S
Er19     Er21    10.0   1_565     S
Er19     Er18    10.0   1_455     S
Er19     V30    10.0   .     S
Er20     Er22    10.0   1_565     S
Er20     Er17    10.0   1_455     S
Er20     V42    10.0   .     S
Er21     Er22    10.0   .     S
Er21     Er23    10.0   1_455     S
Er21     Er19    10.0   1_545     S
Er21     V36    10.0   .     S
Er22     Er24    10.0   1_455     S
Er22     Er20    10.0   1_545     S
Er22     V50    10.0   .     S
Er23     Er21    10.0   1_655     S
Er23     Er24    10.0   .     S
Er23     Er18    10.0   1_545     S
Er23     V28    10.0   .     S
Er24     Er22    10.0   1_655     S
Er24     Er17    10.0   1_545     S
Er24     V48    10.0   .     S
V25     V26    10.0   .     S
V25     V29    10.0   .     S
V25     V35    10.0   .     S
V26     V28    10.0   1_455     S
V26     V36    10.0   .     S
V27     V28    10.0   .     S
V27     V31    10.0   .     S
V27     Er64    10.0   .     S
V27     V37    10.0   .     S
V28     V26    10.0   1_655     S
V28     V38    10.0   .     S
V29     V30    10.0   .     S
V29     Er60    10.0   .     S
V29     V33    10.0   .     S
V30     V32    10.0   1_455     S
V30     V34    10.0   .     S
V31     V32    10.0   .     S
V31     V39    10.0   .     S
V32     V30    10.0   1_655     S
V32     V40    10.0   .     S
V33     V34    10.0   .     S
V33     V39    10.0   .     S
V34     V36    10.0   1_565     S
V35     V36    10.0   .     S
V35     V37    10.0   .     S
V35     Er58    10.0   .     S
V36     V34    10.0   1_545     S
V37     V38    10.0   .     S
V38     V40    10.0   1_545     S
V39     V40    10.0   .     S
V39     Er61    10.0   .     S
V40     V38    10.0   1_565     S
V41     V42    10.0   .     S
V41     V45    10.0   .     S
V41     Er59    10.0   .     S
V41     V51    10.0   .     S
V42     V44    10.0   1_455     S
V42     V52    10.0   .     S
V43     V44    10.0   .     S
V43     V47    10.0   .     S
V43     V55    10.0   .     S
V44     V42    10.0   1_655     S
V44     V56    10.0   .     S
V45     V46    10.0   .     S
V45     V49    10.0   .     S
V46     V48    10.0   1_455     S
V46     V50    10.0   .     S
V47     V48    10.0   .     S
V47     Er63    10.0   .     S
V47     V53    10.0   .     S
V48     V46    10.0   1_655     S
V48     V54    10.0   .     S
V49     V50    10.0   .     S
V49     V53    10.0   .     S
V49     Er57    10.0   .     S
V50     V52    10.0   1_545     S
V51     V52    10.0   .     S
V51     V55    10.0   .     S
V52     V50    10.0   1_565     S
V53     V54    10.0   .     S
V54     V56    10.0   1_545     S
V55     V56    10.0   .     S
V55     Er62    10.0   .     S
V56     V54    10.0   1_565     S
Er57     Er58    10.0   .     S
Er57     Er59    10.0   .     S
Er57     Er63    10.0   .     S
Er58     Er60    10.0   .     S
Er58     Er64    10.0   .     S
Er59     Er60    10.0   .     S
Er59     Er62    10.0   .     S
Er60     Er61    10.0   .     S
Er61     Er62    10.0   .     S
Er61     Er64    10.0   .     S
Er62     Er63    10.0   .     S
Er63     Er64    10.0   .     S
