data_fvj
_audit_creation_date              2020-02-02
_audit_creation_method            'Pymatgen'
_symmetry_space_group_name_H-M    'P1'
_symmetry_Int_Tables_number       1
loop_
_symmetry_equiv_pos_as_xyz
  x,y,z
_cell_length_a                    42.6114
_cell_length_b                    42.6114
_cell_length_c                    42.6114
_cell_angle_alpha                 90.0
_cell_angle_beta                 90.0
_cell_angle_gamma                 90.0
loop_
_atom_site_label
_atom_site_type_symbol
_atom_site_fract_x
_atom_site_fract_y
_atom_site_fract_z
Er1     Er     0.7338   0.2963   0.8827
V2     V     0.6173   0.5   0.8827
Er3     Er     0.7338   0.7037   0.8827
Er4     Er     0.2662   0.2963   0.8827
Er5     Er     0.2662   0.7037   0.8827
V6     V     0.3827   0.5   0.8827
Er7     Er     0.7338   0.2963   0.1173
V8     V     0.6173   0.5   0.1173
Er9     Er     0.7338   0.7037   0.1173
Er10     Er     0.2662   0.7037   0.1173
Er11     Er     0.2662   0.2963   0.1173
V12     V     0.3827   0.5   0.1173
Er13     Er     0.8827   0.2662   0.2963
Er14     Er     0.8827   0.2662   0.7037
V15     V     0.8827   0.3827   0.5
Er16     Er     0.8827   0.7338   0.2963
V17     V     0.8827   0.6173   0.5
Er18     Er     0.8827   0.7338   0.7037
Er19     Er     0.1173   0.7338   0.2963
V20     V     0.1173   0.6173   0.5
Er21     Er     0.1173   0.7338   0.7037
Er22     Er     0.1173   0.2662   0.7037
Er23     Er     0.1173   0.2662   0.2963
V24     V     0.1173   0.3827   0.5
Er25     Er     0.2963   0.8827   0.7338
V26     V     0.5   0.8827   0.6173
Er27     Er     0.7037   0.8827   0.7338
Er28     Er     0.2963   0.8827   0.2662
Er29     Er     0.7037   0.8827   0.2662
V30     V     0.5   0.8827   0.3827
Er31     Er     0.2963   0.1173   0.7338
V32     V     0.5   0.1173   0.6173
Er33     Er     0.7037   0.1173   0.7338
Er34     Er     0.7037   0.1173   0.2662
Er35     Er     0.2963   0.1173   0.2662
V36     V     0.5   0.1173   0.3827
loop_
_geom_bond_atom_site_label_1
_geom_bond_atom_site_label_2
_geom_bond_distance
_geom_bond_site_symmetry_2
_ccdc_geom_bond_type
Er1     V2    10.0   .     S
Er1     Er7    10.0   1_556     S
Er1     Er14    10.0   .     S
Er1     Er33    10.0   .     S
V2     Er3    10.0   .     S
V2     V6    10.0   .     S
V2     V8    10.0   1_556     S
Er3     Er9    10.0   1_556     S
Er3     Er18    10.0   .     S
Er3     Er27    10.0   .     S
Er4     V6    10.0   .     S
Er4     Er11    10.0   1_556     S
Er4     Er22    10.0   .     S
Er4     Er31    10.0   .     S
Er5     V6    10.0   .     S
Er5     Er10    10.0   1_556     S
Er5     Er21    10.0   .     S
Er5     Er25    10.0   .     S
V6     V12    10.0   1_556     S
Er7     V8    10.0   .     S
Er7     Er1    10.0   1_554     S
Er7     Er13    10.0   .     S
Er7     Er34    10.0   .     S
V8     Er9    10.0   .     S
V8     V12    10.0   .     S
V8     V2    10.0   1_554     S
Er9     Er3    10.0   1_554     S
Er9     Er29    10.0   .     S
Er9     Er16    10.0   .     S
Er10     V12    10.0   .     S
Er10     Er5    10.0   1_554     S
Er10     Er28    10.0   .     S
Er10     Er19    10.0   .     S
Er11     Er23    10.0   .     S
Er11     Er35    10.0   .     S
Er11     V12    10.0   .     S
Er11     Er4    10.0   1_554     S
V12     V6    10.0   1_554     S
Er13     V15    10.0   .     S
Er13     Er23    10.0   1_655     S
Er13     Er34    10.0   .     S
Er14     V15    10.0   .     S
Er14     Er22    10.0   1_655     S
Er14     Er33    10.0   .     S
V15     V17    10.0   .     S
V15     V24    10.0   1_655     S
Er16     V17    10.0   .     S
Er16     Er19    10.0   1_655     S
Er16     Er29    10.0   .     S
V17     Er18    10.0   .     S
V17     V20    10.0   1_655     S
Er18     Er21    10.0   1_655     S
Er18     Er27    10.0   .     S
Er19     V20    10.0   .     S
Er19     Er16    10.0   1_455     S
Er19     Er28    10.0   .     S
V20     Er21    10.0   .     S
V20     V24    10.0   .     S
V20     V17    10.0   1_455     S
Er21     Er18    10.0   1_455     S
Er21     Er25    10.0   .     S
Er22     V24    10.0   .     S
Er22     Er14    10.0   1_455     S
Er22     Er31    10.0   .     S
Er23     Er35    10.0   .     S
Er23     V24    10.0   .     S
Er23     Er13    10.0   1_455     S
V24     V15    10.0   1_455     S
Er25     V26    10.0   .     S
Er25     Er31    10.0   1_565     S
V26     Er27    10.0   .     S
V26     V30    10.0   .     S
V26     V32    10.0   1_565     S
Er27     Er33    10.0   1_565     S
Er28     V30    10.0   .     S
Er28     Er35    10.0   1_565     S
Er29     V30    10.0   .     S
Er29     Er34    10.0   1_565     S
V30     V36    10.0   1_565     S
Er31     V32    10.0   .     S
Er31     Er25    10.0   1_545     S
V32     Er33    10.0   .     S
V32     V36    10.0   .     S
V32     V26    10.0   1_545     S
Er33     Er27    10.0   1_545     S
Er34     V36    10.0   .     S
Er34     Er29    10.0   1_545     S
Er35     V36    10.0   .     S
Er35     Er28    10.0   1_545     S
V36     V30    10.0   1_545     S
