data_fvk
_audit_creation_date              2020-02-02
_audit_creation_method            'Pymatgen'
_symmetry_space_group_name_H-M    'P1'
_symmetry_Int_Tables_number       1
loop_
_symmetry_equiv_pos_as_xyz
  x,y,z
_cell_length_a                    41.5206
_cell_length_b                    41.5206
_cell_length_c                    25.1868
_cell_angle_alpha                 90.0
_cell_angle_beta                 90.0
_cell_angle_gamma                 90.0
loop_
_atom_site_label
_atom_site_type_symbol
_atom_site_fract_x
_atom_site_fract_y
_atom_site_fract_z
V1     V     0.8796   0.3796   0.75
V2     V     0.1204   0.3796   0.75
V3     V     0.8796   0.6204   0.75
V4     V     0.1204   0.6204   0.75
V5     V     0.3796   0.8796   0.25
V6     V     0.3796   0.1204   0.25
V7     V     0.6204   0.1204   0.25
V8     V     0.6204   0.8796   0.25
Er9     Er     0.8796   0.733   0.399
Er10     Er     0.1204   0.733   0.399
Er11     Er     0.233   0.6204   0.101
Er12     Er     0.233   0.3796   0.101
Er13     Er     0.767   0.6204   0.101
Er14     Er     0.767   0.3796   0.101
Er15     Er     0.8796   0.267   0.399
Er16     Er     0.1204   0.267   0.399
Er17     Er     0.733   0.8796   0.601
Er18     Er     0.733   0.1204   0.601
Er19     Er     0.6204   0.233   0.899
Er20     Er     0.3796   0.233   0.899
Er21     Er     0.6204   0.767   0.899
Er22     Er     0.3796   0.767   0.899
Er23     Er     0.267   0.8796   0.601
Er24     Er     0.267   0.1204   0.601
loop_
_geom_bond_atom_site_label_1
_geom_bond_atom_site_label_2
_geom_bond_distance
_geom_bond_site_symmetry_2
_ccdc_geom_bond_type
V1     V2    10.0   1_655     S
V1     V3    10.0   .     S
V1     Er14    10.0   1_556     S
V1     Er15    10.0   .     S
V2     V1    10.0   1_455     S
V2     V4    10.0   .     S
V2     Er16    10.0   .     S
V2     Er12    10.0   1_556     S
V3     V4    10.0   1_655     S
V3     Er13    10.0   1_556     S
V3     Er9    10.0   .     S
V4     V3    10.0   1_455     S
V4     Er10    10.0   .     S
V4     Er11    10.0   1_556     S
V5     V6    10.0   1_565     S
V5     V8    10.0   .     S
V5     Er22    10.0   1_554     S
V5     Er23    10.0   .     S
V6     V5    10.0   1_545     S
V6     V7    10.0   .     S
V6     Er20    10.0   1_554     S
V6     Er24    10.0   .     S
V7     V8    10.0   1_545     S
V7     Er19    10.0   1_554     S
V7     Er18    10.0   .     S
V8     V7    10.0   1_565     S
V8     Er21    10.0   1_554     S
V8     Er17    10.0   .     S
Er9     Er10    10.0   1_655     S
Er9     Er13    10.0   .     S
Er9     Er17    10.0   .     S
Er10     Er9    10.0   1_455     S
Er10     Er11    10.0   .     S
Er10     Er23    10.0   .     S
Er11     Er12    10.0   .     S
Er11     V4    10.0   1_554     S
Er11     Er22    10.0   1_554     S
Er12     Er16    10.0   .     S
Er12     V2    10.0   1_554     S
Er12     Er20    10.0   1_554     S
Er13     Er14    10.0   .     S
Er13     V3    10.0   1_554     S
Er13     Er21    10.0   1_554     S
Er14     Er15    10.0   .     S
Er14     V1    10.0   1_554     S
Er14     Er19    10.0   1_554     S
Er15     Er16    10.0   1_655     S
Er15     Er18    10.0   .     S
Er16     Er15    10.0   1_455     S
Er16     Er24    10.0   .     S
Er17     Er18    10.0   1_565     S
Er17     Er21    10.0   .     S
Er18     Er17    10.0   1_545     S
Er18     Er19    10.0   .     S
Er19     Er20    10.0   .     S
Er19     V7    10.0   1_556     S
Er19     Er14    10.0   1_556     S
Er20     Er24    10.0   .     S
Er20     V6    10.0   1_556     S
Er20     Er12    10.0   1_556     S
Er21     Er22    10.0   .     S
Er21     V8    10.0   1_556     S
Er21     Er13    10.0   1_556     S
Er22     Er23    10.0   .     S
Er22     V5    10.0   1_556     S
Er22     Er11    10.0   1_556     S
Er23     Er24    10.0   1_565     S
Er24     Er23    10.0   1_545     S
