data_fvm
_audit_creation_date              2020-02-02
_audit_creation_method            'Pymatgen'
_symmetry_space_group_name_H-M    'P1'
_symmetry_Int_Tables_number       1
loop_
_symmetry_equiv_pos_as_xyz
  x,y,z
_cell_length_a                    44.8473
_cell_length_b                    44.8473
_cell_length_c                    45.5641
_cell_angle_alpha                 90.0
_cell_angle_beta                 90.0
_cell_angle_gamma                 120.0
loop_
_atom_site_label
_atom_site_type_symbol
_atom_site_fract_x
_atom_site_fract_y
_atom_site_fract_z
V1     V     0.537   0.3314   0.25
V2     V     0.3314   0.537   0.25
V3     V     0.7944   0.463   0.25
V4     V     0.6686   0.2056   0.25
V5     V     0.2056   0.6686   0.25
V6     V     0.463   0.7944   0.25
V7     V     0.6686   0.463   0.75
V8     V     0.537   0.2056   0.75
V9     V     0.2056   0.537   0.75
V10     V     0.463   0.6686   0.75
V11     V     0.7944   0.3314   0.75
Er12     Er     0.6667   0.1287   0.4564
Er13     Er     0.8713   0.3333   0.5436
Er14     Er     0.8713   0.5379   0.4564
Er15     Er     0.6667   0.5379   0.5436
Er16     Er     0.4621   0.1287   0.5436
Er17     Er     0.4621   0.3333   0.4564
Er18     Er     0.5379   0.8713   0.4564
Er19     Er     0.1287   0.6667   0.4564
Er20     Er     0.3333   0.8713   0.5436
Er21     Er     0.3333   0.4621   0.4564
Er22     Er     0.5379   0.6667   0.5436
Er23     Er     0.1287   0.4621   0.5436
V24     V     0.3314   0.7944   0.75
Er25     Er     0.6667   0.1287   0.0436
Er26     Er     0.8713   0.3333   0.9564
Er27     Er     0.8713   0.5379   0.0436
Er28     Er     0.6667   0.5379   0.9564
Er29     Er     0.4621   0.1287   0.9564
Er30     Er     0.4621   0.3333   0.0436
Er31     Er     0.1287   0.6667   0.0436
Er32     Er     0.3333   0.8713   0.9564
Er33     Er     0.5379   0.8713   0.0436
Er34     Er     0.5379   0.6667   0.9564
Er35     Er     0.3333   0.4621   0.0436
Er36     Er     0.1287   0.4621   0.9564
loop_
_geom_bond_atom_site_label_1
_geom_bond_atom_site_label_2
_geom_bond_distance
_geom_bond_site_symmetry_2
_ccdc_geom_bond_type
V1     V3    10.0   .     S
V1     V4    10.0   .     S
V1     Er17    10.0   .     S
V1     Er30    10.0   .     S
V2     V6    10.0   .     S
V2     V5    10.0   .     S
V2     Er35    10.0   .     S
V2     Er21    10.0   .     S
V3     V4    10.0   .     S
V3     Er14    10.0   .     S
V3     Er27    10.0   .     S
V4     Er12    10.0   .     S
V4     Er25    10.0   .     S
V5     V6    10.0   .     S
V5     Er31    10.0   .     S
V5     Er19    10.0   .     S
V6     Er33    10.0   .     S
V6     Er18    10.0   .     S
V7     V11    10.0   .     S
V7     V8    10.0   .     S
V7     Er28    10.0   .     S
V7     Er15    10.0   .     S
V8     V11    10.0   .     S
V8     Er29    10.0   .     S
V8     Er16    10.0   .     S
V9     V10    10.0   .     S
V9     V24    10.0   .     S
V9     Er36    10.0   .     S
V9     Er23    10.0   .     S
V10     V24    10.0   .     S
V10     Er34    10.0   .     S
V10     Er22    10.0   .     S
V11     Er26    10.0   .     S
V11     Er13    10.0   .     S
Er12     Er13    10.0   .     S
Er12     Er16    10.0   .     S
Er12     Er18    10.0   1_545     S
Er13     Er14    10.0   .     S
Er13     Er23    10.0   1_655     S
Er14     Er15    10.0   .     S
Er14     Er19    10.0   1_655     S
Er15     Er17    10.0   .     S
Er15     Er22    10.0   .     S
Er16     Er17    10.0   .     S
Er16     Er20    10.0   1_545     S
Er17     Er21    10.0   .     S
Er18     Er22    10.0   .     S
Er18     Er20    10.0   .     S
Er18     Er12    10.0   1_565     S
Er19     Er14    10.0   1_455     S
Er19     Er20    10.0   .     S
Er19     Er23    10.0   .     S
Er20     Er16    10.0   1_565     S
Er20     V24    10.0   .     S
Er21     Er23    10.0   .     S
Er21     Er22    10.0   .     S
Er23     Er13    10.0   1_455     S
V24     Er32    10.0   .     S
Er25     Er26    10.0   1_554     S
Er25     Er29    10.0   1_554     S
Er25     Er33    10.0   1_545     S
Er26     Er25    10.0   1_556     S
Er26     Er27    10.0   1_556     S
Er26     Er36    10.0   1_655     S
Er27     Er26    10.0   1_554     S
Er27     Er28    10.0   1_554     S
Er27     Er31    10.0   1_655     S
Er28     Er27    10.0   1_556     S
Er28     Er30    10.0   1_556     S
Er28     Er34    10.0   .     S
Er29     Er25    10.0   1_556     S
Er29     Er30    10.0   1_556     S
Er29     Er32    10.0   1_545     S
Er30     Er28    10.0   1_554     S
Er30     Er29    10.0   1_554     S
Er30     Er35    10.0   .     S
Er31     Er27    10.0   1_455     S
Er31     Er32    10.0   1_554     S
Er31     Er36    10.0   1_554     S
Er32     Er31    10.0   1_556     S
Er32     Er33    10.0   1_556     S
Er32     Er29    10.0   1_565     S
Er33     Er32    10.0   1_554     S
Er33     Er34    10.0   1_554     S
Er33     Er25    10.0   1_565     S
Er34     Er33    10.0   1_556     S
Er34     Er35    10.0   1_556     S
Er35     Er34    10.0   1_554     S
Er35     Er36    10.0   1_554     S
Er36     Er31    10.0   1_556     S
Er36     Er35    10.0   1_556     S
Er36     Er26    10.0   1_455     S
