data_fvo
_audit_creation_date              2020-02-02
_audit_creation_method            'Pymatgen'
_symmetry_space_group_name_H-M    'P1'
_symmetry_Int_Tables_number       1
loop_
_symmetry_equiv_pos_as_xyz
  x,y,z
_cell_length_a                    39.9904
_cell_length_b                    39.9904
_cell_length_c                    49.0134
_cell_angle_alpha                 90.0
_cell_angle_beta                 90.0
_cell_angle_gamma                 120.0
loop_
_atom_site_label
_atom_site_type_symbol
_atom_site_fract_x
_atom_site_fract_y
_atom_site_fract_z
V1     V     0.0   0.7499   0.25
V2     V     0.2501   0.0   0.25
V3     V     0.2501   0.2501   0.25
V4     V     0.0   0.2501   0.25
V5     V     0.7499   0.0   0.25
V6     V     0.7499   0.7499   0.25
Er7     Er     0.3333   0.4166   0.4167
Er8     Er     0.5834   0.6667   0.4167
Er9     Er     0.6667   0.5834   0.5833
Er10     Er     0.4166   0.3333   0.5833
Er11     Er     0.0833   0.4166   0.4167
Er12     Er     0.9167   0.3333   0.5833
Er13     Er     0.9167   0.5834   0.5833
Er14     Er     0.0833   0.6667   0.4167
Er15     Er     0.4166   0.0833   0.5833
Er16     Er     0.3333   0.9167   0.4167
Er17     Er     0.5834   0.9167   0.4167
Er18     Er     0.6667   0.0833   0.5833
V19     V     0.7499   0.0   0.75
V20     V     0.7499   0.7499   0.75
V21     V     0.0   0.2501   0.75
V22     V     0.2501   0.2501   0.75
V23     V     0.0   0.7499   0.75
V24     V     0.2501   0.0   0.75
Er25     Er     0.6667   0.5834   0.9167
Er26     Er     0.4166   0.3333   0.9167
Er27     Er     0.3333   0.4166   0.0833
Er28     Er     0.5834   0.6667   0.0833
Er29     Er     0.6667   0.0833   0.9167
Er30     Er     0.3333   0.9167   0.0833
Er31     Er     0.5834   0.9167   0.0833
Er32     Er     0.4166   0.0833   0.9167
Er33     Er     0.0833   0.6667   0.0833
Er34     Er     0.9167   0.3333   0.9167
Er35     Er     0.9167   0.5834   0.9167
Er36     Er     0.0833   0.4166   0.0833
loop_
_geom_bond_atom_site_label_1
_geom_bond_atom_site_label_2
_geom_bond_distance
_geom_bond_site_symmetry_2
_ccdc_geom_bond_type
V1     Er14    10.0   .     S
V1     Er33    10.0   .     S
V1     V6    10.0   1_455     S
V1     V2    10.0   1_565     S
V2     Er30    10.0   1_545     S
V2     Er16    10.0   1_545     S
V2     V1    10.0   1_545     S
V2     V3    10.0   .     S
V3     Er7    10.0   .     S
V3     Er27    10.0   .     S
V3     V4    10.0   .     S
V4     Er36    10.0   .     S
V4     Er11    10.0   .     S
V4     V5    10.0   1_455     S
V5     Er17    10.0   1_545     S
V5     Er31    10.0   1_545     S
V5     V6    10.0   1_545     S
V5     V4    10.0   1_655     S
V6     V1    10.0   1_655     S
V6     Er28    10.0   .     S
V6     Er8    10.0   .     S
V6     V5    10.0   1_565     S
Er7     Er8    10.0   .     S
Er7     Er10    10.0   .     S
Er7     Er11    10.0   .     S
Er8     Er9    10.0   .     S
Er8     Er17    10.0   .     S
Er9     Er10    10.0   .     S
Er9     Er13    10.0   .     S
Er9     V20    10.0   .     S
Er10     Er15    10.0   .     S
Er10     V22    10.0   .     S
Er11     Er14    10.0   .     S
Er11     Er12    10.0   1_455     S
Er12     Er13    10.0   .     S
Er12     Er11    10.0   1_655     S
Er12     Er18    10.0   .     S
Er12     V21    10.0   1_655     S
Er13     Er14    10.0   1_655     S
Er13     V23    10.0   1_655     S
Er14     Er16    10.0   .     S
Er14     Er13    10.0   1_455     S
Er15     Er18    10.0   .     S
Er15     Er16    10.0   1_545     S
Er15     V24    10.0   .     S
Er16     V2    10.0   1_565     S
Er16     Er17    10.0   .     S
Er16     Er15    10.0   1_565     S
Er17     V5    10.0   1_565     S
Er17     Er18    10.0   1_565     S
Er18     Er17    10.0   1_545     S
Er18     V19    10.0   .     S
V19     Er29    10.0   .     S
V19     V20    10.0   1_545     S
V19     V21    10.0   1_655     S
V20     Er25    10.0   .     S
V20     V19    10.0   1_565     S
V20     V23    10.0   1_655     S
V21     V19    10.0   1_455     S
V21     Er34    10.0   1_455     S
V21     Er12    10.0   1_455     S
V21     V22    10.0   .     S
V22     Er26    10.0   .     S
V22     V24    10.0   .     S
V23     Er35    10.0   1_455     S
V23     Er13    10.0   1_455     S
V23     V20    10.0   1_455     S
V23     V24    10.0   1_565     S
V24     Er32    10.0   .     S
V24     V23    10.0   1_545     S
Er25     Er26    10.0   .     S
Er25     Er28    10.0   1_556     S
Er25     Er35    10.0   .     S
Er26     Er27    10.0   1_556     S
Er26     Er32    10.0   .     S
Er27     Er26    10.0   1_554     S
Er27     Er28    10.0   .     S
Er27     Er36    10.0   .     S
Er28     Er25    10.0   1_554     S
Er28     Er31    10.0   .     S
Er29     Er34    10.0   .     S
Er29     Er32    10.0   .     S
Er29     Er31    10.0   1_546     S
Er30     V2    10.0   1_565     S
Er30     Er31    10.0   .     S
Er30     Er32    10.0   1_564     S
Er30     Er33    10.0   .     S
Er31     V5    10.0   1_565     S
Er31     Er29    10.0   1_564     S
Er32     Er30    10.0   1_546     S
Er33     Er36    10.0   .     S
Er33     Er35    10.0   1_454     S
Er34     V21    10.0   1_655     S
Er34     Er35    10.0   .     S
Er34     Er36    10.0   1_656     S
Er35     V23    10.0   1_655     S
Er35     Er33    10.0   1_656     S
Er36     Er34    10.0   1_454     S
