data_fvr
_audit_creation_date              2020-02-02
_audit_creation_method            'Pymatgen'
_symmetry_space_group_name_H-M    'P1'
_symmetry_Int_Tables_number       1
loop_
_symmetry_equiv_pos_as_xyz
  x,y,z
_cell_length_a                    39.9124
_cell_length_b                    39.9124
_cell_length_c                    73.8043
_cell_angle_alpha                 90.0
_cell_angle_beta                 90.0
_cell_angle_gamma                 120.0
loop_
_atom_site_label
_atom_site_type_symbol
_atom_site_fract_x
_atom_site_fract_y
_atom_site_fract_z
Er1     Er     0.7494   0.0   0.7778
Er2     Er     0.5839   0.9172   0.8889
Er3     Er     0.0   0.2506   0.7778
Er4     Er     0.0828   0.4161   0.8889
Er5     Er     0.0   0.7494   0.7778
Er6     Er     0.0828   0.6667   0.8889
Er7     Er     0.2506   0.0   0.7778
Er8     Er     0.3333   0.9172   0.8889
Er9     Er     0.2506   0.2506   0.7778
Er10     Er     0.3333   0.4161   0.8889
Er11     Er     0.7494   0.7494   0.7778
Er12     Er     0.5839   0.6667   0.8889
V13     V     0.0   0.7494   0.0
V14     V     0.0   0.2506   0.0
V15     V     0.2506   0.2506   0.0
V16     V     0.7494   0.0   0.0
V17     V     0.2506   0.0   0.0
V18     V     0.7494   0.7494   0.0
Er19     Er     0.4161   0.0828   0.1111
Er20     Er     0.2506   0.0   0.2222
Er21     Er     0.0   0.7494   0.2222
Er22     Er     0.9172   0.5839   0.1111
Er23     Er     0.6667   0.0828   0.1111
Er24     Er     0.7494   0.0   0.2222
Er25     Er     0.9172   0.3333   0.1111
Er26     Er     0.0   0.2506   0.2222
Er27     Er     0.4161   0.3333   0.1111
Er28     Er     0.2506   0.2506   0.2222
Er29     Er     0.7494   0.7494   0.2222
Er30     Er     0.6667   0.5839   0.1111
V31     V     0.4161   0.0828   0.3333
V32     V     0.0828   0.4161   0.6667
V33     V     0.6667   0.5839   0.3333
V34     V     0.4161   0.3333   0.3333
V35     V     0.9172   0.5839   0.3333
V36     V     0.5839   0.6667   0.6667
V37     V     0.5839   0.9172   0.6667
V38     V     0.3333   0.4161   0.6667
V39     V     0.0828   0.6667   0.6667
V40     V     0.3333   0.9172   0.6667
V41     V     0.6667   0.0828   0.3333
V42     V     0.9172   0.3333   0.3333
Er43     Er     0.4161   0.3333   0.5556
Er44     Er     0.3333   0.4161   0.4444
Er45     Er     0.9172   0.5839   0.5556
Er46     Er     0.0828   0.6667   0.4444
Er47     Er     0.3333   0.9172   0.4444
Er48     Er     0.4161   0.0828   0.5556
Er49     Er     0.9172   0.3333   0.5556
Er50     Er     0.0828   0.4161   0.4444
Er51     Er     0.5839   0.6667   0.4444
Er52     Er     0.6667   0.5839   0.5556
Er53     Er     0.5839   0.9172   0.4444
Er54     Er     0.6667   0.0828   0.5556
loop_
_geom_bond_atom_site_label_1
_geom_bond_atom_site_label_2
_geom_bond_distance
_geom_bond_site_symmetry_2
_ccdc_geom_bond_type
Er1     Er2    10.0   1_545     S
Er1     Er3    10.0   1_655     S
Er1     V37    10.0   1_545     S
Er1     Er11    10.0   1_545     S
Er2     Er1    10.0   1_565     S
Er2     V16    10.0   1_566     S
Er2     Er8    10.0   .     S
Er2     Er12    10.0   .     S
Er3     Er1    10.0   1_455     S
Er3     Er4    10.0   .     S
Er3     V32    10.0   .     S
Er3     Er9    10.0   .     S
Er4     Er6    10.0   .     S
Er4     V14    10.0   1_556     S
Er4     Er10    10.0   .     S
Er5     Er11    10.0   1_455     S
Er5     Er6    10.0   .     S
Er5     V39    10.0   .     S
Er5     Er7    10.0   1_565     S
Er6     V13    10.0   1_556     S
Er6     Er8    10.0   .     S
Er7     Er8    10.0   1_545     S
Er7     Er9    10.0   .     S
Er7     V40    10.0   1_545     S
Er7     Er5    10.0   1_545     S
Er8     Er7    10.0   1_565     S
Er8     V17    10.0   1_566     S
Er9     Er10    10.0   .     S
Er9     V38    10.0   .     S
Er10     Er12    10.0   .     S
Er10     V15    10.0   1_556     S
Er11     Er5    10.0   1_655     S
Er11     Er12    10.0   .     S
Er11     V36    10.0   .     S
Er11     Er1    10.0   1_565     S
Er12     V18    10.0   1_556     S
V13     Er6    10.0   1_554     S
V13     V18    10.0   1_455     S
V13     V17    10.0   1_565     S
V13     Er22    10.0   1_455     S
V14     Er4    10.0   1_554     S
V14     V16    10.0   1_455     S
V14     V15    10.0   .     S
V14     Er25    10.0   1_455     S
V15     Er10    10.0   1_554     S
V15     V17    10.0   .     S
V15     Er27    10.0   .     S
V16     Er2    10.0   1_544     S
V16     V18    10.0   1_545     S
V16     V14    10.0   1_655     S
V16     Er23    10.0   .     S
V17     Er8    10.0   1_544     S
V17     V13    10.0   1_545     S
V17     Er19    10.0   .     S
V18     Er12    10.0   1_554     S
V18     V16    10.0   1_565     S
V18     V13    10.0   1_655     S
V18     Er30    10.0   .     S
Er19     Er20    10.0   .     S
Er19     Er23    10.0   .     S
Er19     Er27    10.0   .     S
Er20     Er21    10.0   1_545     S
Er20     V31    10.0   .     S
Er20     Er28    10.0   .     S
Er21     Er20    10.0   1_565     S
Er21     Er22    10.0   1_455     S
Er21     V35    10.0   1_455     S
Er21     Er29    10.0   1_455     S
Er22     Er21    10.0   1_655     S
Er22     V13    10.0   1_655     S
Er22     Er25    10.0   .     S
Er22     Er30    10.0   .     S
Er23     Er24    10.0   .     S
Er23     Er25    10.0   .     S
Er24     Er29    10.0   1_545     S
Er24     V41    10.0   .     S
Er24     Er26    10.0   1_655     S
Er25     Er26    10.0   1_655     S
Er25     V14    10.0   1_655     S
Er26     Er28    10.0   .     S
Er26     Er25    10.0   1_455     S
Er26     V42    10.0   1_455     S
Er26     Er24    10.0   1_455     S
Er27     Er28    10.0   .     S
Er27     Er30    10.0   .     S
Er28     V34    10.0   .     S
Er29     Er24    10.0   1_565     S
Er29     Er30    10.0   .     S
Er29     V33    10.0   .     S
Er29     Er21    10.0   1_655     S
V31     V34    10.0   .     S
V31     V41    10.0   .     S
V31     Er47    10.0   1_545     S
V32     V39    10.0   .     S
V32     V38    10.0   .     S
V32     Er49    10.0   1_455     S
V33     V34    10.0   .     S
V33     V35    10.0   .     S
V33     Er51    10.0   .     S
V34     Er44    10.0   .     S
V35     Er21    10.0   1_655     S
V35     V42    10.0   .     S
V35     Er46    10.0   1_655     S
V36     V38    10.0   .     S
V36     V37    10.0   .     S
V36     Er52    10.0   .     S
V37     Er1    10.0   1_565     S
V37     V40    10.0   .     S
V37     Er54    10.0   1_565     S
V38     Er43    10.0   .     S
V39     V40    10.0   .     S
V39     Er45    10.0   1_455     S
V40     Er7    10.0   1_565     S
V40     Er48    10.0   1_565     S
V41     V42    10.0   .     S
V41     Er53    10.0   1_545     S
V42     Er26    10.0   1_655     S
V42     Er50    10.0   1_655     S
Er43     Er44    10.0   .     S
Er43     Er48    10.0   .     S
Er43     Er52    10.0   .     S
Er44     Er50    10.0   .     S
Er44     Er51    10.0   .     S
Er45     Er46    10.0   1_655     S
Er45     Er52    10.0   .     S
Er45     V39    10.0   1_655     S
Er45     Er49    10.0   .     S
Er46     Er47    10.0   .     S
Er46     Er45    10.0   1_455     S
Er46     V35    10.0   1_455     S
Er46     Er50    10.0   .     S
Er47     Er48    10.0   1_565     S
Er47     V31    10.0   1_565     S
Er47     Er53    10.0   .     S
Er48     Er47    10.0   1_545     S
Er48     V40    10.0   1_545     S
Er48     Er54    10.0   .     S
Er49     Er50    10.0   1_655     S
Er49     Er54    10.0   .     S
Er49     V32    10.0   1_655     S
Er50     Er49    10.0   1_455     S
Er50     V42    10.0   1_455     S
Er51     Er53    10.0   .     S
Er51     Er52    10.0   .     S
Er53     Er54    10.0   1_565     S
Er53     V41    10.0   1_565     S
Er54     Er53    10.0   1_545     S
Er54     V37    10.0   1_545     S
