data_fvt
_audit_creation_date              2020-02-02
_audit_creation_method            'Pymatgen'
_symmetry_space_group_name_H-M    'P1'
_symmetry_Int_Tables_number       1
loop_
_symmetry_equiv_pos_as_xyz
  x,y,z
_cell_length_a                    44.6244
_cell_length_b                    44.6244
_cell_length_c                    44.537
_cell_angle_alpha                 90.0
_cell_angle_beta                 90.0
_cell_angle_gamma                 90.0
loop_
_atom_site_label
_atom_site_type_symbol
_atom_site_fract_x
_atom_site_fract_y
_atom_site_fract_z
V1     V     0.1469   0.9405   0.5
V2     V     0.9405   0.8531   0.5
V3     V     0.8531   0.0595   0.5
V4     V     0.0595   0.1469   0.5
V5     V     0.9405   0.1469   0.0
V6     V     0.8531   0.9405   0.0
V7     V     0.0595   0.8531   0.0
V8     V     0.1469   0.0595   0.0
V9     V     0.5595   0.6469   0.0
V10     V     0.3531   0.5595   0.0
V11     V     0.6469   0.4405   0.0
V12     V     0.4405   0.3531   0.0
Er13     Er     0.6   0.2585   0.6994
Er14     Er     0.7585   0.1   0.6994
Er15     Er     0.9   0.2415   0.8006
Er16     Er     0.7415   0.4   0.8006
Er17     Er     0.6   0.7415   0.8006
Er18     Er     0.7585   0.9   0.8006
Er19     Er     0.9   0.7585   0.6994
Er20     Er     0.7415   0.6   0.6994
Er21     Er     0.4   0.2585   0.8006
Er22     Er     0.2415   0.1   0.8006
Er23     Er     0.2585   0.4   0.6994
Er24     Er     0.1   0.2415   0.6994
Er25     Er     0.2585   0.6   0.8006
Er26     Er     0.1   0.7585   0.8006
Er27     Er     0.2415   0.9   0.6994
Er28     Er     0.4   0.7415   0.6994
V29     V     0.6469   0.5595   0.5
V30     V     0.4405   0.6469   0.5
V31     V     0.5595   0.3531   0.5
V32     V     0.3531   0.4405   0.5
Er33     Er     0.7585   0.9   0.1994
Er34     Er     0.6   0.7415   0.1994
Er35     Er     0.7415   0.6   0.3006
Er36     Er     0.9   0.7585   0.3006
Er37     Er     0.2585   0.6   0.1994
Er38     Er     0.1   0.7585   0.1994
Er39     Er     0.2415   0.9   0.3006
Er40     Er     0.4   0.7415   0.3006
Er41     Er     0.2585   0.4   0.3006
Er42     Er     0.1   0.2415   0.3006
Er43     Er     0.4   0.2585   0.1994
Er44     Er     0.2415   0.1   0.1994
Er45     Er     0.6   0.2585   0.3006
Er46     Er     0.7585   0.1   0.3006
Er47     Er     0.9   0.2415   0.1994
Er48     Er     0.7415   0.4   0.1994
loop_
_geom_bond_atom_site_label_1
_geom_bond_atom_site_label_2
_geom_bond_distance
_geom_bond_site_symmetry_2
_ccdc_geom_bond_type
V1     Er27    10.0   .     S
V1     Er39    10.0   .     S
V1     V4    10.0   1_565     S
V1     V2    10.0   1_455     S
V2     Er19    10.0   .     S
V2     Er36    10.0   .     S
V2     V1    10.0   1_655     S
V2     V3    10.0   1_565     S
V3     Er14    10.0   .     S
V3     Er46    10.0   .     S
V3     V2    10.0   1_545     S
V3     V4    10.0   1_655     S
V4     V1    10.0   1_545     S
V4     Er24    10.0   .     S
V4     Er42    10.0   .     S
V4     V3    10.0   1_455     S
V5     Er47    10.0   .     S
V5     Er15    10.0   1_554     S
V5     V8    10.0   1_655     S
V5     V6    10.0   1_545     S
V6     Er33    10.0   .     S
V6     Er18    10.0   1_554     S
V6     V5    10.0   1_565     S
V6     V7    10.0   1_655     S
V7     Er38    10.0   .     S
V7     Er26    10.0   1_554     S
V7     V6    10.0   1_455     S
V7     V8    10.0   1_565     S
V8     V5    10.0   1_455     S
V8     Er44    10.0   .     S
V8     Er22    10.0   1_554     S
V8     V7    10.0   1_545     S
V9     Er34    10.0   .     S
V9     Er17    10.0   1_554     S
V9     V10    10.0   .     S
V9     V11    10.0   .     S
V10     Er37    10.0   .     S
V10     Er25    10.0   1_554     S
V10     V12    10.0   .     S
V11     Er48    10.0   .     S
V11     Er16    10.0   1_554     S
V11     V12    10.0   .     S
V12     Er43    10.0   .     S
V12     Er21    10.0   1_554     S
Er13     Er14    10.0   .     S
Er13     Er16    10.0   .     S
Er13     Er21    10.0   .     S
Er13     V31    10.0   .     S
Er14     Er15    10.0   .     S
Er14     Er18    10.0   1_545     S
Er15     V5    10.0   1_556     S
Er15     Er16    10.0   .     S
Er15     Er24    10.0   1_655     S
Er16     V11    10.0   1_556     S
Er16     Er20    10.0   .     S
Er17     V9    10.0   1_556     S
Er17     Er18    10.0   .     S
Er17     Er20    10.0   .     S
Er17     Er28    10.0   .     S
Er18     V6    10.0   1_556     S
Er18     Er14    10.0   1_565     S
Er18     Er19    10.0   .     S
Er19     Er20    10.0   .     S
Er19     Er26    10.0   1_655     S
Er20     V29    10.0   .     S
Er21     V12    10.0   1_556     S
Er21     Er22    10.0   .     S
Er21     Er23    10.0   .     S
Er22     V8    10.0   1_556     S
Er22     Er24    10.0   .     S
Er22     Er27    10.0   1_545     S
Er23     Er24    10.0   .     S
Er23     Er25    10.0   .     S
Er23     V32    10.0   .     S
Er24     Er15    10.0   1_455     S
Er25     V10    10.0   1_556     S
Er25     Er26    10.0   .     S
Er25     Er28    10.0   .     S
Er26     V7    10.0   1_556     S
Er26     Er27    10.0   .     S
Er26     Er19    10.0   1_455     S
Er27     Er28    10.0   .     S
Er27     Er22    10.0   1_565     S
Er28     V30    10.0   .     S
V29     Er35    10.0   .     S
V29     V31    10.0   .     S
V29     V30    10.0   .     S
V30     Er40    10.0   .     S
V30     V32    10.0   .     S
V31     Er45    10.0   .     S
V31     V32    10.0   .     S
V32     Er41    10.0   .     S
Er33     Er34    10.0   .     S
Er33     Er36    10.0   .     S
Er33     Er46    10.0   1_565     S
Er34     Er35    10.0   .     S
Er34     Er40    10.0   .     S
Er35     Er36    10.0   .     S
Er35     Er48    10.0   .     S
Er36     Er38    10.0   1_655     S
Er37     Er38    10.0   .     S
Er37     Er40    10.0   .     S
Er37     Er41    10.0   .     S
Er38     Er39    10.0   .     S
Er38     Er36    10.0   1_455     S
Er39     Er40    10.0   .     S
Er39     Er44    10.0   1_565     S
Er41     Er42    10.0   .     S
Er41     Er43    10.0   .     S
Er42     Er44    10.0   .     S
Er42     Er47    10.0   1_455     S
Er43     Er44    10.0   .     S
Er43     Er45    10.0   .     S
Er44     Er39    10.0   1_545     S
Er45     Er46    10.0   .     S
Er45     Er48    10.0   .     S
Er46     Er47    10.0   .     S
Er46     Er33    10.0   1_545     S
Er47     Er48    10.0   .     S
Er47     Er42    10.0   1_655     S
