data_fvu
_audit_creation_date              2020-02-02
_audit_creation_method            'Pymatgen'
_symmetry_space_group_name_H-M    'P1'
_symmetry_Int_Tables_number       1
loop_
_symmetry_equiv_pos_as_xyz
  x,y,z
_cell_length_a                    43.8671
_cell_length_b                    43.8671
_cell_length_c                    21.5603
_cell_angle_alpha                 90.0
_cell_angle_beta                 90.0
_cell_angle_gamma                 90.0
loop_
_atom_site_label
_atom_site_type_symbol
_atom_site_fract_x
_atom_site_fract_y
_atom_site_fract_z
V1     V     0.864   0.636   0.0
V2     V     0.864   0.864   0.0
V3     V     0.636   0.864   0.0
V4     V     0.636   0.636   0.0
Er5     Er     0.6508   0.5104   0.6141
Er6     Er     0.8492   0.5104   0.3859
Er7     Er     0.5104   0.6508   0.3859
Er8     Er     0.5104   0.8492   0.6141
Er9     Er     0.9896   0.6508   0.6141
Er10     Er     0.9896   0.8492   0.3859
Er11     Er     0.6508   0.9896   0.3859
Er12     Er     0.8492   0.9896   0.6141
V13     V     0.136   0.364   0.0
V14     V     0.136   0.136   0.0
V15     V     0.364   0.136   0.0
V16     V     0.364   0.364   0.0
Er17     Er     0.1508   0.4896   0.6141
Er18     Er     0.3492   0.4896   0.3859
Er19     Er     0.4896   0.1508   0.3859
Er20     Er     0.4896   0.3492   0.6141
Er21     Er     0.1508   0.0104   0.3859
Er22     Er     0.3492   0.0104   0.6141
Er23     Er     0.0104   0.1508   0.6141
Er24     Er     0.0104   0.3492   0.3859
loop_
_geom_bond_atom_site_label_1
_geom_bond_atom_site_label_2
_geom_bond_distance
_geom_bond_site_symmetry_2
_ccdc_geom_bond_type
V1     V4    10.0   .     S
V1     V2    10.0   .     S
V1     Er6    10.0   .     S
V1     Er9    10.0   1_554     S
V2     V3    10.0   .     S
V2     Er10    10.0   .     S
V2     Er12    10.0   1_554     S
V3     V4    10.0   .     S
V3     Er8    10.0   1_554     S
V3     Er11    10.0   .     S
V4     Er5    10.0   1_554     S
V4     Er7    10.0   .     S
Er5     V4    10.0   1_556     S
Er5     Er6    10.0   .     S
Er5     Er7    10.0   .     S
Er5     Er20    10.0   .     S
Er6     Er9    10.0   .     S
Er6     Er24    10.0   1_655     S
Er7     Er8    10.0   .     S
Er7     Er18    10.0   .     S
Er8     V3    10.0   1_556     S
Er8     Er11    10.0   .     S
Er8     Er22    10.0   1_565     S
Er9     V1    10.0   1_556     S
Er9     Er10    10.0   .     S
Er9     Er17    10.0   1_655     S
Er10     Er12    10.0   .     S
Er10     Er21    10.0   1_665     S
Er11     Er12    10.0   .     S
Er11     Er19    10.0   1_565     S
Er12     V2    10.0   1_556     S
Er12     Er23    10.0   1_665     S
V13     V16    10.0   .     S
V13     V14    10.0   .     S
V13     Er17    10.0   1_554     S
V13     Er24    10.0   .     S
V14     V15    10.0   .     S
V14     Er21    10.0   .     S
V14     Er23    10.0   1_554     S
V15     V16    10.0   .     S
V15     Er19    10.0   .     S
V15     Er22    10.0   1_554     S
V16     Er18    10.0   .     S
V16     Er20    10.0   1_554     S
Er17     V13    10.0   1_556     S
Er17     Er18    10.0   .     S
Er17     Er24    10.0   .     S
Er17     Er9    10.0   1_455     S
Er18     Er20    10.0   .     S
Er19     Er20    10.0   .     S
Er19     Er22    10.0   .     S
Er19     Er11    10.0   1_545     S
Er20     V16    10.0   1_556     S
Er21     Er22    10.0   .     S
Er21     Er23    10.0   .     S
Er21     Er10    10.0   1_445     S
Er22     Er8    10.0   1_545     S
Er22     V15    10.0   1_556     S
Er23     V14    10.0   1_556     S
Er23     Er24    10.0   .     S
Er23     Er12    10.0   1_445     S
Er24     Er6    10.0   1_455     S
