data_fvv
_audit_creation_date              2020-02-02
_audit_creation_method            'Pymatgen'
_symmetry_space_group_name_H-M    'P1'
_symmetry_Int_Tables_number       1
loop_
_symmetry_equiv_pos_as_xyz
  x,y,z
_cell_length_a                    54.1037
_cell_length_b                    54.1037
_cell_length_c                    54.1037
_cell_angle_alpha                 90.0
_cell_angle_beta                 90.0
_cell_angle_gamma                 90.0
loop_
_atom_site_label
_atom_site_type_symbol
_atom_site_fract_x
_atom_site_fract_y
_atom_site_fract_z
Er1     Er     0.5122   0.6301   0.2403
Er2     Er     0.3699   0.5122   0.2403
Er3     Er     0.4878   0.3699   0.2403
Er4     Er     0.6301   0.4878   0.2403
Er5     Er     0.2403   0.5122   0.6301
Er6     Er     0.2403   0.3699   0.5122
Er7     Er     0.2403   0.4878   0.3699
Er8     Er     0.2403   0.6301   0.4878
Er9     Er     0.6301   0.2403   0.5122
Er10     Er     0.5122   0.2403   0.3699
Er11     Er     0.3699   0.2403   0.4878
Er12     Er     0.4878   0.2403   0.6301
Er13     Er     0.5122   0.7597   0.6301
Er14     Er     0.3699   0.7597   0.5122
Er15     Er     0.4878   0.7597   0.3699
Er16     Er     0.6301   0.7597   0.4878
Er17     Er     0.6301   0.5122   0.7597
Er18     Er     0.4878   0.6301   0.7597
Er19     Er     0.3699   0.4878   0.7597
Er20     Er     0.5122   0.3699   0.7597
Er21     Er     0.7597   0.6301   0.5122
Er22     Er     0.7597   0.5122   0.3699
Er23     Er     0.7597   0.3699   0.4878
Er24     Er     0.7597   0.4878   0.6301
Er25     Er     0.7403   0.9878   0.8699
Er26     Er     0.7403   0.1301   0.9878
Er27     Er     0.7403   0.0122   0.1301
Er28     Er     0.7403   0.8699   0.0122
Er29     Er     0.8699   0.7403   0.9878
Er30     Er     0.9878   0.7403   0.1301
Er31     Er     0.1301   0.7403   0.0122
Er32     Er     0.0122   0.7403   0.8699
Er33     Er     0.9878   0.8699   0.7403
Er34     Er     0.1301   0.9878   0.7403
Er35     Er     0.0122   0.1301   0.7403
Er36     Er     0.8699   0.0122   0.7403
Er37     Er     0.2597   0.8699   0.9878
Er38     Er     0.2597   0.0122   0.8699
Er39     Er     0.2597   0.9878   0.1301
Er40     Er     0.2597   0.1301   0.0122
Er41     Er     0.9878   0.2597   0.8699
Er42     Er     0.8699   0.2597   0.0122
Er43     Er     0.0122   0.2597   0.1301
Er44     Er     0.1301   0.2597   0.9878
Er45     Er     0.8699   0.9878   0.2597
Er46     Er     0.9878   0.1301   0.2597
Er47     Er     0.1301   0.0122   0.2597
Er48     Er     0.0122   0.8699   0.2597
V49     V     0.6576   0.0654   0.5653
V50     V     0.8424   0.0653   0.5654
V51     V     0.8424   0.9347   0.4346
V52     V     0.6576   0.9346   0.4347
V53     V     0.5654   0.9347   0.8424
V54     V     0.5653   0.9346   0.6576
V55     V     0.4347   0.0654   0.6576
V56     V     0.4346   0.0653   0.8424
V57     V     0.5654   0.0653   0.1576
V58     V     0.5653   0.0654   0.3424
V59     V     0.4346   0.9347   0.1576
V60     V     0.4347   0.9346   0.3424
V61     V     0.1576   0.9347   0.5654
V62     V     0.3424   0.9346   0.5653
V63     V     0.3424   0.0654   0.4347
V64     V     0.1576   0.0653   0.4346
V65     V     0.0654   0.3424   0.5653
V66     V     0.0653   0.1576   0.5654
V67     V     0.9347   0.1576   0.4346
V68     V     0.9346   0.3424   0.4347
V69     V     0.0654   0.5653   0.6576
V70     V     0.0653   0.5654   0.8424
V71     V     0.9347   0.4346   0.8424
V72     V     0.9346   0.4347   0.6576
V73     V     0.9347   0.8424   0.5654
V74     V     0.9346   0.6576   0.5653
V75     V     0.0654   0.6576   0.4347
V76     V     0.0653   0.8424   0.4346
V77     V     0.9347   0.5654   0.1576
V78     V     0.9346   0.5653   0.3424
V79     V     0.0653   0.4346   0.1576
V80     V     0.0654   0.4347   0.3424
V81     V     0.1576   0.5654   0.0653
V82     V     0.3424   0.5653   0.0654
V83     V     0.1576   0.4346   0.9347
V84     V     0.3424   0.4347   0.9346
V85     V     0.5653   0.6576   0.0654
V86     V     0.5654   0.8424   0.0653
V87     V     0.4346   0.8424   0.9347
V88     V     0.4347   0.6576   0.9346
V89     V     0.8424   0.5654   0.9347
V90     V     0.6576   0.5653   0.9346
V91     V     0.6576   0.4347   0.0654
V92     V     0.8424   0.4346   0.0653
V93     V     0.5654   0.1576   0.9347
V94     V     0.5653   0.3424   0.9346
V95     V     0.4347   0.3424   0.0654
V96     V     0.4346   0.1576   0.0653
loop_
_geom_bond_atom_site_label_1
_geom_bond_atom_site_label_2
_geom_bond_distance
_geom_bond_site_symmetry_2
_ccdc_geom_bond_type
Er1     V85    10.0   .     S
Er1     Er4    10.0   .     S
Er1     Er2    10.0   .     S
Er1     Er15    10.0   .     S
Er2     V82    10.0   .     S
Er2     Er3    10.0   .     S
Er2     Er7    10.0   .     S
Er3     V95    10.0   .     S
Er3     Er4    10.0   .     S
Er3     Er10    10.0   .     S
Er4     V91    10.0   .     S
Er4     Er22    10.0   .     S
Er5     V69    10.0   .     S
Er5     Er8    10.0   .     S
Er5     Er6    10.0   .     S
Er5     Er19    10.0   .     S
Er6     V65    10.0   .     S
Er6     Er7    10.0   .     S
Er6     Er11    10.0   .     S
Er7     V80    10.0   .     S
Er7     Er8    10.0   .     S
Er8     V75    10.0   .     S
Er8     Er14    10.0   .     S
Er9     V49    10.0   .     S
Er9     Er12    10.0   .     S
Er9     Er10    10.0   .     S
Er9     Er23    10.0   .     S
Er10     V58    10.0   .     S
Er10     Er11    10.0   .     S
Er11     V63    10.0   .     S
Er11     Er12    10.0   .     S
Er12     V55    10.0   .     S
Er12     Er20    10.0   .     S
Er13     V54    10.0   .     S
Er13     Er16    10.0   .     S
Er13     Er14    10.0   .     S
Er13     Er18    10.0   .     S
Er14     V62    10.0   .     S
Er14     Er15    10.0   .     S
Er15     V60    10.0   .     S
Er15     Er16    10.0   .     S
Er16     V52    10.0   .     S
Er16     Er21    10.0   .     S
Er17     V90    10.0   .     S
Er17     Er18    10.0   .     S
Er17     Er20    10.0   .     S
Er17     Er24    10.0   .     S
Er18     V88    10.0   .     S
Er18     Er19    10.0   .     S
Er19     V84    10.0   .     S
Er19     Er20    10.0   .     S
Er20     V94    10.0   .     S
Er21     V74    10.0   .     S
Er21     Er24    10.0   .     S
Er21     Er22    10.0   .     S
Er22     V78    10.0   .     S
Er22     Er23    10.0   .     S
Er23     V68    10.0   .     S
Er23     Er24    10.0   .     S
Er24     V72    10.0   .     S
Er25     V53    10.0   .     S
Er25     Er28    10.0   1_556     S
Er25     Er26    10.0   1_565     S
Er25     Er36    10.0   1_565     S
Er26     V93    10.0   .     S
Er26     Er25    10.0   1_545     S
Er26     Er27    10.0   1_556     S
Er26     Er42    10.0   1_556     S
Er27     V57    10.0   .     S
Er27     Er26    10.0   1_554     S
Er27     Er28    10.0   1_545     S
Er27     Er45    10.0   1_545     S
Er28     Er25    10.0   1_554     S
Er28     V86    10.0   .     S
Er28     Er27    10.0   1_565     S
Er28     Er29    10.0   1_554     S
Er29     V89    10.0   .     S
Er29     Er32    10.0   1_655     S
Er29     Er30    10.0   1_556     S
Er29     Er28    10.0   1_556     S
Er30     V77    10.0   .     S
Er30     Er29    10.0   1_554     S
Er30     Er31    10.0   1_655     S
Er30     Er48    10.0   1_655     S
Er31     V81    10.0   .     S
Er31     Er30    10.0   1_455     S
Er31     Er32    10.0   1_554     S
Er31     Er37    10.0   1_554     S
Er32     Er29    10.0   1_455     S
Er32     V70    10.0   .     S
Er32     Er31    10.0   1_556     S
Er32     Er33    10.0   1_455     S
Er33     Er32    10.0   1_655     S
Er33     V73    10.0   .     S
Er33     Er36    10.0   1_565     S
Er33     Er34    10.0   1_655     S
Er34     V61    10.0   .     S
Er34     Er33    10.0   1_455     S
Er34     Er35    10.0   1_565     S
Er34     Er38    10.0   1_565     S
Er35     V66    10.0   .     S
Er35     Er34    10.0   1_545     S
Er35     Er36    10.0   1_455     S
Er35     Er41    10.0   1_455     S
Er36     Er33    10.0   1_545     S
Er36     V50    10.0   .     S
Er36     Er35    10.0   1_655     S
Er36     Er25    10.0   1_545     S
Er37     V87    10.0   .     S
Er37     Er38    10.0   1_565     S
Er37     Er39    10.0   1_556     S
Er37     Er31    10.0   1_556     S
Er38     Er37    10.0   1_545     S
Er38     V56    10.0   .     S
Er38     Er40    10.0   1_556     S
Er38     Er34    10.0   1_545     S
Er39     V59    10.0   .     S
Er39     Er37    10.0   1_554     S
Er39     Er40    10.0   1_565     S
Er39     Er47    10.0   1_565     S
Er40     Er38    10.0   1_554     S
Er40     V96    10.0   .     S
Er40     Er39    10.0   1_545     S
Er40     Er44    10.0   1_554     S
Er41     V71    10.0   .     S
Er41     Er42    10.0   1_556     S
Er41     Er44    10.0   1_655     S
Er41     Er35    10.0   1_655     S
Er42     Er41    10.0   1_554     S
Er42     V92    10.0   .     S
Er42     Er43    10.0   1_655     S
Er42     Er26    10.0   1_554     S
Er43     Er42    10.0   1_455     S
Er43     V79    10.0   .     S
Er43     Er44    10.0   1_554     S
Er43     Er46    10.0   1_455     S
Er44     Er43    10.0   1_556     S
Er44     V83    10.0   .     S
Er44     Er41    10.0   1_455     S
Er44     Er40    10.0   1_556     S
Er45     V51    10.0   .     S
Er45     Er48    10.0   1_655     S
Er45     Er46    10.0   1_565     S
Er45     Er27    10.0   1_565     S
Er46     V67    10.0   .     S
Er46     Er45    10.0   1_545     S
Er46     Er47    10.0   1_655     S
Er46     Er43    10.0   1_655     S
Er47     V64    10.0   .     S
Er47     Er46    10.0   1_455     S
Er47     Er48    10.0   1_545     S
Er47     Er39    10.0   1_545     S
Er48     Er45    10.0   1_455     S
Er48     V76    10.0   .     S
Er48     Er47    10.0   1_565     S
Er48     Er30    10.0   1_455     S
V49     V50    9.999   .     S
V49     V52    10.0   1_545     S
V49     V54    10.0   1_545     S
V50     V51    10.0   1_545     S
V50     V67    10.0   .     S
V51     V52    9.999   .     S
V51     V50    10.0   1_565     S
V51     V73    10.0   .     S
V52     V49    10.0   1_565     S
V52     V58    10.0   1_565     S
V53     V54    9.999   .     S
V53     V56    10.0   1_565     S
V53     V87    10.0   .     S
V54     V55    10.0   1_565     S
V54     V49    10.0   1_565     S
V55     V56    9.999   .     S
V55     V54    10.0   1_545     S
V55     V62    10.0   1_545     S
V56     V53    10.0   1_545     S
V56     V93    10.0   .     S
V57     V58    9.999   .     S
V57     V59    10.0   1_545     S
V57     V96    10.0   .     S
V58     V52    10.0   1_545     S
V58     V60    10.0   1_545     S
V59     V60    9.999   .     S
V59     V57    10.0   1_565     S
V59     V86    10.0   .     S
V60     V58    10.0   1_565     S
V60     V63    10.0   1_565     S
V61     V62    9.999   .     S
V61     V64    10.0   1_565     S
V61     V76    10.0   .     S
V62     V55    10.0   1_565     S
V62     V63    10.0   1_565     S
V63     V60    10.0   1_545     S
V63     V64    9.999   .     S
V63     V62    10.0   1_545     S
V64     V61    10.0   1_545     S
V64     V66    10.0   .     S
V65     V66    9.999   .     S
V65     V68    10.0   1_455     S
V65     V72    10.0   1_455     S
V66     V67    10.0   1_455     S
V67     V68    9.999   .     S
V67     V66    10.0   1_655     S
V68     V65    10.0   1_655     S
V68     V80    10.0   1_655     S
V69     V70    9.999   .     S
V69     V72    10.0   1_455     S
V69     V74    10.0   1_455     S
V70     V71    10.0   1_455     S
V70     V83    10.0   .     S
V71     V72    9.999   .     S
V71     V70    10.0   1_655     S
V71     V89    10.0   .     S
V72     V69    10.0   1_655     S
V72     V65    10.0   1_655     S
V73     V74    9.999   .     S
V73     V76    10.0   1_655     S
V74     V75    10.0   1_655     S
V74     V69    10.0   1_655     S
V75     V76    9.999   .     S
V75     V74    10.0   1_455     S
V75     V78    10.0   1_455     S
V76     V73    10.0   1_455     S
V77     V78    9.999   .     S
V77     V79    10.0   1_655     S
V77     V92    10.0   .     S
V78     V75    10.0   1_655     S
V78     V80    10.0   1_655     S
V79     V80    9.999   .     S
V79     V77    10.0   1_455     S
V79     V81    10.0   .     S
V80     V78    10.0   1_455     S
V80     V68    10.0   1_455     S
V81     V82    9.999   .     S
V81     V83    10.0   1_554     S
V82     V84    10.0   1_554     S
V82     V88    10.0   1_554     S
V83     V84    9.999   .     S
V83     V81    10.0   1_556     S
V84     V82    10.0   1_556     S
V84     V95    10.0   1_556     S
V85     V86    9.999   .     S
V85     V88    10.0   1_554     S
V85     V90    10.0   1_554     S
V86     V87    10.0   1_554     S
V87     V88    9.999   .     S
V87     V86    10.0   1_556     S
V88     V85    10.0   1_556     S
V88     V82    10.0   1_556     S
V89     V90    9.999   .     S
V89     V92    10.0   1_556     S
V90     V91    10.0   1_556     S
V90     V85    10.0   1_556     S
V91     V92    9.999   .     S
V91     V90    10.0   1_554     S
V91     V94    10.0   1_554     S
V92     V89    10.0   1_554     S
V93     V94    9.999   .     S
V93     V96    10.0   1_556     S
V94     V91    10.0   1_556     S
V94     V95    10.0   1_556     S
V95     V84    10.0   1_554     S
V95     V96    9.999   .     S
V95     V94    10.0   1_554     S
V96     V93    10.0   1_554     S
