data_fvw
_audit_creation_date              2020-02-02
_audit_creation_method            'Pymatgen'
_symmetry_space_group_name_H-M    'P1'
_symmetry_Int_Tables_number       1
loop_
_symmetry_equiv_pos_as_xyz
  x,y,z
_cell_length_a                    27.2331
_cell_length_b                    27.2331
_cell_length_c                    57.4858
_cell_angle_alpha                 90.0
_cell_angle_beta                 90.0
_cell_angle_gamma                 90.0
loop_
_atom_site_label
_atom_site_type_symbol
_atom_site_fract_x
_atom_site_fract_y
_atom_site_fract_z
V1     V     0.1836   0.6836   0.8247
V2     V     0.3164   0.8164   0.6753
Er3     Er     0.5   0.6836   0.913
Er4     Er     0.3164   0.5   0.587
V5     V     0.1836   0.3164   0.8247
V6     V     0.3164   0.1836   0.6753
Er7     Er     0.5   0.3164   0.913
V8     V     0.8164   0.6836   0.8247
V9     V     0.6836   0.8164   0.6753
Er10     Er     0.6836   0.5   0.587
V11     V     0.8164   0.3164   0.8247
V12     V     0.6836   0.1836   0.6753
V13     V     0.6836   0.1836   0.3247
V14     V     0.8164   0.3164   0.1753
Er15     Er     0.5   0.3164   0.087
V16     V     0.3164   0.1836   0.3247
V17     V     0.1836   0.3164   0.1753
Er18     Er     0.6836   0.5   0.413
V19     V     0.6836   0.8164   0.3247
V20     V     0.8164   0.6836   0.1753
Er21     Er     0.5   0.6836   0.087
V22     V     0.1836   0.6836   0.1753
V23     V     0.3164   0.8164   0.3247
Er24     Er     0.3164   0.5   0.413
loop_
_geom_bond_atom_site_label_1
_geom_bond_atom_site_label_2
_geom_bond_distance
_geom_bond_site_symmetry_2
_ccdc_geom_bond_type
V1     V2    10.0   .     S
V1     Er3    10.0   .     S
V1     V8    10.0   1_455     S
V1     V5    10.0   .     S
V2     Er4    10.0   .     S
V2     V6    10.0   1_565     S
V2     V9    10.0   .     S
Er3     V8    10.0   .     S
Er3     Er7    10.0   .     S
Er3     Er21    10.0   1_556     S
Er4     V6    10.0   .     S
Er4     Er10    10.0   .     S
Er4     Er24    10.0   .     S
V5     V6    10.0   .     S
V5     Er7    10.0   .     S
V5     V11    10.0   1_455     S
V6     V2    10.0   1_545     S
V6     V12    10.0   .     S
Er7     V11    10.0   .     S
Er7     Er15    10.0   1_556     S
V8     V9    10.0   .     S
V8     V1    10.0   1_655     S
V8     V11    10.0   .     S
V9     Er10    10.0   .     S
V9     V12    10.0   1_565     S
Er10     V12    10.0   .     S
Er10     Er18    10.0   .     S
V11     V12    10.0   .     S
V11     V5    10.0   1_655     S
V12     V9    10.0   1_545     S
V13     V14    10.0   .     S
V13     Er18    10.0   .     S
V13     V19    10.0   1_545     S
V13     V16    10.0   .     S
V14     Er15    10.0   .     S
V14     V17    10.0   1_655     S
V14     V20    10.0   .     S
Er15     V17    10.0   .     S
Er15     Er21    10.0   .     S
Er15     Er7    10.0   1_554     S
V16     V17    10.0   .     S
V16     Er24    10.0   .     S
V16     V23    10.0   1_545     S
V17     V14    10.0   1_455     S
V17     V22    10.0   .     S
Er18     V19    10.0   .     S
Er18     Er24    10.0   .     S
V19     V20    10.0   .     S
V19     V13    10.0   1_565     S
V19     V23    10.0   .     S
V20     Er21    10.0   .     S
V20     V22    10.0   1_655     S
Er21     V22    10.0   .     S
Er21     Er3    10.0   1_554     S
V22     V23    10.0   .     S
V22     V20    10.0   1_455     S
V23     Er24    10.0   .     S
V23     V16    10.0   1_565     S
