data_fvx
_audit_creation_date              2020-02-02
_audit_creation_method            'Pymatgen'
_symmetry_space_group_name_H-M    'P1'
_symmetry_Int_Tables_number       1
loop_
_symmetry_equiv_pos_as_xyz
  x,y,z
_cell_length_a                    48.3764
_cell_length_b                    48.3764
_cell_length_c                    48.3764
_cell_angle_alpha                 90.0
_cell_angle_beta                 90.0
_cell_angle_gamma                 90.0
loop_
_atom_site_label
_atom_site_type_symbol
_atom_site_fract_x
_atom_site_fract_y
_atom_site_fract_z
V1     V     0.6034   0.7505   0.7505
Er2     Er     0.6034   0.8966   0.8966
Er3     Er     0.6034   0.6034   0.8966
V4     V     0.7495   0.7495   0.8966
V5     V     0.7505   0.6034   0.7505
Er6     Er     0.8966   0.6034   0.8966
Er7     Er     0.8966   0.6034   0.6034
V8     V     0.8966   0.7495   0.7495
Er9     Er     0.6034   0.8966   0.6034
V10     V     0.7495   0.8966   0.7495
V11     V     0.7505   0.7505   0.6034
Er12     Er     0.8966   0.8966   0.6034
V13     V     0.7505   0.3966   0.7505
Er14     Er     0.8966   0.3966   0.8966
Er15     Er     0.6034   0.3966   0.8966
V16     V     0.7495   0.2505   0.8966
Er17     Er     0.8966   0.3966   0.6034
V18     V     0.8966   0.2505   0.7495
V19     V     0.6034   0.2495   0.7505
Er20     Er     0.6034   0.1034   0.8966
Er21     Er     0.6034   0.1034   0.6034
V22     V     0.7495   0.1034   0.7495
V23     V     0.7505   0.2495   0.6034
Er24     Er     0.8966   0.1034   0.6034
V25     V     0.3966   0.7505   0.7505
Er26     Er     0.3966   0.8966   0.8966
Er27     Er     0.3966   0.6034   0.8966
V28     V     0.2505   0.7495   0.8966
Er29     Er     0.3966   0.8966   0.6034
V30     V     0.2505   0.8966   0.7495
V31     V     0.2495   0.6034   0.7505
Er32     Er     0.1034   0.6034   0.8966
Er33     Er     0.1034   0.6034   0.6034
V34     V     0.1034   0.7495   0.7495
V35     V     0.2495   0.7505   0.6034
Er36     Er     0.1034   0.8966   0.6034
Er37     Er     0.3966   0.3966   0.8966
V38     V     0.2505   0.2505   0.8966
V39     V     0.2495   0.3966   0.7505
Er40     Er     0.1034   0.3966   0.8966
V41     V     0.3966   0.2495   0.7505
Er42     Er     0.3966   0.1034   0.8966
Er43     Er     0.1034   0.3966   0.6034
V44     V     0.1034   0.2505   0.7495
Er45     Er     0.3966   0.1034   0.6034
V46     V     0.2505   0.1034   0.7495
V47     V     0.2495   0.2495   0.6034
Er48     Er     0.1034   0.1034   0.6034
V49     V     0.7505   0.7505   0.3966
Er50     Er     0.8966   0.8966   0.3966
Er51     Er     0.6034   0.8966   0.3966
V52     V     0.7495   0.8966   0.2505
Er53     Er     0.8966   0.6034   0.3966
V54     V     0.8966   0.7495   0.2505
V55     V     0.6034   0.7505   0.2495
Er56     Er     0.6034   0.8966   0.1034
Er57     Er     0.6034   0.6034   0.1034
V58     V     0.7495   0.7495   0.1034
V59     V     0.7505   0.6034   0.2495
Er60     Er     0.8966   0.6034   0.1034
Er61     Er     0.8966   0.3966   0.3966
V62     V     0.8966   0.2505   0.2505
V63     V     0.7505   0.3966   0.2495
Er64     Er     0.8966   0.3966   0.1034
V65     V     0.7505   0.2495   0.3966
Er66     Er     0.8966   0.1034   0.3966
Er67     Er     0.6034   0.3966   0.1034
V68     V     0.7495   0.2505   0.1034
Er69     Er     0.6034   0.1034   0.3966
V70     V     0.7495   0.1034   0.2505
V71     V     0.6034   0.2495   0.2495
Er72     Er     0.6034   0.1034   0.1034
V73     V     0.2495   0.3966   0.2495
Er74     Er     0.1034   0.3966   0.1034
Er75     Er     0.3966   0.3966   0.1034
V76     V     0.2505   0.2505   0.1034
V77     V     0.3966   0.2495   0.2495
Er78     Er     0.3966   0.1034   0.1034
Er79     Er     0.3966   0.1034   0.3966
V80     V     0.2505   0.1034   0.2505
Er81     Er     0.1034   0.3966   0.3966
V82     V     0.1034   0.2505   0.2505
V83     V     0.2495   0.2495   0.3966
Er84     Er     0.1034   0.1034   0.3966
Er85     Er     0.3966   0.8966   0.3966
V86     V     0.2505   0.8966   0.2505
V87     V     0.3966   0.7505   0.2495
Er88     Er     0.3966   0.8966   0.1034
V89     V     0.2495   0.7505   0.3966
Er90     Er     0.1034   0.8966   0.3966
Er91     Er     0.3966   0.6034   0.1034
V92     V     0.2505   0.7495   0.1034
Er93     Er     0.1034   0.6034   0.3966
V94     V     0.1034   0.7495   0.2505
V95     V     0.2495   0.6034   0.2495
Er96     Er     0.1034   0.6034   0.1034
loop_
_geom_bond_atom_site_label_1
_geom_bond_atom_site_label_2
_geom_bond_distance
_geom_bond_site_symmetry_2
_ccdc_geom_bond_type
V1     Er2    9.999   .     S
V1     V4    10.0   .     S
V1     V10    10.0   .     S
V1     V25    10.0   .     S
Er2     Er56    10.0   1_556     S
Er2     Er20    10.0   1_565     S
Er2     Er26    10.0   .     S
Er3     V4    9.999   .     S
Er3     Er57    10.0   1_556     S
Er3     Er15    10.0   .     S
Er3     Er27    10.0   .     S
V4     V5    10.0   .     S
V4     V58    10.0   1_556     S
V5     Er6    9.999   .     S
V5     V8    10.0   .     S
V5     V13    10.0   .     S
Er6     Er60    10.0   1_556     S
Er6     Er32    10.0   1_655     S
Er6     Er14    10.0   .     S
Er7     V8    9.999   .     S
Er7     Er33    10.0   1_655     S
Er7     Er53    10.0   .     S
Er7     Er17    10.0   .     S
V8     V11    10.0   .     S
V8     V34    10.0   1_655     S
Er9     V10    9.999   .     S
Er9     Er21    10.0   1_565     S
Er9     Er51    10.0   .     S
Er9     Er29    10.0   .     S
V10     V11    10.0   .     S
V10     V22    10.0   1_565     S
V11     Er12    9.999   .     S
V11     V49    10.0   .     S
Er12     Er24    10.0   1_565     S
Er12     Er36    10.0   1_655     S
Er12     Er50    10.0   .     S
V13     Er14    9.999   .     S
V13     V16    10.0   .     S
V13     V18    10.0   .     S
Er14     Er64    10.0   1_556     S
Er14     Er40    10.0   1_655     S
Er15     V16    9.999   .     S
Er15     Er67    10.0   1_556     S
Er15     Er37    10.0   .     S
V16     V19    10.0   .     S
V16     V68    10.0   1_556     S
Er17     V18    9.999   .     S
Er17     Er43    10.0   1_655     S
Er17     Er61    10.0   .     S
V18     V23    10.0   .     S
V18     V44    10.0   1_655     S
V19     Er20    9.999   .     S
V19     V22    10.0   .     S
V19     V41    10.0   .     S
Er20     Er2    10.0   1_545     S
Er20     Er72    10.0   1_556     S
Er20     Er42    10.0   .     S
Er21     Er9    10.0   1_545     S
Er21     V22    9.999   .     S
Er21     Er69    10.0   .     S
Er21     Er45    10.0   .     S
V22     V10    10.0   1_545     S
V22     V23    10.0   .     S
V23     Er24    9.999   .     S
V23     V65    10.0   .     S
Er24     Er12    10.0   1_545     S
Er24     Er48    10.0   1_655     S
Er24     Er66    10.0   .     S
V25     Er26    9.999   .     S
V25     V28    10.0   .     S
V25     V30    10.0   .     S
Er26     Er88    10.0   1_556     S
Er26     Er42    10.0   1_565     S
Er27     V28    9.999   .     S
Er27     Er91    10.0   1_556     S
Er27     Er37    10.0   .     S
V28     V31    10.0   .     S
V28     V92    10.0   1_556     S
Er29     V30    9.999   .     S
Er29     Er45    10.0   1_565     S
Er29     Er85    10.0   .     S
V30     V35    10.0   .     S
V30     V46    10.0   1_565     S
V31     Er32    9.999   .     S
V31     V34    10.0   .     S
V31     V39    10.0   .     S
Er32     Er6    10.0   1_455     S
Er32     Er96    10.0   1_556     S
Er32     Er40    10.0   .     S
Er33     Er7    10.0   1_455     S
Er33     V34    9.999   .     S
Er33     Er93    10.0   .     S
Er33     Er43    10.0   .     S
V34     V8    10.0   1_455     S
V34     V35    10.0   .     S
V35     Er36    9.999   .     S
V35     V89    10.0   .     S
Er36     Er12    10.0   1_455     S
Er36     Er48    10.0   1_565     S
Er36     Er90    10.0   .     S
Er37     V38    9.999   .     S
Er37     Er75    10.0   1_556     S
V38     V39    10.0   .     S
V38     V41    10.0   .     S
V38     V76    10.0   1_556     S
V39     Er40    9.999   .     S
V39     V44    10.0   .     S
Er40     Er14    10.0   1_455     S
Er40     Er74    10.0   1_556     S
V41     Er42    9.999   .     S
V41     V46    10.0   .     S
Er42     Er26    10.0   1_545     S
Er42     Er78    10.0   1_556     S
Er43     Er17    10.0   1_455     S
Er43     V44    9.999   .     S
Er43     Er81    10.0   .     S
V44     V18    10.0   1_455     S
V44     V47    10.0   .     S
Er45     Er29    10.0   1_545     S
Er45     V46    9.999   .     S
Er45     Er79    10.0   .     S
V46     V30    10.0   1_545     S
V46     V47    10.0   .     S
V47     Er48    9.999   .     S
V47     V83    10.0   .     S
Er48     Er24    10.0   1_455     S
Er48     Er36    10.0   1_545     S
Er48     Er84    10.0   .     S
V49     Er50    9.999   .     S
V49     V54    10.0   .     S
V49     V52    10.0   .     S
Er50     Er66    10.0   1_565     S
Er50     Er90    10.0   1_655     S
Er51     V52    9.999   .     S
Er51     Er69    10.0   1_565     S
Er51     Er85    10.0   .     S
V52     V55    10.0   .     S
V52     V70    10.0   1_565     S
Er53     V54    9.999   .     S
Er53     Er93    10.0   1_655     S
Er53     Er61    10.0   .     S
V54     V59    10.0   .     S
V54     V94    10.0   1_655     S
V55     Er56    9.999   .     S
V55     V58    10.0   .     S
V55     V87    10.0   .     S
Er56     Er2    10.0   1_554     S
Er56     Er72    10.0   1_565     S
Er56     Er88    10.0   .     S
Er57     Er3    10.0   1_554     S
Er57     V58    9.999   .     S
Er57     Er67    10.0   .     S
Er57     Er91    10.0   .     S
V58     V4    10.0   1_554     S
V58     V59    10.0   .     S
V59     Er60    9.999   .     S
V59     V63    10.0   .     S
Er60     Er6    10.0   1_554     S
Er60     Er96    10.0   1_655     S
Er60     Er64    10.0   .     S
Er61     V62    9.999   .     S
Er61     Er81    10.0   1_655     S
V62     V63    10.0   .     S
V62     V65    10.0   .     S
V62     V82    10.0   1_655     S
V63     Er64    9.999   .     S
V63     V68    10.0   .     S
Er64     Er14    10.0   1_554     S
Er64     Er74    10.0   1_655     S
V65     Er66    9.999   .     S
V65     V70    10.0   .     S
Er66     Er50    10.0   1_545     S
Er66     Er84    10.0   1_655     S
Er67     Er15    10.0   1_554     S
Er67     V68    9.999   .     S
Er67     Er75    10.0   .     S
V68     V16    10.0   1_554     S
V68     V71    10.0   .     S
Er69     Er51    10.0   1_545     S
Er69     V70    9.999   .     S
Er69     Er79    10.0   .     S
V70     V52    10.0   1_545     S
V70     V71    10.0   .     S
V71     Er72    9.999   .     S
V71     V77    10.0   .     S
Er72     Er20    10.0   1_554     S
Er72     Er56    10.0   1_545     S
Er72     Er78    10.0   .     S
V73     Er74    9.999   .     S
V73     V76    10.0   .     S
V73     V82    10.0   .     S
V73     V95    10.0   .     S
Er74     Er40    10.0   1_554     S
Er74     Er64    10.0   1_455     S
Er74     Er96    10.0   .     S
Er75     Er37    10.0   1_554     S
Er75     V76    9.999   .     S
Er75     Er91    10.0   .     S
V76     V38    10.0   1_554     S
V76     V77    10.0   .     S
V77     Er78    9.999   .     S
V77     V80    10.0   .     S
Er78     Er42    10.0   1_554     S
Er78     Er88    10.0   1_545     S
Er79     V80    9.999   .     S
Er79     Er85    10.0   1_545     S
V80     V83    10.0   .     S
V80     V86    10.0   1_545     S
Er81     Er61    10.0   1_455     S
Er81     V82    9.999   .     S
Er81     Er93    10.0   .     S
V82     V62    10.0   1_455     S
V82     V83    10.0   .     S
V83     Er84    9.999   .     S
Er84     Er66    10.0   1_455     S
Er84     Er90    10.0   1_545     S
Er85     V86    9.999   .     S
Er85     Er79    10.0   1_565     S
V86     V87    10.0   .     S
V86     V89    10.0   .     S
V86     V80    10.0   1_565     S
V87     Er88    9.999   .     S
V87     V92    10.0   .     S
Er88     Er26    10.0   1_554     S
Er88     Er78    10.0   1_565     S
V89     Er90    9.999   .     S
V89     V94    10.0   .     S
Er90     Er50    10.0   1_455     S
Er90     Er84    10.0   1_565     S
Er91     Er27    10.0   1_554     S
Er91     V92    9.999   .     S
V92     V28    10.0   1_554     S
V92     V95    10.0   .     S
Er93     Er53    10.0   1_455     S
Er93     V94    9.999   .     S
V94     V54    10.0   1_455     S
V94     V95    10.0   .     S
V95     Er96    9.999   .     S
Er96     Er32    10.0   1_554     S
Er96     Er60    10.0   1_455     S
