data_fwz
_audit_creation_date              2020-02-02
_audit_creation_method            'Pymatgen'
_symmetry_space_group_name_H-M    'P1'
_symmetry_Int_Tables_number       1
loop_
_symmetry_equiv_pos_as_xyz
  x,y,z
_cell_length_a                    60.0557
_cell_length_b                    60.0557
_cell_length_c                    29.944
_cell_angle_alpha                 90.0
_cell_angle_beta                 90.0
_cell_angle_gamma                 120.0
loop_
_atom_site_label
_atom_site_type_symbol
_atom_site_fract_x
_atom_site_fract_y
_atom_site_fract_z
V1     V     0.0   0.4167   0.667
Er2     Er     0.6667   0.1668   0.833
Er3     Er     0.8332   0.3333   0.833
Er4     Er     0.4998   0.6667   0.833
Er5     Er     0.4998   0.8332   0.833
V6     V     0.5833   0.0   0.667
V7     V     0.5833   0.5833   0.667
Er8     Er     0.1668   0.6667   0.833
Er9     Er     0.3333   0.8332   0.833
V10     V     0.4167   0.0   0.667
Er11     Er     0.3333   0.5002   0.833
Er12     Er     0.1668   0.5002   0.833
Er13     Er     0.5002   0.3333   0.833
Er14     Er     0.5002   0.1668   0.833
V15     V     0.4167   0.4167   0.667
Er16     Er     0.8332   0.4998   0.833
Er17     Er     0.6667   0.4998   0.833
V18     V     0.0   0.5833   0.667
Er19     Er     0.6667   0.1668   0.167
Er20     Er     0.8332   0.3333   0.167
V21     V     0.5833   0.5833   0.333
Er22     Er     0.4998   0.6667   0.167
Er23     Er     0.4998   0.8332   0.167
V24     V     0.5833   0.0   0.333
V25     V     0.0   0.4167   0.333
Er26     Er     0.8332   0.4998   0.167
Er27     Er     0.6667   0.4998   0.167
V28     V     0.0   0.5833   0.333
Er29     Er     0.3333   0.5002   0.167
Er30     Er     0.1668   0.5002   0.167
Er31     Er     0.5002   0.3333   0.167
Er32     Er     0.5002   0.1668   0.167
V33     V     0.4167   0.4167   0.333
Er34     Er     0.1668   0.6667   0.167
Er35     Er     0.3333   0.8332   0.167
V36     V     0.4167   0.0   0.333
loop_
_geom_bond_atom_site_label_1
_geom_bond_atom_site_label_2
_geom_bond_distance
_geom_bond_site_symmetry_2
_ccdc_geom_bond_type
V1     Er3    10.0   1_455     S
V1     Er12    10.0   .     S
V1     V25    10.0   .     S
V1     V18    10.0   .     S
Er2     Er3    10.0   .     S
Er2     V6    10.0   .     S
Er2     Er19    10.0   1_556     S
Er2     Er14    10.0   .     S
Er3     V1    10.0   1_655     S
Er3     Er20    10.0   1_556     S
Er3     Er16    10.0   .     S
Er4     Er5    10.0   .     S
Er4     V7    10.0   .     S
Er4     Er22    10.0   1_556     S
Er4     Er11    10.0   .     S
Er5     V6    10.0   1_565     S
Er5     Er23    10.0   1_556     S
Er5     Er9    10.0   .     S
V6     Er5    10.0   1_545     S
V6     V24    10.0   .     S
V6     V10    10.0   .     S
V7     Er17    10.0   .     S
V7     V21    10.0   .     S
V7     V15    10.0   .     S
Er8     Er9    10.0   .     S
Er8     V18    10.0   .     S
Er8     Er34    10.0   1_556     S
Er8     Er12    10.0   .     S
Er9     V10    10.0   1_565     S
Er9     Er35    10.0   1_556     S
V10     Er9    10.0   1_545     S
V10     Er14    10.0   .     S
V10     V36    10.0   .     S
Er11     Er12    10.0   .     S
Er11     V15    10.0   .     S
Er11     Er29    10.0   1_556     S
Er12     Er30    10.0   1_556     S
Er13     Er14    10.0   .     S
Er13     V15    10.0   .     S
Er13     Er31    10.0   1_556     S
Er13     Er17    10.0   .     S
Er14     Er32    10.0   1_556     S
V15     V33    10.0   .     S
Er16     Er17    10.0   .     S
Er16     V18    10.0   1_655     S
Er16     Er26    10.0   1_556     S
Er17     Er27    10.0   1_556     S
V18     Er16    10.0   1_455     S
V18     V28    10.0   .     S
Er19     Er20    10.0   .     S
Er19     V24    10.0   .     S
Er19     Er2    10.0   1_554     S
Er19     Er32    10.0   .     S
Er20     V25    10.0   1_655     S
Er20     Er3    10.0   1_554     S
Er20     Er26    10.0   .     S
V21     Er27    10.0   .     S
V21     Er22    10.0   .     S
V21     V33    10.0   .     S
Er22     Er23    10.0   .     S
Er22     Er4    10.0   1_554     S
Er22     Er29    10.0   .     S
Er23     V24    10.0   1_565     S
Er23     Er5    10.0   1_554     S
Er23     Er35    10.0   .     S
V24     Er23    10.0   1_545     S
V24     V36    10.0   .     S
V25     Er20    10.0   1_455     S
V25     Er30    10.0   .     S
V25     V28    10.0   .     S
Er26     Er27    10.0   .     S
Er26     V28    10.0   1_655     S
Er26     Er16    10.0   1_554     S
Er27     Er17    10.0   1_554     S
Er27     Er31    10.0   .     S
V28     Er26    10.0   1_455     S
V28     Er34    10.0   .     S
Er29     Er30    10.0   .     S
Er29     V33    10.0   .     S
Er29     Er11    10.0   1_554     S
Er30     Er12    10.0   1_554     S
Er30     Er34    10.0   .     S
Er31     Er32    10.0   .     S
Er31     V33    10.0   .     S
Er31     Er13    10.0   1_554     S
Er32     V36    10.0   .     S
Er32     Er14    10.0   1_554     S
Er34     Er35    10.0   .     S
Er34     Er8    10.0   1_554     S
Er35     V36    10.0   1_565     S
Er35     Er9    10.0   1_554     S
V36     Er35    10.0   1_545     S
