data_gaoa
_audit_creation_date              2020-02-02
_audit_creation_method            'Pymatgen'
_symmetry_space_group_name_H-M    'P1'
_symmetry_Int_Tables_number       1
loop_
_symmetry_equiv_pos_as_xyz
  x,y,z
_cell_length_a                    70.1609
_cell_length_b                    70.1609
_cell_length_c                    70.1609
_cell_angle_alpha                 90.0
_cell_angle_beta                 90.0
_cell_angle_gamma                 90.0
loop_
_atom_site_label
_atom_site_type_symbol
_atom_site_fract_x
_atom_site_fract_y
_atom_site_fract_z
Ce1     Ce     0.5   0.6996   0.0713
Ce2     Ce     0.5   0.6996   0.9287
Ce3     Ce     0.5713   0.8004   0.0
Ce4     Ce     0.4287   0.8004   0.0
Ce5     Ce     0.6996   0.0713   0.5
Ce6     Ce     0.6996   0.9287   0.5
Ce7     Ce     0.8004   0.0   0.5713
Ce8     Ce     0.8004   0.0   0.4287
Ce9     Ce     0.0713   0.5   0.6996
Ce10     Ce     0.9287   0.5   0.6996
Ce11     Ce     0.0   0.5713   0.8004
Ce12     Ce     0.0   0.4287   0.8004
Er13     Er     0.0   0.7567   0.0
V14     V     0.0   0.6332   0.0713
V15     V     0.0   0.6332   0.9287
Er16     Er     0.7567   0.0   0.0
V17     V     0.6332   0.0713   0.0
V18     V     0.6332   0.9287   0.0
Er19     Er     0.0   0.0   0.7567
V20     V     0.0713   0.0   0.6332
V21     V     0.9287   0.0   0.6332
Er22     Er     0.2433   0.0   0.0
V23     V     0.3668   0.0713   0.0
V24     V     0.3668   0.9287   0.0
Er25     Er     0.0   0.0   0.2433
V26     V     0.0713   0.0   0.3668
V27     V     0.9287   0.0   0.3668
Ti28     Ti     0.8992   0.0   0.0
Ti29     Ti     0.0   0.0   0.8992
Ti30     Ti     0.0   0.8992   0.0
Ti31     Ti     0.0   0.1008   0.0
Ti32     Ti     0.0   0.0   0.1008
Ti33     Ti     0.1008   0.0   0.0
Er34     Er     0.0   0.2433   0.0
V35     V     0.0   0.3668   0.0713
V36     V     0.0   0.3668   0.9287
Ce37     Ce     0.1996   0.0   0.5713
Ce38     Ce     0.1996   0.0   0.4287
Ce39     Ce     0.3004   0.0713   0.5
Ce40     Ce     0.3004   0.9287   0.5
Ce41     Ce     0.5713   0.1996   0.0
Ce42     Ce     0.4287   0.1996   0.0
Ce43     Ce     0.5   0.3004   0.0713
Ce44     Ce     0.5   0.3004   0.9287
Ce45     Ce     0.0   0.5713   0.1996
Ce46     Ce     0.0   0.4287   0.1996
Ce47     Ce     0.0713   0.5   0.3004
Ce48     Ce     0.9287   0.5   0.3004
Er49     Er     0.5   0.7433   0.5
V50     V     0.5713   0.8668   0.5
V51     V     0.4287   0.8668   0.5
Er52     Er     0.5   0.5   0.7433
V53     V     0.5   0.5713   0.8668
V54     V     0.5   0.4287   0.8668
Er55     Er     0.7433   0.5   0.5
V56     V     0.8668   0.5   0.5713
V57     V     0.8668   0.5   0.4287
Er58     Er     0.2567   0.5   0.5
V59     V     0.1332   0.5   0.5713
V60     V     0.1332   0.5   0.4287
Er61     Er     0.5   0.2567   0.5
V62     V     0.5713   0.1332   0.5
V63     V     0.4287   0.1332   0.5
Ti64     Ti     0.5   0.6008   0.5
Ti65     Ti     0.5   0.5   0.6008
Ti66     Ti     0.6008   0.5   0.5
Ti67     Ti     0.5   0.5   0.3992
Ti68     Ti     0.5   0.3992   0.5
Ti69     Ti     0.3992   0.5   0.5
Er70     Er     0.5   0.5   0.2567
V71     V     0.5   0.5713   0.1332
V72     V     0.5   0.4287   0.1332
loop_
_geom_bond_atom_site_label_1
_geom_bond_atom_site_label_2
_geom_bond_distance
_geom_bond_site_symmetry_2
_ccdc_geom_bond_type
Ce1     Ce2    9.999   1_554     S
Ce1     Ce3    9.999   .     S
Ce1     Ce4    9.999   .     S
Ce1     V71    10.0   .     S
Ce2     Ce1    9.999   1_556     S
Ce2     Ce3    9.999   1_556     S
Ce2     Ce4    9.999   1_556     S
Ce2     V53    10.0   .     S
Ce3     Ce4    9.999   .     S
Ce3     Ce2    9.999   1_554     S
Ce3     V18    10.0   .     S
Ce4     Ce2    9.999   1_554     S
Ce4     V24    10.0   .     S
Ce5     Ce6    9.999   1_545     S
Ce5     Ce7    9.999   .     S
Ce5     Ce8    9.999   .     S
Ce5     V62    10.0   .     S
Ce6     Ce5    9.999   1_565     S
Ce6     Ce7    9.999   1_565     S
Ce6     Ce8    9.999   1_565     S
Ce6     V50    10.0   .     S
Ce7     Ce8    9.999   .     S
Ce7     Ce6    9.999   1_545     S
Ce7     V21    10.0   .     S
Ce8     Ce6    9.999   1_545     S
Ce8     V27    10.0   .     S
Ce9     Ce10    9.999   1_455     S
Ce9     Ce11    9.999   .     S
Ce9     Ce12    9.999   .     S
Ce9     V59    10.0   .     S
Ce10     Ce9    9.999   1_655     S
Ce10     Ce11    9.999   1_655     S
Ce10     Ce12    9.999   1_655     S
Ce10     V56    10.0   .     S
Ce11     Ce12    9.999   .     S
Ce11     Ce10    9.999   1_455     S
Ce11     V15    10.0   .     S
Ce12     Ce10    9.999   1_455     S
Ce12     V36    10.0   .     S
Er13     Ti30    10.0   .     S
Er13     V15    10.0   1_554     S
Er13     V14    10.0   .     S
V14     V15    9.999   1_554     S
V14     Ce45    10.0   .     S
V15     Er13    10.0   1_556     S
V15     V14    9.999   1_556     S
Er16     Ti28    10.0   .     S
Er16     V18    10.0   1_545     S
Er16     V17    10.0   .     S
V17     V18    9.999   1_545     S
V17     Ce41    10.0   .     S
V18     Er16    10.0   1_565     S
V18     V17    9.999   1_565     S
Er19     Ti29    10.0   .     S
Er19     V20    10.0   .     S
Er19     V21    10.0   1_455     S
V20     V21    9.999   1_455     S
V20     Ce37    10.0   .     S
V21     Er19    10.0   1_655     S
V21     V20    9.999   1_655     S
Er22     Ti33    10.0   .     S
Er22     V23    10.0   .     S
Er22     V24    10.0   1_545     S
V23     V24    9.999   1_545     S
V23     Ce42    10.0   .     S
V24     Er22    10.0   1_565     S
V24     V23    9.999   1_565     S
Er25     Ti32    10.0   .     S
Er25     V26    10.0   .     S
Er25     V27    10.0   1_455     S
V26     V27    9.999   1_455     S
V26     Ce38    10.0   .     S
V27     Er25    10.0   1_655     S
V27     V26    9.999   1_655     S
Ti28     Ti32    10.0   1_655     S
Ti28     Ti31    10.0   1_655     S
Ti28     Ti29    10.0   1_654     S
Ti28     Ti30    10.0   1_645     S
Ti29     Ti31    10.0   1_556     S
Ti29     Ti33    10.0   1_556     S
Ti29     Ti30    10.0   1_546     S
Ti29     Ti28    10.0   1_456     S
Ti30     Ti32    10.0   1_565     S
Ti30     Ti33    10.0   1_565     S
Ti30     Ti29    10.0   1_564     S
Ti30     Ti28    10.0   1_465     S
Ti31     Ti28    10.0   1_455     S
Ti31     Ti29    10.0   1_554     S
Ti31     Ti32    10.0   .     S
Ti31     Ti33    10.0   .     S
Ti31     Er34    10.0   .     S
Ti32     Ti28    10.0   1_455     S
Ti32     Ti30    10.0   1_545     S
Ti32     Ti33    10.0   .     S
Ti33     Ti29    10.0   1_554     S
Ti33     Ti30    10.0   1_545     S
Er34     V35    10.0   .     S
Er34     V36    10.0   1_554     S
V35     V36    9.999   1_554     S
V35     Ce46    10.0   .     S
V36     V35    9.999   1_556     S
V36     Er34    10.0   1_556     S
Ce37     Ce38    9.999   .     S
Ce37     Ce40    9.999   1_545     S
Ce37     Ce39    9.999   .     S
Ce38     Ce39    9.999   .     S
Ce38     Ce40    9.999   1_545     S
Ce39     Ce40    9.999   1_545     S
Ce39     V63    10.0   .     S
Ce40     Ce39    9.999   1_565     S
Ce40     Ce37    9.999   1_565     S
Ce40     Ce38    9.999   1_565     S
Ce40     V51    10.0   .     S
Ce41     Ce42    9.999   .     S
Ce41     Ce44    9.999   1_554     S
Ce41     Ce43    9.999   .     S
Ce42     Ce44    9.999   1_554     S
Ce42     Ce43    9.999   .     S
Ce43     Ce44    9.999   1_554     S
Ce43     V72    10.0   .     S
Ce44     Ce43    9.999   1_556     S
Ce44     Ce41    9.999   1_556     S
Ce44     Ce42    9.999   1_556     S
Ce44     V54    10.0   .     S
Ce45     Ce46    9.999   .     S
Ce45     Ce48    9.999   1_455     S
Ce45     Ce47    9.999   .     S
Ce46     Ce47    9.999   .     S
Ce46     Ce48    9.999   1_455     S
Ce47     Ce48    9.999   1_455     S
Ce47     V60    10.0   .     S
Ce48     Ce46    9.999   1_655     S
Ce48     Ce45    9.999   1_655     S
Ce48     Ce47    9.999   1_655     S
Ce48     V57    10.0   .     S
Er49     Ti64    10.0   .     S
Er49     V51    10.0   .     S
Er49     V50    10.0   .     S
V50     V51    9.999   .     S
Er52     Ti65    10.0   .     S
Er52     V53    10.0   .     S
Er52     V54    10.0   .     S
V53     V54    9.999   .     S
Er55     Ti66    10.0   .     S
Er55     V57    10.0   .     S
Er55     V56    10.0   .     S
V56     V57    9.999   .     S
Er58     Ti69    10.0   .     S
Er58     V60    10.0   .     S
Er58     V59    10.0   .     S
V59     V60    9.999   .     S
Er61     Ti68    10.0   .     S
Er61     V62    10.0   .     S
Er61     V63    10.0   .     S
V62     V63    9.999   .     S
Ti64     Ti67    10.0   .     S
Ti64     Ti69    10.0   .     S
Ti64     Ti65    10.0   .     S
Ti64     Ti66    10.0   .     S
Ti65     Ti69    10.0   .     S
Ti65     Ti68    10.0   .     S
Ti65     Ti66    10.0   .     S
Ti66     Ti67    10.0   .     S
Ti66     Ti68    10.0   .     S
Ti67     Ti69    10.0   .     S
Ti67     Ti68    10.0   .     S
Ti67     Er70    10.0   .     S
Ti68     Ti69    10.0   .     S
Er70     V71    10.0   .     S
Er70     V72    10.0   .     S
V71     V72    9.999   .     S
