data_gat
_audit_creation_date              2020-02-02
_audit_creation_method            'Pymatgen'
_symmetry_space_group_name_H-M    'P1'
_symmetry_Int_Tables_number       1
loop_
_symmetry_equiv_pos_as_xyz
  x,y,z
_cell_length_a                    59.8665
_cell_length_b                    59.8665
_cell_length_c                    59.8665
_cell_angle_alpha                 90.0
_cell_angle_beta                 90.0
_cell_angle_gamma                 90.0
loop_
_atom_site_label
_atom_site_type_symbol
_atom_site_fract_x
_atom_site_fract_y
_atom_site_fract_z
Er1     Er     0.75   0.375   0.5
Er2     Er     0.125   0.0   0.75
Er3     Er     0.0   0.75   0.125
Er4     Er     0.375   0.5   0.75
Er5     Er     0.375   0.0   0.25
Er6     Er     0.5   0.75   0.375
Er7     Er     0.25   0.875   0.0
Er8     Er     0.0   0.75   0.625
Er9     Er     0.5   0.75   0.875
Er10     Er     0.625   0.0   0.75
Er11     Er     0.5   0.25   0.625
Er12     Er     0.625   0.5   0.25
Er13     Er     0.75   0.625   0.0
Er14     Er     0.875   0.0   0.25
Er15     Er     0.75   0.125   0.0
Er16     Er     0.0   0.25   0.875
Er17     Er     0.25   0.375   0.0
Er18     Er     0.0   0.25   0.375
Er19     Er     0.125   0.5   0.25
Er20     Er     0.25   0.125   0.5
Er21     Er     0.5   0.25   0.125
Er22     Er     0.875   0.5   0.75
Er23     Er     0.75   0.875   0.5
Er24     Er     0.25   0.625   0.5
Ti25     Ti     0.5447   0.5893   0.1339
Ti26     Ti     0.6607   0.7053   0.1161
Ti27     Ti     0.1339   0.5446   0.5893
Ti28     Ti     0.1161   0.6607   0.7053
Ti29     Ti     0.7053   0.1161   0.6607
Ti30     Ti     0.5893   0.1339   0.5447
Ti31     Ti     0.1339   0.4554   0.9107
Ti32     Ti     0.1161   0.3393   0.7946
Ti33     Ti     0.9107   0.1339   0.4554
Ti34     Ti     0.7946   0.1161   0.3393
Ti35     Ti     0.6607   0.7946   0.6161
Ti36     Ti     0.5447   0.9107   0.6339
Ti37     Ti     0.6161   0.6607   0.7946
Ti38     Ti     0.6339   0.5447   0.9107
Ti39     Ti     0.7946   0.6161   0.6607
Ti40     Ti     0.9107   0.6339   0.5447
V41     V     0.75   0.75   0.75
Ti42     Ti     0.9554   0.5893   0.8661
Ti43     Ti     0.8393   0.7053   0.8839
Ti44     Ti     0.8661   0.9554   0.5893
Ti45     Ti     0.8839   0.8393   0.7053
Ti46     Ti     0.5893   0.8661   0.9554
Ti47     Ti     0.7053   0.8839   0.8393
Ti48     Ti     0.1607   0.7054   0.3839
Ti49     Ti     0.0447   0.5893   0.3661
Ti50     Ti     0.7054   0.3839   0.1607
Ti51     Ti     0.5893   0.3661   0.0447
Ti52     Ti     0.8661   0.5447   0.0893
Ti53     Ti     0.8839   0.6607   0.2054
Ti54     Ti     0.9554   0.0893   0.1339
Ti55     Ti     0.8393   0.2054   0.1161
Ti56     Ti     0.5447   0.0893   0.8661
Ti57     Ti     0.6607   0.2054   0.8839
Ti58     Ti     0.0893   0.1339   0.9554
Ti59     Ti     0.2054   0.1161   0.8393
Ti60     Ti     0.3839   0.1607   0.7053
Ti61     Ti     0.3661   0.0447   0.5893
Ti62     Ti     0.7946   0.3839   0.8393
Ti63     Ti     0.9107   0.3661   0.9554
Ti64     Ti     0.8839   0.1607   0.7946
Ti65     Ti     0.8661   0.0446   0.9107
Ti66     Ti     0.6339   0.4554   0.5893
Ti67     Ti     0.6161   0.3393   0.7054
V68     V     0.75   0.25   0.75
Ti69     Ti     0.8393   0.7946   0.3839
Ti70     Ti     0.9554   0.9107   0.3661
Ti71     Ti     0.7946   0.8839   0.1607
Ti72     Ti     0.9107   0.8661   0.0446
Ti73     Ti     0.5893   0.6339   0.4554
Ti74     Ti     0.7054   0.6161   0.3393
V75     V     0.75   0.75   0.25
Ti76     Ti     0.6607   0.2947   0.3839
Ti77     Ti     0.5446   0.4107   0.3661
Ti78     Ti     0.3839   0.6607   0.2947
Ti79     Ti     0.3661   0.5446   0.4107
Ti80     Ti     0.2947   0.3839   0.6607
Ti81     Ti     0.4107   0.3661   0.5446
V82     V     0.5   0.5   0.5
Ti83     Ti     0.2947   0.1161   0.1607
Ti84     Ti     0.4107   0.1339   0.0447
V85     V     0.5   0.0   0.0
Ti86     Ti     0.6161   0.1607   0.2054
Ti87     Ti     0.6339   0.0446   0.0893
Ti88     Ti     0.8661   0.4554   0.4107
Ti89     Ti     0.8839   0.3393   0.2947
V90     V     0.75   0.25   0.25
Ti91     Ti     0.1607   0.2947   0.1161
Ti92     Ti     0.0447   0.4107   0.1339
Ti93     Ti     0.1161   0.1607   0.2947
Ti94     Ti     0.1339   0.0447   0.4107
V95     V     0.0   0.5   0.0
Ti96     Ti     0.0893   0.8661   0.5446
Ti97     Ti     0.2054   0.8839   0.6607
V98     V     0.0   0.0   0.5
Ti99     Ti     0.0893   0.6339   0.0446
Ti100     Ti     0.2054   0.6161   0.1607
Ti101     Ti     0.4554   0.9107   0.1339
Ti102     Ti     0.3393   0.7946   0.1161
Ti103     Ti     0.8393   0.2947   0.6161
Ti104     Ti     0.9554   0.4107   0.6339
Ti105     Ti     0.1607   0.2054   0.6161
Ti106     Ti     0.0446   0.0893   0.6339
Ti107     Ti     0.6161   0.8393   0.2947
Ti108     Ti     0.6339   0.9554   0.4107
V109     V     0.25   0.25   0.75
V110     V     0.0   0.5   0.5
Ti111     Ti     0.4107   0.8661   0.4554
Ti112     Ti     0.2947   0.8839   0.3393
V113     V     0.25   0.75   0.25
V114     V     0.5   0.0   0.5
Ti115     Ti     0.4554   0.0893   0.3661
Ti116     Ti     0.3393   0.2054   0.3839
Ti117     Ti     0.0893   0.3661   0.4554
Ti118     Ti     0.2054   0.3839   0.3393
V119     V     0.25   0.25   0.25
Ti120     Ti     0.3661   0.4554   0.0893
Ti121     Ti     0.3839   0.3393   0.2054
Ti122     Ti     0.4554   0.4107   0.8661
Ti123     Ti     0.3393   0.2947   0.8839
Ti124     Ti     0.2947   0.6161   0.8393
Ti125     Ti     0.4107   0.6339   0.9554
V126     V     0.5   0.5   0.0
Ti127     Ti     0.3839   0.8393   0.7946
Ti128     Ti     0.3661   0.9554   0.9107
Ti129     Ti     0.4554   0.5893   0.6339
Ti130     Ti     0.3393   0.7053   0.6161
Ti131     Ti     0.0446   0.9107   0.8661
Ti132     Ti     0.1607   0.7946   0.8839
V133     V     0.25   0.75   0.75
Ti134     Ti     0.1339   0.9554   0.0893
Ti135     Ti     0.1161   0.8393   0.2054
V136     V     0.0   0.0   0.0
Ce137     Ce     0.5   0.75   0.625
Ce138     Ce     0.125   0.0   0.25
Ce139     Ce     0.375   0.0   0.75
Ce140     Ce     0.75   0.375   0.0
Ce141     Ce     0.875   0.5   0.25
Ce142     Ce     0.625   0.5   0.75
Ce143     Ce     0.0   0.75   0.875
Ce144     Ce     0.5   0.75   0.125
Ce145     Ce     0.875   0.0   0.75
Ce146     Ce     0.0   0.25   0.125
Ce147     Ce     0.0   0.75   0.375
Ce148     Ce     0.5   0.25   0.875
Ce149     Ce     0.25   0.875   0.5
Ce150     Ce     0.25   0.125   0.0
Ce151     Ce     0.75   0.625   0.5
Ce152     Ce     0.0   0.25   0.625
Ce153     Ce     0.5   0.25   0.375
Ce154     Ce     0.75   0.125   0.5
Ce155     Ce     0.625   0.0   0.25
Ce156     Ce     0.75   0.875   0.0
Ce157     Ce     0.25   0.625   0.0
Ce158     Ce     0.125   0.5   0.75
Ce159     Ce     0.25   0.375   0.5
Ce160     Ce     0.375   0.5   0.25
loop_
_geom_bond_atom_site_label_1
_geom_bond_atom_site_label_2
_geom_bond_distance
_geom_bond_site_symmetry_2
_ccdc_geom_bond_type
Er1     Ti76    10.0   .     S
Er1     Ti66    10.0   .     S
Er1     Ti103    10.0   .     S
Er1     Ti88    10.0   .     S
Er2     Ti97    10.0   1_545     S
Er2     Ti131    10.0   1_545     S
Er2     Ti106    10.0   .     S
Er2     Ti59    10.0   .     S
Er3     Ti135    10.0   .     S
Er3     Ti72    10.0   1_455     S
Er3     Ti53    10.0   1_455     S
Er3     Ti99    10.0   .     S
Er4     Ti129    10.0   .     S
Er4     Ti124    10.0   .     S
Er4     Ti80    10.0   .     S
Er4     Ti122    10.0   .     S
Er5     Ti112    10.0   1_545     S
Er5     Ti83    10.0   .     S
Er5     Ti115    10.0   .     S
Er5     Ti101    10.0   1_545     S
Er6     Ti107    10.0   .     S
Er6     Ti73    10.0   .     S
Er6     Ti78    10.0   .     S
Er6     Ti111    10.0   .     S
Er7     Ti128    10.0   1_554     S
Er7     Ti134    10.0   .     S
Er7     Ti132    10.0   1_554     S
Er7     Ti102    10.0   .     S
Er8     Ti40    10.0   1_455     S
Er8     Ti96    10.0   .     S
Er8     Ti45    10.0   1_455     S
Er8     Ti28    10.0   .     S
Er9     Ti46    10.0   .     S
Er9     Ti125    10.0   .     S
Er9     Ti127    10.0   .     S
Er9     Ti37    10.0   .     S
Er10     Ti36    10.0   1_545     S
Er10     Ti56    10.0   .     S
Er10     Ti47    10.0   1_545     S
Er10     Ti29    10.0   .     S
Er11     Ti30    10.0   .     S
Er11     Ti81    10.0   .     S
Er11     Ti60    10.0   .     S
Er11     Ti67    10.0   .     S
Er12     Ti25    10.0   .     S
Er12     Ti77    10.0   .     S
Er12     Ti50    10.0   .     S
Er12     Ti74    10.0   .     S
Er13     Ti38    10.0   1_554     S
Er13     Ti52    10.0   .     S
Er13     Ti43    10.0   1_554     S
Er13     Ti26    10.0   .     S
Er14     Ti54    10.0   .     S
Er14     Ti71    10.0   1_545     S
Er14     Ti70    10.0   1_545     S
Er14     Ti34    10.0   .     S
Er15     Ti57    10.0   1_554     S
Er15     Ti65    10.0   1_554     S
Er15     Ti87    10.0   .     S
Er15     Ti55    10.0   .     S
Er16     Ti58    10.0   .     S
Er16     Ti64    10.0   1_455     S
Er16     Ti63    10.0   1_455     S
Er16     Ti32    10.0   .     S
Er17     Ti91    10.0   .     S
Er17     Ti120    10.0   .     S
Er17     Ti123    10.0   1_554     S
Er17     Ti31    10.0   1_554     S
Er18     Ti93    10.0   .     S
Er18     Ti33    10.0   1_455     S
Er18     Ti117    10.0   .     S
Er18     Ti89    10.0   1_455     S
Er19     Ti49    10.0   .     S
Er19     Ti100    10.0   .     S
Er19     Ti118    10.0   .     S
Er19     Ti92    10.0   .     S
Er20     Ti61    10.0   .     S
Er20     Ti105    10.0   .     S
Er20     Ti116    10.0   .     S
Er20     Ti94    10.0   .     S
Er21     Ti86    10.0   .     S
Er21     Ti121    10.0   .     S
Er21     Ti84    10.0   .     S
Er21     Ti51    10.0   .     S
Er22     Ti42    10.0   .     S
Er22     Ti104    10.0   .     S
Er22     Ti39    10.0   .     S
Er22     Ti62    10.0   .     S
Er23     Ti44    10.0   .     S
Er23     Ti108    10.0   .     S
Er23     Ti69    10.0   .     S
Er23     Ti35    10.0   .     S
Er24     Ti27    10.0   .     S
Er24     Ti79    10.0   .     S
Er24     Ti48    10.0   .     S
Er24     Ti130    10.0   .     S
Ti25     Ce144    10.0   .     S
Ti25     V126    10.0   .     S
Ti26     Ce144    10.0   .     S
Ti26     V75    10.0   .     S
Ti27     Ce158    10.0   .     S
Ti27     V110    10.0   .     S
Ti28     Ce158    10.0   .     S
Ti28     V133    10.0   .     S
Ti29     Ce154    10.0   .     S
Ti29     V68    10.0   .     S
Ti30     Ce154    10.0   .     S
Ti30     V114    10.0   .     S
Ti31     Er17    10.0   1_556     S
Ti31     Ce158    10.0   .     S
Ti31     V95    10.0   1_556     S
Ti32     Ce158    10.0   .     S
Ti32     V109    10.0   .     S
Ti33     Er18    10.0   1_655     S
Ti33     Ce154    10.0   .     S
Ti33     V98    10.0   1_655     S
Ti34     Ce154    10.0   .     S
Ti34     V90    10.0   .     S
Ti35     Ce137    10.0   .     S
Ti35     V41    10.0   .     S
Ti36     Er10    10.0   1_565     S
Ti36     Ce137    10.0   .     S
Ti36     V114    10.0   1_565     S
Ti37     Ce142    10.0   .     S
Ti37     V41    10.0   .     S
Ti38     Er13    10.0   1_556     S
Ti38     Ce142    10.0   .     S
Ti38     V126    10.0   1_556     S
Ti39     Ce151    10.0   .     S
Ti39     V41    10.0   .     S
Ti40     Er8    10.0   1_655     S
Ti40     Ce151    10.0   .     S
Ti40     V110    10.0   1_655     S
V41     Ti43    10.0   .     S
V41     Ti45    10.0   .     S
V41     Ti47    10.0   .     S
Ti42     Ce143    10.0   1_655     S
Ti42     V95    10.0   1_656     S
Ti43     Er13    10.0   1_556     S
Ti43     Ce143    10.0   1_655     S
Ti44     Ce145    10.0   1_565     S
Ti44     V98    10.0   1_665     S
Ti45     Er8    10.0   1_655     S
Ti45     Ce145    10.0   1_565     S
Ti46     Ce156    10.0   1_556     S
Ti46     V85    10.0   1_566     S
Ti47     Er10    10.0   1_565     S
Ti47     Ce156    10.0   1_556     S
Ti48     Ce147    10.0   .     S
Ti48     V113    10.0   .     S
Ti49     Ce147    10.0   .     S
Ti49     V110    10.0   .     S
Ti50     Ce140    10.0   .     S
Ti50     V90    10.0   .     S
Ti51     Ce140    10.0   .     S
Ti51     V126    10.0   .     S
Ti52     Ce141    10.0   .     S
Ti52     V95    10.0   1_655     S
Ti53     Er3    10.0   1_655     S
Ti53     Ce141    10.0   .     S
Ti53     V75    10.0   .     S
Ti54     Ce146    10.0   1_655     S
Ti54     V136    10.0   1_655     S
Ti55     Ce146    10.0   1_655     S
Ti55     V90    10.0   .     S
Ti56     Ce148    10.0   .     S
Ti56     V85    10.0   1_556     S
Ti57     Er15    10.0   1_556     S
Ti57     Ce148    10.0   .     S
Ti57     V68    10.0   .     S
Ti58     Ce150    10.0   1_556     S
Ti58     V136    10.0   1_556     S
Ti59     Ce150    10.0   1_556     S
Ti59     V109    10.0   .     S
Ti60     Ce139    10.0   .     S
Ti60     V109    10.0   .     S
Ti61     Ce139    10.0   .     S
Ti61     V114    10.0   .     S
Ti62     Ce140    10.0   1_556     S
Ti62     V68    10.0   .     S
Ti63     Er16    10.0   1_655     S
Ti63     Ce140    10.0   1_556     S
Ti63     V95    10.0   1_656     S
Ti64     Er16    10.0   1_655     S
Ti64     Ce145    10.0   .     S
Ti64     V68    10.0   .     S
Ti65     Er15    10.0   1_556     S
Ti65     Ce145    10.0   .     S
Ti65     V136    10.0   1_656     S
Ti66     Ce142    10.0   .     S
Ti66     V82    10.0   .     S
Ti67     Ce142    10.0   .     S
Ti67     V68    10.0   .     S
V68     Ti103    10.0   .     S
Ti69     Ce147    10.0   1_655     S
Ti69     V75    10.0   .     S
Ti70     Er14    10.0   1_565     S
Ti70     Ce147    10.0   1_655     S
Ti70     V98    10.0   1_665     S
Ti71     Er14    10.0   1_565     S
Ti71     Ce156    10.0   .     S
Ti71     V75    10.0   .     S
Ti72     Er3    10.0   1_655     S
Ti72     Ce156    10.0   .     S
Ti72     V136    10.0   1_665     S
Ti73     Ce151    10.0   .     S
Ti73     V82    10.0   .     S
Ti74     Ce151    10.0   .     S
Ti74     V75    10.0   .     S
V75     Ti107    10.0   .     S
Ti76     Ce153    10.0   .     S
Ti76     V90    10.0   .     S
Ti77     Ce153    10.0   .     S
Ti77     V82    10.0   .     S
Ti78     Ce160    10.0   .     S
Ti78     V113    10.0   .     S
Ti79     Ce160    10.0   .     S
Ti79     V82    10.0   .     S
Ti80     Ce159    10.0   .     S
Ti80     V109    10.0   .     S
Ti81     Ce159    10.0   .     S
Ti81     V82    10.0   .     S
V82     Ti129    10.0   .     S
Ti83     Ce150    10.0   .     S
Ti83     V119    10.0   .     S
Ti84     Ce150    10.0   .     S
Ti84     V85    10.0   .     S
V85     Ti101    10.0   1_545     S
V85     Ti128    10.0   1_544     S
V85     Ti46    10.0   1_544     S
V85     Ti56    10.0   1_554     S
V85     Ti87    10.0   .     S
Ti86     Ce155    10.0   .     S
Ti86     V90    10.0   .     S
Ti87     Ce155    10.0   .     S
Ti88     Ce141    10.0   .     S
Ti88     V110    10.0   1_655     S
Ti89     Er18    10.0   1_655     S
Ti89     Ce141    10.0   .     S
Ti89     V90    10.0   .     S
Ti91     Ce146    10.0   .     S
Ti91     V119    10.0   .     S
Ti92     Ce146    10.0   .     S
Ti92     V95    10.0   .     S
Ti93     Ce138    10.0   .     S
Ti93     V119    10.0   .     S
Ti94     Ce138    10.0   .     S
Ti94     V98    10.0   .     S
V95     Ti31    10.0   1_554     S
V95     Ti63    10.0   1_454     S
V95     Ti42    10.0   1_454     S
V95     Ti99    10.0   .     S
V95     Ti52    10.0   1_455     S
Ti96     Ce149    10.0   .     S
Ti96     V98    10.0   1_565     S
Ti97     Er2    10.0   1_565     S
Ti97     Ce149    10.0   .     S
Ti97     V133    10.0   .     S
V98     Ti33    10.0   1_455     S
V98     Ti70    10.0   1_445     S
V98     Ti44    10.0   1_445     S
V98     Ti96    10.0   1_545     S
V98     Ti106    10.0   .     S
Ti99     Ce157    10.0   .     S
Ti100     Ce157    10.0   .     S
Ti100     V113    10.0   .     S
Ti101     Er5    10.0   1_565     S
Ti101     V85    10.0   1_565     S
Ti101     Ce144    10.0   .     S
Ti102     Ce144    10.0   .     S
Ti102     V113    10.0   .     S
Ti103     Ce152    10.0   1_655     S
Ti104     Ce152    10.0   1_655     S
Ti104     V110    10.0   1_655     S
Ti105     Ce152    10.0   .     S
Ti105     V109    10.0   .     S
Ti106     Ce152    10.0   .     S
Ti107     Ce155    10.0   1_565     S
Ti108     Ce155    10.0   1_565     S
Ti108     V114    10.0   1_565     S
V109     Ti123    10.0   .     S
V110     Ti117    10.0   .     S
V110     Ti40    10.0   1_455     S
V110     Ti104    10.0   1_455     S
V110     Ti88    10.0   1_455     S
Ti111     Ce149    10.0   .     S
Ti111     V114    10.0   1_565     S
Ti112     Er5    10.0   1_565     S
Ti112     Ce149    10.0   .     S
Ti112     V113    10.0   .     S
V113     Ti135    10.0   .     S
V114     Ti115    10.0   .     S
V114     Ti36    10.0   1_545     S
V114     Ti108    10.0   1_545     S
V114     Ti111    10.0   1_545     S
Ti115     Ce153    10.0   .     S
Ti116     Ce153    10.0   .     S
Ti116     V119    10.0   .     S
Ti117     Ce159    10.0   .     S
Ti118     Ce159    10.0   .     S
Ti118     V119    10.0   .     S
V119     Ti121    10.0   .     S
Ti120     Ce160    10.0   .     S
Ti120     V126    10.0   .     S
Ti121     Ce160    10.0   .     S
Ti122     Ce148    10.0   .     S
Ti122     V126    10.0   1_556     S
Ti123     Er17    10.0   1_556     S
Ti123     Ce148    10.0   .     S
Ti124     Ce157    10.0   1_556     S
Ti124     V133    10.0   .     S
Ti125     Ce157    10.0   1_556     S
Ti125     V126    10.0   1_556     S
V126     Ti38    10.0   1_554     S
V126     Ti125    10.0   1_554     S
V126     Ti122    10.0   1_554     S
Ti127     Ce139    10.0   1_565     S
Ti127     V133    10.0   .     S
Ti128     Er7    10.0   1_556     S
Ti128     V85    10.0   1_566     S
Ti128     Ce139    10.0   1_565     S
Ti129     Ce137    10.0   .     S
Ti130     Ce137    10.0   .     S
Ti130     V133    10.0   .     S
Ti131     Er2    10.0   1_565     S
Ti131     Ce143    10.0   .     S
Ti131     V136    10.0   1_566     S
Ti132     Er7    10.0   1_556     S
Ti132     Ce143    10.0   .     S
Ti132     V133    10.0   .     S
Ti134     Ce138    10.0   1_565     S
Ti134     V136    10.0   1_565     S
Ti135     Ce138    10.0   1_565     S
V136     Ti54    10.0   1_455     S
V136     Ti58    10.0   1_554     S
V136     Ti134    10.0   1_545     S
V136     Ti131    10.0   1_544     S
V136     Ti65    10.0   1_454     S
V136     Ti72    10.0   1_445     S
Ce138     Ti135    10.0   1_545     S
Ce138     Ti134    10.0   1_545     S
Ce139     Ti127    10.0   1_545     S
Ce139     Ti128    10.0   1_545     S
Ce140     Ti62    10.0   1_554     S
Ce140     Ti63    10.0   1_554     S
Ce143     Ti43    10.0   1_455     S
Ce143     Ti42    10.0   1_455     S
Ce145     Ti45    10.0   1_545     S
Ce145     Ti44    10.0   1_545     S
Ce146     Ti54    10.0   1_455     S
Ce146     Ti55    10.0   1_455     S
Ce147     Ti70    10.0   1_455     S
Ce147     Ti69    10.0   1_455     S
Ce150     Ti58    10.0   1_554     S
Ce150     Ti59    10.0   1_554     S
Ce152     Ti103    10.0   1_455     S
Ce152     Ti104    10.0   1_455     S
Ce155     Ti107    10.0   1_545     S
Ce155     Ti108    10.0   1_545     S
Ce156     Ti46    10.0   1_554     S
Ce156     Ti47    10.0   1_554     S
Ce157     Ti125    10.0   1_554     S
Ce157     Ti124    10.0   1_554     S
