data_gcc
_audit_creation_date              2020-02-02
_audit_creation_method            'Pymatgen'
_symmetry_space_group_name_H-M    'P1'
_symmetry_Int_Tables_number       1
loop_
_symmetry_equiv_pos_as_xyz
  x,y,z
_cell_length_a                    57.7282
_cell_length_b                    57.7282
_cell_length_c                    21.9884
_cell_angle_alpha                 90.0
_cell_angle_beta                 90.0
_cell_angle_gamma                 120.0
loop_
_atom_site_label
_atom_site_type_symbol
_atom_site_fract_x
_atom_site_fract_y
_atom_site_fract_z
Er1     Er     0.5866   0.5866   0.7274
Er2     Er     0.4134   0.4134   0.7274
Er3     Er     0.5866   0.5866   0.2726
Er4     Er     0.4134   0.4134   0.2726
V5     V     0.3333   0.8399   0.0
V6     V     0.5066   0.8399   0.0
V7     V     0.5066   0.6667   0.0
V8     V     0.3333   0.4934   0.0
V9     V     0.1601   0.6667   0.0
V10     V     0.1601   0.4934   0.0
Er11     Er     0.5866   0.0   0.7274
Er12     Er     0.4134   0.0   0.7274
Er13     Er     0.5866   0.0   0.2726
Er14     Er     0.4134   0.0   0.2726
V15     V     0.8399   0.5066   0.0
V16     V     0.8399   0.3333   0.0
V17     V     0.4934   0.3333   0.0
V18     V     0.6667   0.5066   0.0
V19     V     0.6667   0.1601   0.0
V20     V     0.4934   0.1601   0.0
Er21     Er     0.0   0.5866   0.7274
Er22     Er     0.0   0.4134   0.7274
Er23     Er     0.0   0.5866   0.2726
Er24     Er     0.0   0.4134   0.2726
loop_
_geom_bond_atom_site_label_1
_geom_bond_atom_site_label_2
_geom_bond_distance
_geom_bond_site_symmetry_2
_ccdc_geom_bond_type
Er1     V18    10.0   1_556     S
Er1     V7    10.0   1_556     S
Er1     Er2    10.0   .     S
Er1     Er3    10.0   .     S
Er2     V8    10.0   1_556     S
Er2     V17    10.0   1_556     S
Er2     Er4    10.0   .     S
Er3     V18    10.0   .     S
Er3     V7    10.0   .     S
Er3     Er4    10.0   .     S
Er4     V8    10.0   .     S
Er4     V17    10.0   .     S
V5     V6    10.0   .     S
V5     V9    10.0   .     S
V5     Er12    10.0   1_564     S
V5     Er14    10.0   1_565     S
V6     V7    10.0   .     S
V6     Er11    10.0   1_564     S
V6     Er13    10.0   1_565     S
V7     Er1    10.0   1_554     S
V7     V8    10.0   .     S
V8     Er2    10.0   1_554     S
V8     V10    10.0   .     S
V9     V10    10.0   .     S
V9     Er21    10.0   1_554     S
V9     Er23    10.0   .     S
V10     Er22    10.0   1_554     S
V10     Er24    10.0   .     S
Er11     V6    10.0   1_546     S
Er11     V19    10.0   1_556     S
Er11     Er12    10.0   .     S
Er11     Er13    10.0   .     S
Er12     V5    10.0   1_546     S
Er12     V20    10.0   1_556     S
Er12     Er14    10.0   .     S
Er13     V6    10.0   1_545     S
Er13     V19    10.0   .     S
Er13     Er14    10.0   .     S
Er14     V5    10.0   1_545     S
Er14     V20    10.0   .     S
V15     V16    10.0   .     S
V15     V18    10.0   .     S
V15     Er21    10.0   1_654     S
V15     Er23    10.0   1_655     S
V16     V19    10.0   .     S
V16     Er22    10.0   1_654     S
V16     Er24    10.0   1_655     S
V17     Er2    10.0   1_554     S
V17     V18    10.0   .     S
V17     V20    10.0   .     S
V18     Er1    10.0   1_554     S
V19     Er11    10.0   1_554     S
V19     V20    10.0   .     S
V20     Er12    10.0   1_554     S
Er21     V15    10.0   1_456     S
Er21     V9    10.0   1_556     S
Er21     Er22    10.0   .     S
Er21     Er23    10.0   .     S
Er22     V16    10.0   1_456     S
Er22     V10    10.0   1_556     S
Er22     Er24    10.0   .     S
Er23     V15    10.0   1_455     S
Er23     Er24    10.0   .     S
Er24     V16    10.0   1_455     S
