data_gea
_audit_creation_date              2020-02-02
_audit_creation_method            'Pymatgen'
_symmetry_space_group_name_H-M    'P1'
_symmetry_Int_Tables_number       1
loop_
_symmetry_equiv_pos_as_xyz
  x,y,z
_cell_length_a                    18.4101
_cell_length_b                    18.4101
_cell_length_c                    25.7037
_cell_angle_alpha                 90.0
_cell_angle_beta                 90.0
_cell_angle_gamma                 120.0
loop_
_atom_site_label
_atom_site_type_symbol
_atom_site_fract_x
_atom_site_fract_y
_atom_site_fract_z
V1     V     0.6667   0.3333   0.25
Er2     Er     0.5735   0.7867   0.1094
Er3     Er     0.5735   0.7867   0.3906
Er4     Er     0.2133   0.4265   0.1094
Er5     Er     0.2133   0.7867   0.1094
Er6     Er     0.2133   0.7867   0.3906
Er7     Er     0.2133   0.4265   0.3906
V8     V     0.3333   0.6667   0.75
Er9     Er     0.7867   0.5735   0.6094
Er10     Er     0.7867   0.2133   0.6094
Er11     Er     0.4265   0.2133   0.6094
Er12     Er     0.7867   0.5735   0.8906
Er13     Er     0.4265   0.2133   0.8906
Er14     Er     0.7867   0.2133   0.8906
loop_
_geom_bond_atom_site_label_1
_geom_bond_atom_site_label_2
_geom_bond_distance
_geom_bond_site_symmetry_2
_ccdc_geom_bond_type
V1     Er2    10.0   1_545     S
V1     Er5    10.0   1_545     S
V1     Er6    10.0   1_545     S
V1     Er3    10.0   1_545     S
V1     Er4    10.0   .     S
V1     Er2    10.0   .     S
V1     Er3    10.0   .     S
V1     Er7    10.0   .     S
V1     Er12    10.0   1_554     S
V1     Er14    10.0   1_554     S
V1     Er13    10.0   1_554     S
V1     Er10    10.0   .     S
V1     Er9    10.0   .     S
V1     Er11    10.0   .     S
V1     Er7    10.0   1_655     S
V1     Er6    10.0   1_655     S
V1     Er5    10.0   1_655     S
V1     Er4    10.0   1_655     S
Er2     V1    10.0   1_565     S
Er2     V8    10.0   1_554     S
Er3     V1    10.0   1_565     S
Er3     V8    10.0   .     S
Er4     V1    10.0   1_455     S
Er4     V8    10.0   1_554     S
Er5     V1    10.0   1_565     S
Er5     V1    10.0   1_455     S
Er5     V8    10.0   1_554     S
Er6     V1    10.0   1_565     S
Er6     V1    10.0   1_455     S
Er6     V8    10.0   .     S
Er7     V1    10.0   1_455     S
Er7     V8    10.0   .     S
V8     Er4    10.0   1_556     S
V8     Er5    10.0   1_556     S
V8     Er2    10.0   1_556     S
V8     Er11    10.0   1_565     S
V8     Er10    10.0   1_565     S
V8     Er14    10.0   1_565     S
V8     Er13    10.0   1_565     S
V8     Er9    10.0   .     S
V8     Er11    10.0   .     S
V8     Er13    10.0   .     S
V8     Er12    10.0   .     S
V8     Er10    10.0   1_455     S
V8     Er9    10.0   1_455     S
V8     Er12    10.0   1_455     S
V8     Er14    10.0   1_455     S
Er9     V8    10.0   1_655     S
Er10     V8    10.0   1_545     S
Er10     V8    10.0   1_655     S
Er11     V8    10.0   1_545     S
Er12     V1    10.0   1_556     S
Er12     V8    10.0   1_655     S
Er13     V1    10.0   1_556     S
Er13     V8    10.0   1_545     S
Er14     V1    10.0   1_556     S
Er14     V8    10.0   1_545     S
Er14     V8    10.0   1_655     S
