data_geaa
_audit_creation_date              2020-02-02
_audit_creation_method            'Pymatgen'
_symmetry_space_group_name_H-M    'P1'
_symmetry_Int_Tables_number       1
loop_
_symmetry_equiv_pos_as_xyz
  x,y,z
_cell_length_a                    48.757
_cell_length_b                    48.757
_cell_length_c                    77.3558
_cell_angle_alpha                 90.0
_cell_angle_beta                 90.0
_cell_angle_gamma                 120.0
loop_
_atom_site_label
_atom_site_type_symbol
_atom_site_fract_x
_atom_site_fract_y
_atom_site_fract_z
Ti1     Ti     0.4701   0.735   0.5798
Ti2     Ti     0.265   0.735   0.5798
Ti3     Ti     0.265   0.5299   0.5798
Ce4     Ce     0.2194   0.7806   0.4605
Ce5     Ce     0.5612   0.7806   0.4605
Ce6     Ce     0.2194   0.4388   0.4605
Er7     Er     0.8718   0.5384   0.3146
Er8     Er     0.8718   0.3333   0.3146
Er9     Er     0.6667   0.5384   0.3146
Er10     Er     0.4616   0.3333   0.3146
Er11     Er     0.4616   0.1282   0.3146
Er12     Er     0.6667   0.1282   0.3146
V13     V     0.285   0.9201   0.3561
V14     V     0.285   0.3648   0.3561
V15     V     0.6352   0.9201   0.3561
V16     V     0.0799   0.3648   0.3561
V17     V     0.6352   0.715   0.3561
V18     V     0.0799   0.715   0.3561
Er19     Er     0.1282   0.6667   0.6854
Er20     Er     0.3333   0.8718   0.6854
V21     V     0.9201   0.6352   0.6439
V22     V     0.3648   0.0799   0.6439
Er23     Er     0.1282   0.4616   0.6854
Er24     Er     0.5384   0.8718   0.6854
Er25     Er     0.3333   0.4616   0.6854
Er26     Er     0.5384   0.6667   0.6854
V27     V     0.3648   0.285   0.6439
V28     V     0.715   0.0799   0.6439
V29     V     0.9201   0.285   0.6439
V30     V     0.715   0.6352   0.6439
Ti31     Ti     0.735   0.4701   0.4202
Ti32     Ti     0.5299   0.265   0.4202
Ti33     Ti     0.735   0.265   0.4202
Ce34     Ce     0.4388   0.2194   0.5395
Ce35     Ce     0.7806   0.2194   0.5395
Ce36     Ce     0.7806   0.5612   0.5395
Ti37     Ti     0.4701   0.735   0.9202
Ce38     Ce     0.5612   0.7806   0.0395
Ti39     Ti     0.265   0.735   0.9202
Ti40     Ti     0.265   0.5299   0.9202
Ce41     Ce     0.2194   0.7806   0.0395
Ce42     Ce     0.2194   0.4388   0.0395
Er43     Er     0.6667   0.1282   0.1854
Er44     Er     0.8718   0.3333   0.1854
V45     V     0.6352   0.9201   0.1439
V46     V     0.0799   0.3648   0.1439
Er47     Er     0.6667   0.5384   0.1854
Er48     Er     0.4616   0.3333   0.1854
Er49     Er     0.8718   0.5384   0.1854
Er50     Er     0.4616   0.1282   0.1854
V51     V     0.285   0.3648   0.1439
V52     V     0.285   0.9201   0.1439
V53     V     0.6352   0.715   0.1439
V54     V     0.0799   0.715   0.1439
Ti55     Ti     0.735   0.265   0.0798
Ti56     Ti     0.5299   0.265   0.0798
Ce57     Ce     0.4388   0.2194   0.9605
Ce58     Ce     0.7806   0.2194   0.9605
Ti59     Ti     0.735   0.4701   0.0798
Ce60     Ce     0.7806   0.5612   0.9605
Er61     Er     0.1282   0.6667   0.8146
Er62     Er     0.3333   0.8718   0.8146
V63     V     0.9201   0.6352   0.8561
V64     V     0.3648   0.0799   0.8561
Er65     Er     0.1282   0.4616   0.8146
Er66     Er     0.5384   0.8718   0.8146
Er67     Er     0.3333   0.4616   0.8146
Er68     Er     0.5384   0.6667   0.8146
V69     V     0.3648   0.285   0.8561
V70     V     0.715   0.0799   0.8561
V71     V     0.9201   0.285   0.8561
V72     V     0.715   0.6352   0.8561
loop_
_geom_bond_atom_site_label_1
_geom_bond_atom_site_label_2
_geom_bond_distance
_geom_bond_site_symmetry_2
_ccdc_geom_bond_type
Ti1     Ce5    9.999   .     S
Ti1     Ti2    10.0   .     S
Ti1     Ti3    10.0   .     S
Ti1     Er24    10.0   .     S
Ti1     Er26    10.0   .     S
Ti2     Ce4    9.999   .     S
Ti2     Ti3    10.0   .     S
Ti2     Er19    10.0   .     S
Ti2     Er20    10.0   .     S
Ti3     Ce6    9.999   .     S
Ti3     Er23    10.0   .     S
Ti3     Er25    10.0   .     S
Ce4     V18    10.0   .     S
Ce4     V13    10.0   .     S
Ce5     V15    10.0   .     S
Ce5     V17    10.0   .     S
Ce6     V14    10.0   .     S
Ce6     V16    10.0   .     S
Er7     Er8    10.0   .     S
Er7     V18    10.0   1_655     S
Er7     Er9    10.001   .     S
Er7     Ti31    10.0   .     S
Er7     Er49    10.001   .     S
Er8     Er12    10.001   .     S
Er8     Ti33    10.0   .     S
Er8     V16    10.0   1_655     S
Er8     Er44    10.001   .     S
Er9     Ti31    10.0   .     S
Er9     Er10    10.0   .     S
Er9     V17    10.0   .     S
Er9     Er47    10.001   .     S
Er10     V14    10.0   .     S
Er10     Er11    10.001   .     S
Er10     Ti32    10.0   .     S
Er10     Er48    10.001   .     S
Er11     Ti32    10.0   .     S
Er11     Er12    10.0   .     S
Er11     V13    10.0   1_545     S
Er11     Er50    10.001   .     S
Er12     Ti33    10.0   .     S
Er12     V15    10.0   1_545     S
Er12     Er43    10.001   .     S
V13     Er11    10.0   1_565     S
V13     V18    10.0   .     S
V14     V16    10.0   .     S
V15     Er12    10.0   1_565     S
V15     V17    10.0   .     S
V16     Er8    10.0   1_455     S
V18     Er7    10.0   1_455     S
Er19     V21    10.0   1_455     S
Er19     Er20    10.001   .     S
Er19     Er23    10.0   .     S
Er19     Er61    10.001   .     S
Er20     Er24    10.0   .     S
Er20     V22    10.0   1_565     S
Er20     Er62    10.001   .     S
V21     Ce36    10.0   .     S
V21     Er19    10.0   1_655     S
V21     V30    10.0   .     S
V22     Ce34    10.0   .     S
V22     Er20    10.0   1_545     S
V22     V27    10.0   .     S
Er23     V29    10.0   1_455     S
Er23     Er25    10.001   .     S
Er23     Er65    10.001   .     S
Er24     V28    10.0   1_565     S
Er24     Er26    10.001   .     S
Er24     Er66    10.001   .     S
Er25     Er26    10.0   .     S
Er25     V27    10.0   .     S
Er25     Er67    10.001   .     S
Er26     V30    10.0   .     S
Er26     Er68    10.001   .     S
V27     Ce34    10.0   .     S
V28     Er24    10.0   1_545     S
V28     V29    10.0   .     S
V28     Ce35    10.0   .     S
V29     Er23    10.0   1_655     S
V29     Ce35    10.0   .     S
V30     Ce36    10.0   .     S
Ti31     Ce36    9.999   .     S
Ti31     Ti33    10.0   .     S
Ti31     Ti32    10.0   .     S
Ti32     Ce34    9.999   .     S
Ti32     Ti33    10.0   .     S
Ti33     Ce35    9.999   .     S
Ti37     Ce38    9.999   1_556     S
Ti37     Ti40    10.0   .     S
Ti37     Ti39    10.0   .     S
Ti37     Er66    10.0   .     S
Ti37     Er68    10.0   .     S
Ce38     Ti37    9.999   1_554     S
Ce38     V53    10.0   .     S
Ce38     V45    10.0   .     S
Ti39     Ce41    9.999   1_556     S
Ti39     Ti40    10.0   .     S
Ti39     Er61    10.0   .     S
Ti39     Er62    10.0   .     S
Ti40     Ce42    9.999   1_556     S
Ti40     Er65    10.0   .     S
Ti40     Er67    10.0   .     S
Ce41     V52    10.0   .     S
Ce41     V54    10.0   .     S
Ce41     Ti39    9.999   1_554     S
Ce42     V46    10.0   .     S
Ce42     V51    10.0   .     S
Ce42     Ti40    9.999   1_554     S
Er43     Er50    10.0   .     S
Er43     V45    10.0   1_545     S
Er43     Er44    10.001   .     S
Er43     Ti55    10.0   .     S
Er44     Ti55    10.0   .     S
Er44     V46    10.0   1_655     S
Er44     Er49    10.0   .     S
V45     Er43    10.0   1_565     S
V45     V53    10.0   .     S
V46     Er44    10.0   1_455     S
V46     V51    10.0   .     S
Er47     Er48    10.0   .     S
Er47     V53    10.0   .     S
Er47     Er49    10.001   .     S
Er47     Ti59    10.0   .     S
Er48     V51    10.0   .     S
Er48     Er50    10.001   .     S
Er48     Ti56    10.0   .     S
Er49     Ti59    10.0   .     S
Er49     V54    10.0   1_655     S
Er50     V52    10.0   1_545     S
Er50     Ti56    10.0   .     S
V52     Er50    10.0   1_565     S
V52     V54    10.0   .     S
V54     Er49    10.0   1_455     S
Ti55     Ce58    9.999   1_554     S
Ti55     Ti59    10.0   .     S
Ti55     Ti56    10.0   .     S
Ti56     Ti59    10.0   .     S
Ti56     Ce57    9.999   1_554     S
Ce57     Ti56    9.999   1_556     S
Ce57     V64    10.0   .     S
Ce57     V69    10.0   .     S
Ce58     Ti55    9.999   1_556     S
Ce58     V71    10.0   .     S
Ce58     V70    10.0   .     S
Ti59     Ce60    9.999   1_554     S
Ce60     Ti59    9.999   1_556     S
Ce60     V72    10.0   .     S
Ce60     V63    10.0   .     S
Er61     Er65    10.0   .     S
Er61     V63    10.0   1_455     S
Er61     Er62    10.001   .     S
Er62     V64    10.0   1_565     S
Er62     Er66    10.0   .     S
V63     Er61    10.0   1_655     S
V63     V72    10.0   .     S
V64     Er62    10.0   1_545     S
V64     V69    10.0   .     S
Er65     Er67    10.001   .     S
Er65     V71    10.0   1_455     S
Er66     V70    10.0   1_565     S
Er66     Er68    10.001   .     S
Er67     Er68    10.0   .     S
Er67     V69    10.0   .     S
Er68     V72    10.0   .     S
V70     Er66    10.0   1_545     S
V70     V71    10.0   .     S
V71     Er65    10.0   1_655     S
