data_geoa
_audit_creation_date              2020-02-02
_audit_creation_method            'Pymatgen'
_symmetry_space_group_name_H-M    'P1'
_symmetry_Int_Tables_number       1
loop_
_symmetry_equiv_pos_as_xyz
  x,y,z
_cell_length_a                    84.8725
_cell_length_b                    84.8725
_cell_length_c                    84.8725
_cell_angle_alpha                 90.0
_cell_angle_beta                 90.0
_cell_angle_gamma                 90.0
loop_
_atom_site_label
_atom_site_type_symbol
_atom_site_fract_x
_atom_site_fract_y
_atom_site_fract_z
H1     H     0.1746   0.0   0.708
H2     H     0.1746   0.0   0.292
H3     H     0.8254   0.0   0.708
H4     H     0.8254   0.0   0.292
Er5     Er     0.7207   0.0574   0.0
Er6     Er     0.7207   0.9426   0.0
V7     V     0.726   0.0   0.1027
V8     V     0.726   0.0   0.8973
S9     S     0.7319   0.0   0.2204
He10     He     0.7166   0.0   0.3372
S11     S     0.7319   0.0   0.7796
He12     He     0.7166   0.0   0.6627
Ti13     Ti     0.6609   0.0   0.5589
Ti14     Ti     0.6609   0.0   0.4411
Ce15     Ce     0.5589   0.0   0.5
Ce16     Ce     0.4411   0.0   0.5
Er17     Er     0.2793   0.0574   0.0
Er18     Er     0.2793   0.9426   0.0
V19     V     0.274   0.0   0.1027
V20     V     0.274   0.0   0.8973
S21     S     0.2681   0.0   0.2204
He22     He     0.2834   0.0   0.3372
S23     S     0.2681   0.0   0.7796
He24     He     0.2834   0.0   0.6627
Ti25     Ti     0.339   0.0   0.5589
Ti26     Ti     0.339   0.0   0.4411
H27     H     0.0   0.708   0.1746
H28     H     0.0   0.292   0.1746
H29     H     0.0   0.708   0.8254
H30     H     0.0   0.292   0.8254
Er31     Er     0.0574   0.0   0.7207
Er32     Er     0.9426   0.0   0.7207
V33     V     0.0   0.1027   0.726
V34     V     0.0   0.8973   0.726
S35     S     0.0   0.2204   0.7319
He36     He     0.0   0.3372   0.7166
S37     S     0.0   0.7796   0.7319
He38     He     0.0   0.6627   0.7166
Ti39     Ti     0.0   0.4411   0.6609
Ti40     Ti     0.0   0.5589   0.6609
Ce41     Ce     0.0   0.5   0.4411
Ce42     Ce     0.0   0.5   0.5589
S43     S     0.0   0.2204   0.2681
He44     He     0.0   0.3372   0.2834
S45     S     0.0   0.7796   0.2681
He46     He     0.0   0.6627   0.2834
Ti47     Ti     0.0   0.5589   0.339
Ti48     Ti     0.0   0.4411   0.339
Er49     Er     0.0574   0.0   0.2793
Er50     Er     0.9426   0.0   0.2793
V51     V     0.0   0.1027   0.274
V52     V     0.0   0.8973   0.274
H53     H     0.708   0.1746   0.0
H54     H     0.292   0.1746   0.0
H55     H     0.708   0.8254   0.0
H56     H     0.292   0.8254   0.0
Er57     Er     0.0   0.7207   0.0574
Er58     Er     0.0   0.7207   0.9426
V59     V     0.1027   0.726   0.0
V60     V     0.8973   0.726   0.0
S61     S     0.2204   0.7319   0.0
He62     He     0.3372   0.7166   0.0
S63     S     0.7796   0.7319   0.0
He64     He     0.6627   0.7166   0.0
Ti65     Ti     0.5589   0.6609   0.0
Ti66     Ti     0.4411   0.6609   0.0
Ce67     Ce     0.5   0.5589   0.0
Ce68     Ce     0.5   0.4411   0.0
Er69     Er     0.0   0.2793   0.0574
Er70     Er     0.0   0.2793   0.9426
V71     V     0.1027   0.274   0.0
V72     V     0.8973   0.274   0.0
S73     S     0.2204   0.2681   0.0
He74     He     0.3372   0.2834   0.0
S75     S     0.7796   0.2681   0.0
He76     He     0.6627   0.2834   0.0
Ti77     Ti     0.5589   0.339   0.0
Ti78     Ti     0.4411   0.339   0.0
loop_
_geom_bond_atom_site_label_1
_geom_bond_atom_site_label_2
_geom_bond_distance
_geom_bond_site_symmetry_2
_ccdc_geom_bond_type
H1     Er31    10.0   .     S
H1     S23    10.0   .     S
H1     He24    10.0   .     S
H2     Er49    10.0   .     S
H2     S21    10.0   .     S
H2     He22    10.0   .     S
H3     Er32    10.0   .     S
H3     S11    10.0   .     S
H3     He12    10.0   .     S
H4     Er50    10.0   .     S
H4     S9    10.0   .     S
H4     He10    10.0   .     S
Er5     V7    10.0   .     S
Er5     V8    10.0   1_554     S
Er5     H53    10.0   .     S
Er6     V7    10.0   1_565     S
Er6     V8    10.0   1_564     S
Er6     H55    10.0   .     S
V7     Er6    10.0   1_545     S
V7     S9    10.0   .     S
V8     Er5    10.0   1_556     S
V8     Er6    10.0   1_546     S
V8     S11    10.0   .     S
S9     He10    10.0   .     S
He10     Ti14    10.0   .     S
S11     He12    10.0   .     S
He12     Ti13    10.0   .     S
Ti13     Ce15    10.0   .     S
Ti13     Ti14    10.0   .     S
Ti14     Ce15    10.0   .     S
Ce15     Ce16    10.0   .     S
Ce16     Ti25    10.0   .     S
Ce16     Ti26    10.0   .     S
Er17     V19    10.0   .     S
Er17     V20    10.0   1_554     S
Er17     H54    10.0   .     S
Er18     V19    10.0   1_565     S
Er18     V20    10.0   1_564     S
Er18     H56    10.0   .     S
V19     Er18    10.0   1_545     S
V19     S21    10.0   .     S
V20     Er18    10.0   1_546     S
V20     Er17    10.0   1_556     S
V20     S23    10.0   .     S
S21     He22    10.0   .     S
He22     Ti26    10.0   .     S
S23     He24    10.0   .     S
He24     Ti25    10.0   .     S
Ti25     Ti26    10.0   .     S
H27     Er57    10.0   .     S
H27     S45    10.0   .     S
H27     He46    10.0   .     S
H28     Er69    10.0   .     S
H28     S43    10.0   .     S
H28     He44    10.0   .     S
H29     Er58    10.0   .     S
H29     S37    10.0   .     S
H29     He38    10.0   .     S
H30     Er70    10.0   .     S
H30     S35    10.0   .     S
H30     He36    10.0   .     S
Er31     V33    10.0   .     S
Er31     V34    10.0   1_545     S
Er32     V33    10.0   1_655     S
Er32     V34    10.0   1_645     S
V33     Er32    10.0   1_455     S
V33     S35    10.0   .     S
V34     Er31    10.0   1_565     S
V34     Er32    10.0   1_465     S
V34     S37    10.0   .     S
S35     He36    10.0   .     S
He36     Ti39    10.0   .     S
S37     He38    10.0   .     S
He38     Ti40    10.0   .     S
Ti39     Ce42    10.0   .     S
Ti39     Ti40    10.0   .     S
Ti40     Ce42    10.0   .     S
Ce41     Ce42    10.0   .     S
Ce41     Ti47    10.0   .     S
Ce41     Ti48    10.0   .     S
S43     He44    10.0   .     S
S43     V51    10.0   .     S
He44     Ti48    10.0   .     S
S45     He46    10.0   .     S
S45     V52    10.0   .     S
He46     Ti47    10.0   .     S
Ti47     Ti48    10.0   .     S
Er49     V51    10.0   .     S
Er49     V52    10.0   1_545     S
Er50     V51    10.0   1_655     S
Er50     V52    10.0   1_645     S
V51     Er50    10.0   1_455     S
V52     Er50    10.0   1_465     S
V52     Er49    10.0   1_565     S
H53     S75    10.0   .     S
H53     He76    10.0   .     S
H54     S73    10.0   .     S
H54     He74    10.0   .     S
H55     S63    10.0   .     S
H55     He64    10.0   .     S
H56     S61    10.0   .     S
H56     He62    10.0   .     S
Er57     V59    10.0   .     S
Er57     V60    10.0   1_455     S
Er58     V59    10.0   1_556     S
Er58     V60    10.0   1_456     S
V59     Er58    10.0   1_554     S
V59     S61    10.0   .     S
V60     Er57    10.0   1_655     S
V60     Er58    10.0   1_654     S
V60     S63    10.0   .     S
S61     He62    10.0   .     S
He62     Ti66    10.0   .     S
S63     He64    10.0   .     S
He64     Ti65    10.0   .     S
Ti65     Ce67    10.0   .     S
Ti65     Ti66    10.0   .     S
Ti66     Ce67    10.0   .     S
Ce67     Ce68    10.0   .     S
Ce68     Ti77    10.0   .     S
Ce68     Ti78    10.0   .     S
Er69     V71    10.0   .     S
Er69     V72    10.0   1_455     S
Er70     V71    10.0   1_556     S
Er70     V72    10.0   1_456     S
V71     Er70    10.0   1_554     S
V71     S73    10.0   .     S
V72     Er70    10.0   1_654     S
V72     Er69    10.0   1_655     S
V72     S75    10.0   .     S
S73     He74    10.0   .     S
He74     Ti78    10.0   .     S
S75     He76    10.0   .     S
He76     Ti77    10.0   .     S
Ti77     Ti78    10.0   .     S
