data_geza
_audit_creation_date              2020-02-02
_audit_creation_method            'Pymatgen'
_symmetry_space_group_name_H-M    'P1'
_symmetry_Int_Tables_number       1
loop_
_symmetry_equiv_pos_as_xyz
  x,y,z
_cell_length_a                    48.9576
_cell_length_b                    48.9576
_cell_length_c                    115.0371
_cell_angle_alpha                 90.0
_cell_angle_beta                 90.0
_cell_angle_gamma                 120.0
loop_
_atom_site_label
_atom_site_type_symbol
_atom_site_fract_x
_atom_site_fract_y
_atom_site_fract_z
Ce1     Ce     0.7348   0.2652   0.4478
Ce2     Ce     0.7348   0.4695   0.4478
Ce3     Ce     0.5305   0.2652   0.4478
Ce4     Ce     0.8028   0.4014   0.2189
Ce5     Ce     0.5986   0.1972   0.2189
Ce6     Ce     0.5986   0.4014   0.2189
V7     V     0.0802   0.7156   0.402
V8     V     0.2844   0.9198   0.402
Er9     Er     0.2216   0.7784   0.4715
V10     V     0.2532   0.9511   0.2647
V11     V     0.0489   0.7468   0.2647
Er12     Er     0.1118   0.8882   0.1952
V13     V     0.0802   0.3646   0.402
V14     V     0.2844   0.3646   0.402
Er15     Er     0.2216   0.4431   0.4715
V16     V     0.6354   0.7156   0.402
V17     V     0.6354   0.9198   0.402
Er18     Er     0.5569   0.7784   0.4715
V19     V     0.2532   0.3021   0.2647
V20     V     0.0489   0.3021   0.2647
Er21     Er     0.1118   0.2235   0.1952
V22     V     0.6979   0.9511   0.2647
V23     V     0.6979   0.7468   0.2647
Er24     Er     0.7765   0.8882   0.1952
Ti25     Ti     0.8709   0.5376   0.3768
Ti26     Ti     0.8709   0.5376   0.2899
Ti27     Ti     0.8709   0.3333   0.3768
Ti28     Ti     0.8709   0.3333   0.2899
Ti29     Ti     0.6667   0.5376   0.3768
Ti30     Ti     0.6667   0.5376   0.2899
Ti31     Ti     0.4624   0.3333   0.3768
Ti32     Ti     0.4624   0.3333   0.2899
Ti33     Ti     0.4624   0.1291   0.3768
Ti34     Ti     0.4624   0.1291   0.2899
Ti35     Ti     0.6667   0.1291   0.3768
Ti36     Ti     0.6667   0.1291   0.2899
Ce37     Ce     0.0681   0.9319   0.1144
Ce38     Ce     0.8638   0.9319   0.1144
Ce39     Ce     0.0681   0.1362   0.1144
Ce40     Ce     0.9319   0.0681   0.8856
Ce41     Ce     0.1362   0.0681   0.8856
Ce42     Ce     0.9319   0.8638   0.8856
V43     V     0.3822   0.4135   0.9313
V44     V     0.5865   0.6178   0.9313
Er45     Er     0.4451   0.5549   0.8619
V46     V     0.4135   0.3822   0.0687
V47     V     0.6178   0.5865   0.0687
Er48     Er     0.5549   0.4451   0.1381
V49     V     0.6178   0.0313   0.0687
Er50     Er     0.5549   0.1098   0.1381
V51     V     0.4135   0.0313   0.0687
V52     V     0.0313   0.6178   0.9313
Er53     Er     0.1098   0.5549   0.8619
V54     V     0.0313   0.4135   0.9313
V55     V     0.3822   0.9687   0.9313
V56     V     0.5865   0.9687   0.9313
Er57     Er     0.4451   0.8902   0.8619
V58     V     0.9687   0.5865   0.0687
V59     V     0.9687   0.3822   0.0687
Er60     Er     0.8902   0.4451   0.1381
Ti61     Ti     0.7957   0.0   0.0435
Ti62     Ti     0.7957   0.0   0.9565
Ti63     Ti     0.7957   0.7957   0.0435
Ti64     Ti     0.7957   0.7957   0.9565
Ti65     Ti     0.0   0.7957   0.0435
Ti66     Ti     0.0   0.7957   0.9565
Ti67     Ti     0.0   0.2043   0.0435
Ti68     Ti     0.0   0.2043   0.9565
Ti69     Ti     0.2043   0.2043   0.0435
Ti70     Ti     0.2043   0.2043   0.9565
Ti71     Ti     0.2043   0.0   0.0435
Ti72     Ti     0.2043   0.0   0.9565
Ce73     Ce     0.4014   0.8028   0.7811
Ce74     Ce     0.1972   0.5986   0.7811
Ce75     Ce     0.4014   0.5986   0.7811
Ce76     Ce     0.2652   0.7348   0.5522
Ce77     Ce     0.4695   0.7348   0.5522
Ce78     Ce     0.2652   0.5305   0.5522
V79     V     0.9198   0.2844   0.598
V80     V     0.7156   0.0802   0.598
Er81     Er     0.7784   0.2216   0.5285
V82     V     0.9511   0.2532   0.7353
V83     V     0.7468   0.0489   0.7353
Er84     Er     0.8882   0.1118   0.8048
V85     V     0.9198   0.6354   0.598
V86     V     0.7156   0.6354   0.598
Er87     Er     0.7784   0.5569   0.5285
V88     V     0.3646   0.0802   0.598
V89     V     0.3646   0.2844   0.598
Er90     Er     0.4431   0.2216   0.5285
V91     V     0.9511   0.6979   0.7353
V92     V     0.7468   0.6979   0.7353
Er93     Er     0.8882   0.7765   0.8048
V94     V     0.3021   0.2532   0.7353
V95     V     0.3021   0.0489   0.7353
Er96     Er     0.2235   0.1118   0.8048
Ti97     Ti     0.5376   0.8709   0.6232
Ti98     Ti     0.5376   0.8709   0.7101
Ti99     Ti     0.3333   0.8709   0.6232
Ti100     Ti     0.3333   0.8709   0.7101
Ti101     Ti     0.5376   0.6667   0.6232
Ti102     Ti     0.5376   0.6667   0.7101
Ti103     Ti     0.3333   0.4624   0.6232
Ti104     Ti     0.3333   0.4624   0.7101
Ti105     Ti     0.1291   0.4624   0.6232
Ti106     Ti     0.1291   0.4624   0.7101
Ti107     Ti     0.1291   0.6667   0.6232
Ti108     Ti     0.1291   0.6667   0.7101
loop_
_geom_bond_atom_site_label_1
_geom_bond_atom_site_label_2
_geom_bond_distance
_geom_bond_site_symmetry_2
_ccdc_geom_bond_type
Ce1     Er81    10.0   .     S
Ce1     Ce2    10.0   .     S
Ce1     Ce3    10.0   .     S
Ce1     Ti27    10.0   .     S
Ce1     Ti35    10.0   .     S
Ce2     Er87    10.0   .     S
Ce2     Ce3    10.0   .     S
Ce2     Ti25    10.0   .     S
Ce2     Ti29    10.0   .     S
Ce3     Er90    10.0   .     S
Ce3     Ti33    10.0   .     S
Ce3     Ti31    10.0   .     S
Ce4     Er60    10.0   .     S
Ce4     Ce5    10.0   .     S
Ce4     Ce6    10.0   .     S
Ce4     Ti26    10.0   .     S
Ce4     Ti28    10.0   .     S
Ce5     Ce6    10.0   .     S
Ce5     Er50    10.0   .     S
Ce5     Ti36    10.0   .     S
Ce5     Ti34    10.0   .     S
Ce6     Er48    10.0   .     S
Ce6     Ti30    10.0   .     S
Ce6     Ti32    10.0   .     S
V7     V8    10.0   .     S
V7     Er9    10.0   .     S
V7     Ti25    10.0   1_455     S
V8     Er9    10.0   .     S
V8     Ti33    10.0   1_565     S
Er9     Ce76    10.0   .     S
V10     V11    10.0   .     S
V10     Er12    10.0   .     S
V10     Ti34    10.0   1_565     S
V11     Er12    10.0   .     S
V11     Ti26    10.0   1_455     S
Er12     Ce37    10.0   .     S
V13     V14    10.0   .     S
V13     Er15    10.0   .     S
V13     Ti27    10.0   1_455     S
V14     Er15    10.0   .     S
V14     Ti31    10.0   .     S
Er15     Ce78    10.0   .     S
V16     V17    10.0   .     S
V16     Er18    10.0   .     S
V16     Ti29    10.0   .     S
V17     Er18    10.0   .     S
V17     Ti35    10.0   1_565     S
Er18     Ce77    10.0   .     S
V19     V20    10.0   .     S
V19     Er21    10.0   .     S
V19     Ti32    10.0   .     S
V20     Er21    10.0   .     S
V20     Ti28    10.0   1_455     S
Er21     Ce39    10.0   .     S
V22     V23    10.0   .     S
V22     Er24    10.0   .     S
V22     Ti36    10.0   1_565     S
V23     Er24    10.0   .     S
V23     Ti30    10.0   .     S
Er24     Ce38    10.0   .     S
Ti25     Ti26    9.999   .     S
Ti25     Ti29    10.0   .     S
Ti25     Ti27    10.0   .     S
Ti25     V7    10.0   1_655     S
Ti26     Ti30    10.0   .     S
Ti26     Ti28    10.0   .     S
Ti26     V11    10.0   1_655     S
Ti27     Ti28    9.999   .     S
Ti27     Ti35    10.0   .     S
Ti27     V13    10.0   1_655     S
Ti28     Ti36    10.0   .     S
Ti28     V20    10.0   1_655     S
Ti29     Ti30    9.999   .     S
Ti29     Ti31    10.0   .     S
Ti30     Ti32    10.0   .     S
Ti31     Ti32    9.999   .     S
Ti31     Ti33    10.0   .     S
Ti32     Ti34    10.0   .     S
Ti33     Ti34    9.999   .     S
Ti33     Ti35    10.0   .     S
Ti33     V8    10.0   1_545     S
Ti34     Ti36    10.0   .     S
Ti34     V10    10.0   1_545     S
Ti35     Ti36    9.999   .     S
Ti35     V17    10.0   1_545     S
Ti36     V22    10.0   1_545     S
Ce37     Ce38    10.0   1_455     S
Ce37     Ce39    10.0   1_565     S
Ce37     Ti65    10.0   .     S
Ce37     Ti71    10.0   1_565     S
Ce38     Ce37    10.0   1_655     S
Ce38     Ce39    10.0   1_665     S
Ce38     Ti61    10.0   1_565     S
Ce38     Ti63    10.0   .     S
Ce39     Ce37    10.0   1_545     S
Ce39     Ce38    10.0   1_445     S
Ce39     Ti69    10.0   .     S
Ce39     Ti67    10.0   .     S
Ce40     Er84    10.0   .     S
Ce40     Ce42    10.0   1_545     S
Ce40     Ce41    10.0   1_655     S
Ce40     Ti68    10.0   1_655     S
Ce40     Ti62    10.0   .     S
Ce41     Ce40    10.0   1_455     S
Ce41     Er96    10.0   .     S
Ce41     Ce42    10.0   1_445     S
Ce41     Ti70    10.0   .     S
Ce41     Ti72    10.0   .     S
Ce42     Ce40    10.0   1_565     S
Ce42     Ce41    10.0   1_665     S
Ce42     Er93    10.0   .     S
Ce42     Ti66    10.0   1_655     S
Ce42     Ti64    10.0   .     S
V43     V44    10.0   .     S
V43     Er45    10.0   .     S
V43     Ti70    10.0   .     S
V44     Er45    10.0   .     S
V44     Ti64    10.0   .     S
Er45     Ce75    10.0   .     S
V46     V47    10.0   .     S
V46     Er48    10.0   .     S
V46     Ti69    10.0   .     S
V47     Er48    10.0   .     S
V47     Ti63    10.0   .     S
V49     V51    10.0   .     S
V49     Er50    10.0   .     S
V49     Ti61    10.0   .     S
Er50     V51    10.0   .     S
V51     Ti71    10.0   .     S
V52     V54    10.0   .     S
V52     Er53    10.0   .     S
V52     Ti66    10.0   .     S
Er53     V54    10.0   .     S
Er53     Ce74    10.0   .     S
V54     Ti68    10.0   .     S
V55     V56    10.0   .     S
V55     Er57    10.0   .     S
V55     Ti72    10.0   1_565     S
V56     Er57    10.0   .     S
V56     Ti62    10.0   1_565     S
Er57     Ce73    10.0   .     S
V58     V59    10.0   .     S
V58     Er60    10.0   .     S
V58     Ti65    10.0   1_655     S
V59     Er60    10.0   .     S
V59     Ti67    10.0   1_655     S
Ti61     Ce38    10.0   1_545     S
Ti61     Ti62    9.999   1_554     S
Ti61     Ti67    10.0   1_655     S
Ti61     Ti63    10.0   1_545     S
Ti62     Ti61    9.999   1_556     S
Ti62     Ti68    10.0   1_655     S
Ti62     Ti64    10.0   1_545     S
Ti62     V56    10.0   1_545     S
Ti63     Ti64    9.999   1_554     S
Ti63     Ti61    10.0   1_565     S
Ti63     Ti65    10.0   1_655     S
Ti64     Ti63    9.999   1_556     S
Ti64     Ti62    10.0   1_565     S
Ti64     Ti66    10.0   1_655     S
Ti65     Ti66    9.999   1_554     S
Ti65     Ti71    10.0   1_565     S
Ti65     Ti63    10.0   1_455     S
Ti65     V58    10.0   1_455     S
Ti66     Ce42    10.0   1_455     S
Ti66     Ti65    9.999   1_556     S
Ti66     Ti72    10.0   1_565     S
Ti66     Ti64    10.0   1_455     S
Ti67     Ti61    10.0   1_455     S
Ti67     Ti68    9.999   1_554     S
Ti67     Ti69    10.0   .     S
Ti67     V59    10.0   1_455     S
Ti68     Ce40    10.0   1_455     S
Ti68     Ti62    10.0   1_455     S
Ti68     Ti67    9.999   1_556     S
Ti68     Ti70    10.0   .     S
Ti69     Ti70    9.999   1_554     S
Ti69     Ti71    10.0   .     S
Ti70     Ti69    9.999   1_556     S
Ti70     Ti72    10.0   .     S
Ti71     Ce37    10.0   1_545     S
Ti71     Ti65    10.0   1_545     S
Ti71     Ti72    9.999   1_554     S
Ti72     Ti66    10.0   1_545     S
Ti72     Ti71    9.999   1_556     S
Ti72     V55    10.0   1_545     S
Ce73     Ce74    10.0   .     S
Ce73     Ce75    10.0   .     S
Ce73     Ti98    10.0   .     S
Ce73     Ti100    10.0   .     S
Ce74     Ce75    10.0   .     S
Ce74     Ti108    10.0   .     S
Ce74     Ti106    10.0   .     S
Ce75     Ti104    10.0   .     S
Ce75     Ti102    10.0   .     S
Ce76     Ce77    10.0   .     S
Ce76     Ce78    10.0   .     S
Ce76     Ti107    10.0   .     S
Ce76     Ti99    10.0   .     S
Ce77     Ce78    10.0   .     S
Ce77     Ti97    10.0   .     S
Ce77     Ti101    10.0   .     S
Ce78     Ti105    10.0   .     S
Ce78     Ti103    10.0   .     S
V79     V80    10.0   .     S
V79     Er81    10.0   .     S
V79     Ti105    10.0   1_655     S
V80     Er81    10.0   .     S
V80     Ti97    10.0   1_545     S
V82     V83    10.0   .     S
V82     Er84    10.0   .     S
V82     Ti106    10.0   1_655     S
V83     Er84    10.0   .     S
V83     Ti98    10.0   1_545     S
V85     V86    10.0   .     S
V85     Er87    10.0   .     S
V85     Ti107    10.0   1_655     S
V86     Er87    10.0   .     S
V86     Ti101    10.0   .     S
V88     V89    10.0   .     S
V88     Er90    10.0   .     S
V88     Ti99    10.0   1_545     S
V89     Er90    10.0   .     S
V89     Ti103    10.0   .     S
V91     V92    10.0   .     S
V91     Er93    10.0   .     S
V91     Ti108    10.0   1_655     S
V92     Er93    10.0   .     S
V92     Ti102    10.0   .     S
V94     V95    10.0   .     S
V94     Er96    10.0   .     S
V94     Ti104    10.0   .     S
V95     Er96    10.0   .     S
V95     Ti100    10.0   1_545     S
Ti97     Ti98    9.999   .     S
Ti97     Ti101    10.0   .     S
Ti97     Ti99    10.0   .     S
Ti97     V80    10.0   1_565     S
Ti98     Ti102    10.0   .     S
Ti98     Ti100    10.0   .     S
Ti98     V83    10.0   1_565     S
Ti99     Ti100    9.999   .     S
Ti99     Ti107    10.0   .     S
Ti99     V88    10.0   1_565     S
Ti100     Ti108    10.0   .     S
Ti100     V95    10.0   1_565     S
Ti101     Ti102    9.999   .     S
Ti101     Ti103    10.0   .     S
Ti102     Ti104    10.0   .     S
Ti103     Ti104    9.999   .     S
Ti103     Ti105    10.0   .     S
Ti104     Ti106    10.0   .     S
Ti105     Ti106    9.999   .     S
Ti105     Ti107    10.0   .     S
Ti105     V79    10.0   1_455     S
Ti106     Ti108    10.0   .     S
Ti106     V82    10.0   1_455     S
Ti107     Ti108    9.999   .     S
Ti107     V85    10.0   1_455     S
Ti108     V91    10.0   1_455     S
