data_gie
_audit_creation_date              2020-02-02
_audit_creation_method            'Pymatgen'
_symmetry_space_group_name_H-M    'P1'
_symmetry_Int_Tables_number       1
loop_
_symmetry_equiv_pos_as_xyz
  x,y,z
_cell_length_a                    58.6923
_cell_length_b                    58.6923
_cell_length_c                    58.6923
_cell_angle_alpha                 90.0
_cell_angle_beta                 90.0
_cell_angle_gamma                 90.0
loop_
_atom_site_label
_atom_site_type_symbol
_atom_site_fract_x
_atom_site_fract_y
_atom_site_fract_z
V1     V     0.7608   0.3493   0.3857
V2     V     0.6357   0.4007   0.4892
V3     V     0.7392   0.3493   0.6143
V4     V     0.8644   0.4007   0.5108
V5     V     0.3493   0.3856   0.7608
V6     V     0.4007   0.5108   0.8644
V7     V     0.4007   0.4892   0.6357
V8     V     0.3493   0.6143   0.7392
V9     V     0.4892   0.6357   0.4007
V10     V     0.6143   0.7392   0.3493
V11     V     0.5108   0.8644   0.4007
V12     V     0.3856   0.7608   0.3493
V13     V     0.1144   0.7392   0.1507
V14     V     0.9892   0.6357   0.0993
V15     V     0.8856   0.7608   0.1507
V16     V     0.0108   0.8644   0.0993
V17     V     0.3856   0.2608   0.6507
V18     V     0.4892   0.1356   0.5993
V19     V     0.6143   0.2392   0.6507
V20     V     0.5108   0.3644   0.5993
V21     V     0.3493   0.1144   0.2608
V22     V     0.4007   0.0108   0.1356
V23     V     0.3493   0.8856   0.2392
V24     V     0.4007   0.9892   0.3644
V25     V     0.3644   0.0993   0.4892
V26     V     0.2608   0.1507   0.6143
V27     V     0.1356   0.0993   0.5108
V28     V     0.2392   0.1507   0.3856
V29     V     0.7608   0.6507   0.1143
V30     V     0.8644   0.5993   0.9892
V31     V     0.7392   0.6507   0.8856
V32     V     0.6357   0.5993   0.0108
V33     V     0.1507   0.1144   0.7392
V34     V     0.0993   0.9892   0.6357
V35     V     0.1507   0.8856   0.7608
V36     V     0.0993   0.0108   0.8644
V37     V     0.3643   0.9007   0.0108
V38     V     0.2392   0.8493   0.1144
V39     V     0.2608   0.8493   0.8856
V40     V     0.1356   0.9007   0.9892
V41     V     0.3856   0.7392   0.8493
V42     V     0.5108   0.6357   0.9007
V43     V     0.4892   0.8644   0.9007
V44     V     0.6143   0.7608   0.8493
V45     V     0.7392   0.1507   0.1143
V46     V     0.8644   0.0993   0.0108
V47     V     0.7608   0.1507   0.8856
V48     V     0.6357   0.0993   0.9892
V49     V     0.5108   0.1356   0.0993
V50     V     0.3856   0.2392   0.1507
V51     V     0.6143   0.2608   0.1507
V52     V     0.4892   0.3644   0.0993
V53     V     0.6507   0.3856   0.2608
V54     V     0.5993   0.5108   0.3644
V55     V     0.5993   0.4892   0.1357
V56     V     0.6507   0.6143   0.2392
V57     V     0.1144   0.7608   0.6507
V58     V     0.9892   0.8644   0.5993
V59     V     0.8856   0.7392   0.6507
V60     V     0.0108   0.6357   0.5993
V61     V     0.2608   0.3493   0.1144
V62     V     0.1356   0.4007   0.0108
V63     V     0.2392   0.3493   0.8856
V64     V     0.3644   0.4007   0.9892
V65     V     0.0108   0.3644   0.9007
V66     V     0.1144   0.2392   0.8493
V67     V     0.8856   0.2608   0.8493
V68     V     0.9892   0.1356   0.9007
V69     V     0.8493   0.3857   0.7392
V70     V     0.9007   0.5108   0.6357
V71     V     0.9007   0.4892   0.8644
V72     V     0.8493   0.6143   0.7608
V73     V     0.1144   0.2608   0.3493
V74     V     0.0108   0.1356   0.4007
V75     V     0.8856   0.2392   0.3493
V76     V     0.9892   0.3644   0.4007
V77     V     0.0993   0.4892   0.3644
V78     V     0.1507   0.3856   0.2392
V79     V     0.1507   0.6143   0.2608
V80     V     0.0993   0.5108   0.1356
V81     V     0.2608   0.6507   0.3856
V82     V     0.1357   0.5993   0.4892
V83     V     0.2392   0.6507   0.6143
V84     V     0.3644   0.5993   0.5108
V85     V     0.6507   0.1143   0.7608
V86     V     0.5993   0.9892   0.8644
V87     V     0.6507   0.8856   0.7392
V88     V     0.5993   0.0108   0.6357
V89     V     0.9007   0.0108   0.3643
V90     V     0.8493   0.1144   0.2392
V91     V     0.8493   0.8856   0.2608
V92     V     0.9007   0.9892   0.1356
V93     V     0.7392   0.8493   0.3857
V94     V     0.6357   0.9007   0.5108
V95     V     0.8644   0.9007   0.4892
V96     V     0.7608   0.8493   0.6143
loop_
_geom_bond_atom_site_label_1
_geom_bond_atom_site_label_2
_geom_bond_distance
_geom_bond_site_symmetry_2
_ccdc_geom_bond_type
V1     V4    10.0   .     S
V1     V2    10.0   .     S
V1     V75    10.0   .     S
V1     V53    10.0   .     S
V2     V3    10.0   .     S
V2     V54    10.0   .     S
V2     V20    10.0   .     S
V3     V4    10.0   .     S
V3     V19    10.0   .     S
V3     V69    10.0   .     S
V4     V70    10.0   .     S
V4     V76    10.0   .     S
V5     V6    10.0   .     S
V5     V7    10.0   .     S
V5     V63    10.0   .     S
V5     V17    10.0   .     S
V6     V8    10.0   .     S
V6     V42    10.0   .     S
V6     V64    10.0   .     S
V7     V8    10.0   .     S
V7     V20    10.0   .     S
V7     V84    10.0   .     S
V8     V83    10.0   .     S
V8     V41    10.0   .     S
V9     V12    10.0   .     S
V9     V10    10.0   .     S
V9     V84    10.0   .     S
V9     V54    10.0   .     S
V10     V11    10.0   .     S
V10     V56    10.0   .     S
V10     V93    10.0   .     S
V11     V12    10.0   .     S
V11     V94    10.0   .     S
V11     V24    10.0   .     S
V12     V23    10.0   .     S
V12     V81    10.0   .     S
V13     V14    10.0   1_455     S
V13     V16    10.0   .     S
V13     V79    10.0   .     S
V13     V38    10.0   .     S
V14     V13    10.0   1_655     S
V14     V15    10.0   .     S
V14     V30    10.0   1_554     S
V14     V80    10.0   1_655     S
V15     V16    10.0   1_655     S
V15     V91    10.0   .     S
V15     V29    10.0   .     S
V16     V15    10.0   1_455     S
V16     V40    10.0   1_554     S
V16     V92    10.0   1_455     S
V17     V20    10.0   .     S
V17     V18    10.0   .     S
V17     V26    10.0   .     S
V18     V19    10.0   .     S
V18     V25    10.0   .     S
V18     V88    10.0   .     S
V19     V20    10.0   .     S
V19     V85    10.0   .     S
V21     V24    10.0   1_545     S
V21     V22    10.0   .     S
V21     V28    10.0   .     S
V21     V50    10.0   .     S
V22     V23    10.0   1_545     S
V22     V49    10.0   .     S
V22     V37    10.0   1_545     S
V23     V22    10.0   1_565     S
V23     V24    10.0   .     S
V23     V38    10.0   .     S
V24     V21    10.0   1_565     S
V24     V25    10.0   1_565     S
V25     V28    10.0   .     S
V25     V26    10.0   .     S
V25     V24    10.0   1_545     S
V26     V27    10.0   .     S
V26     V33    10.0   .     S
V27     V28    10.0   .     S
V27     V34    10.0   1_545     S
V27     V74    10.0   .     S
V28     V73    10.0   .     S
V29     V30    10.0   1_554     S
V29     V32    10.0   .     S
V29     V56    10.0   .     S
V30     V14    10.0   1_556     S
V30     V29    10.0   1_556     S
V30     V31    10.0   .     S
V30     V71    10.0   .     S
V31     V32    10.0   1_556     S
V31     V44    10.0   .     S
V31     V72    10.0   .     S
V32     V31    10.0   1_554     S
V32     V55    10.0   .     S
V32     V42    10.0   1_554     S
V33     V34    10.0   1_545     S
V33     V36    10.0   .     S
V33     V66    10.0   .     S
V34     V27    10.0   1_565     S
V34     V33    10.0   1_565     S
V34     V35    10.0   .     S
V34     V58    10.0   1_455     S
V35     V36    10.0   1_565     S
V35     V39    10.0   .     S
V35     V57    10.0   .     S
V36     V35    10.0   1_545     S
V36     V68    10.0   1_455     S
V36     V40    10.0   1_545     S
V37     V38    10.0   .     S
V37     V39    10.0   1_554     S
V37     V22    10.0   1_565     S
V37     V43    10.0   1_554     S
V38     V40    10.0   1_554     S
V39     V37    10.0   1_556     S
V39     V40    10.0   .     S
V39     V41    10.0   .     S
V40     V16    10.0   1_556     S
V40     V38    10.0   1_556     S
V40     V36    10.0   1_565     S
V41     V42    10.0   .     S
V41     V43    10.0   .     S
V42     V44    10.0   .     S
V42     V32    10.0   1_556     S
V43     V44    10.0   .     S
V43     V37    10.0   1_556     S
V43     V86    10.0   .     S
V44     V87    10.0   .     S
V45     V48    10.0   1_554     S
V45     V46    10.0   .     S
V45     V51    10.0   .     S
V45     V90    10.0   .     S
V46     V47    10.0   1_554     S
V46     V92    10.0   1_545     S
V46     V68    10.0   1_554     S
V47     V46    10.0   1_556     S
V47     V48    10.0   .     S
V47     V67    10.0   .     S
V47     V85    10.0   .     S
V48     V45    10.0   1_556     S
V48     V86    10.0   1_545     S
V48     V49    10.0   1_556     S
V49     V51    10.0   .     S
V49     V50    10.0   .     S
V49     V48    10.0   1_554     S
V50     V52    10.0   .     S
V50     V61    10.0   .     S
V51     V52    10.0   .     S
V51     V53    10.0   .     S
V52     V64    10.0   1_554     S
V52     V55    10.0   .     S
V53     V54    10.0   .     S
V53     V55    10.0   .     S
V54     V56    10.0   .     S
V55     V56    10.0   .     S
V57     V58    10.0   1_455     S
V57     V60    10.0   .     S
V57     V83    10.0   .     S
V58     V34    10.0   1_655     S
V58     V57    10.0   1_655     S
V58     V59    10.0   .     S
V58     V95    10.0   .     S
V59     V60    10.0   1_655     S
V59     V72    10.0   .     S
V59     V96    10.0   .     S
V60     V59    10.0   1_455     S
V60     V82    10.0   .     S
V60     V70    10.0   1_455     S
V61     V64    10.0   1_554     S
V61     V62    10.0   .     S
V61     V78    10.0   .     S
V62     V63    10.0   1_554     S
V62     V80    10.0   .     S
V62     V65    10.0   1_554     S
V63     V62    10.0   1_556     S
V63     V64    10.0   .     S
V63     V66    10.0   .     S
V64     V52    10.0   1_556     S
V64     V61    10.0   1_556     S
V65     V66    10.0   .     S
V65     V67    10.0   1_455     S
V65     V62    10.0   1_556     S
V65     V71    10.0   1_455     S
V66     V68    10.0   1_455     S
V67     V65    10.0   1_655     S
V67     V68    10.0   .     S
V67     V69    10.0   .     S
V68     V36    10.0   1_655     S
V68     V66    10.0   1_655     S
V68     V46    10.0   1_556     S
V69     V70    10.0   .     S
V69     V71    10.0   .     S
V70     V72    10.0   .     S
V70     V60    10.0   1_655     S
V71     V72    10.0   .     S
V71     V65    10.0   1_655     S
V73     V76    10.0   1_455     S
V73     V74    10.0   .     S
V73     V78    10.0   .     S
V74     V75    10.0   1_455     S
V74     V89    10.0   1_455     S
V75     V74    10.0   1_655     S
V75     V76    10.0   .     S
V75     V90    10.0   .     S
V76     V73    10.0   1_655     S
V76     V77    10.0   1_655     S
V77     V78    10.0   .     S
V77     V79    10.0   .     S
V77     V76    10.0   1_455     S
V77     V82    10.0   .     S
V78     V80    10.0   .     S
V79     V80    10.0   .     S
V79     V81    10.0   .     S
V80     V14    10.0   1_455     S
V81     V84    10.0   .     S
V81     V82    10.0   .     S
V82     V83    10.0   .     S
V83     V84    10.0   .     S
V85     V86    10.0   1_545     S
V85     V88    10.0   .     S
V86     V48    10.0   1_565     S
V86     V85    10.0   1_565     S
V86     V87    10.0   .     S
V87     V88    10.0   1_565     S
V87     V96    10.0   .     S
V88     V87    10.0   1_545     S
V88     V94    10.0   1_545     S
V89     V90    10.0   .     S
V89     V91    10.0   1_545     S
V89     V74    10.0   1_655     S
V89     V95    10.0   1_545     S
V90     V92    10.0   1_545     S
V91     V89    10.0   1_565     S
V91     V92    10.0   .     S
V91     V93    10.0   .     S
V92     V46    10.0   1_565     S
V92     V90    10.0   1_565     S
V92     V16    10.0   1_655     S
V93     V94    10.0   .     S
V93     V95    10.0   .     S
V94     V96    10.0   .     S
V94     V88    10.0   1_565     S
V95     V96    10.0   .     S
V95     V89    10.0   1_565     S
