data_gui
_audit_creation_date              2020-02-02
_audit_creation_method            'Pymatgen'
_symmetry_space_group_name_H-M    'P1'
_symmetry_Int_Tables_number       1
loop_
_symmetry_equiv_pos_as_xyz
  x,y,z
_cell_length_a                    18.8401
_cell_length_b                    47.7079
_cell_length_c                    20.8676
_cell_angle_alpha                 90.0
_cell_angle_beta                 90.0
_cell_angle_gamma                 90.0
loop_
_atom_site_label
_atom_site_type_symbol
_atom_site_fract_x
_atom_site_fract_y
_atom_site_fract_z
V1     V     0.5   0.25   0.4092
Ti2     Ti     0.5   0.074   0.6696
Er3     Er     0.5   0.25   0.93
Ti4     Ti     0.5   0.426   0.6696
V5     V     0.0   0.25   0.0908
Ti6     Ti     0.0   0.426   0.8304
Ti7     Ti     0.0   0.074   0.8304
Er8     Er     0.0   0.25   0.57
Ti9     Ti     0.5   0.926   0.3304
V10     V     0.5   0.75   0.5908
Ti11     Ti     0.5   0.574   0.3304
Er12     Er     0.5   0.75   0.07
Ti13     Ti     0.0   0.926   0.1696
Ti14     Ti     0.0   0.574   0.1696
Er15     Er     0.0   0.75   0.43
V16     V     0.0   0.75   0.9092
loop_
_geom_bond_atom_site_label_1
_geom_bond_atom_site_label_2
_geom_bond_distance
_geom_bond_site_symmetry_2
_ccdc_geom_bond_type
V1     Er3    10.0   1_554     S
V1     Ti2    10.0   .     S
V1     Ti4    10.0   .     S
V1     Er8    10.0   1_655     S
V1     Er8    10.0   .     S
Ti2     Er3    10.0   .     S
Ti2     Ti7    10.0   1_655     S
Ti2     Ti7    10.0   .     S
Ti2     Ti9    10.0   1_545     S
Er3     V1    10.0   1_556     S
Er3     Ti4    10.0   .     S
Er3     V5    10.0   1_556     S
Er3     V5    10.0   1_656     S
Ti4     Ti6    10.0   .     S
Ti4     Ti6    10.0   1_655     S
Ti4     Ti11    10.0   .     S
V5     Er8    10.0   .     S
V5     Ti7    10.0   1_554     S
V5     Ti6    10.0   1_554     S
V5     Er3    10.0   1_554     S
V5     Er3    10.0   1_454     S
Ti6     Er8    10.0   .     S
Ti6     V5    10.0   1_556     S
Ti6     Ti4    10.0   1_455     S
Ti6     Ti14    10.0   1_556     S
Ti7     Er8    10.0   .     S
Ti7     V5    10.0   1_556     S
Ti7     Ti2    10.0   1_455     S
Ti7     Ti13    10.0   1_546     S
Er8     V1    10.0   1_455     S
Ti9     Er12    10.0   .     S
Ti9     V10    10.0   .     S
Ti9     Ti13    10.0   1_655     S
Ti9     Ti13    10.0   .     S
Ti9     Ti2    10.0   1_565     S
V10     Er12    10.0   1_556     S
V10     Ti11    10.0   .     S
V10     Er15    10.0   1_655     S
V10     Er15    10.0   .     S
Ti11     Er12    10.0   .     S
Ti11     Ti14    10.0   .     S
Ti11     Ti14    10.0   1_655     S
Er12     V10    10.0   1_554     S
Er12     V16    10.0   1_554     S
Er12     V16    10.0   1_654     S
Ti13     Er15    10.0   .     S
Ti13     V16    10.0   1_554     S
Ti13     Ti9    10.0   1_455     S
Ti13     Ti7    10.0   1_564     S
Ti14     Er15    10.0   .     S
Ti14     V16    10.0   1_554     S
Ti14     Ti11    10.0   1_455     S
Ti14     Ti6    10.0   1_554     S
Er15     V16    10.0   .     S
Er15     V10    10.0   1_455     S
V16     Ti14    10.0   1_556     S
V16     Ti13    10.0   1_556     S
V16     Er12    10.0   1_556     S
V16     Er12    10.0   1_456     S
