data_gwe
_audit_creation_date              2020-02-02
_audit_creation_method            'Pymatgen'
_symmetry_space_group_name_H-M    'P1'
_symmetry_Int_Tables_number       1
loop_
_symmetry_equiv_pos_as_xyz
  x,y,z
_cell_length_a                    48.4846
_cell_length_b                    48.4846
_cell_length_c                    72.8117
_cell_angle_alpha                 90.0
_cell_angle_beta                 90.0
_cell_angle_gamma                 120.0
loop_
_atom_site_label
_atom_site_type_symbol
_atom_site_fract_x
_atom_site_fract_y
_atom_site_fract_z
V1     V     0.3489   0.3192   0.6521
V2     V     0.9703   0.3192   0.6521
Ti3     Ti     0.1833   0.3667   0.605
V4     V     0.9703   0.6511   0.6521
V5     V     0.3489   0.0297   0.6521
Ti6     Ti     0.1833   0.8167   0.605
Er7     Er     0.5617   0.1235   0.5912
Ce8     Ce     0.4854   0.2427   0.5141
Er9     Er     0.5617   0.4383   0.5912
Ce10     Ce     0.7573   0.5146   0.5141
Ce11     Ce     0.7573   0.2427   0.5141
Er12     Er     0.8765   0.4383   0.5912
V13     V     0.6808   0.0297   0.6521
V14     V     0.6808   0.6511   0.6521
Ti15     Ti     0.6333   0.8167   0.605
S16     S     0.8251   0.6502   0.75
S17     S     0.8251   0.1749   0.75
S18     S     0.3498   0.1749   0.75
V19     V     0.3489   0.3192   0.8479
V20     V     0.9703   0.3192   0.8479
Ti21     Ti     0.1833   0.3667   0.895
Er22     Er     0.5618   0.1235   0.9088
Ce23     Ce     0.7573   0.2427   0.9859
V24     V     0.6808   0.0297   0.8479
V25     V     0.6808   0.6511   0.8479
Ti26     Ti     0.6333   0.8167   0.895
Er27     Er     0.8765   0.4383   0.9088
Ce28     Ce     0.7573   0.5146   0.9859
Er29     Er     0.5617   0.4383   0.9088
Ce30     Ce     0.4854   0.2427   0.9859
V31     V     0.9703   0.6511   0.8479
V32     V     0.3489   0.0297   0.8479
Ti33     Ti     0.1833   0.8167   0.895
V34     V     0.0297   0.3489   0.3479
V35     V     0.6511   0.9703   0.3479
Ti36     Ti     0.8167   0.1833   0.395
V37     V     0.3192   0.3489   0.3479
V38     V     0.3192   0.9703   0.3479
Ti39     Ti     0.3667   0.1833   0.395
Er40     Er     0.4383   0.8765   0.4089
Ce41     Ce     0.5146   0.7573   0.4859
Er42     Er     0.1235   0.5617   0.4089
Ce43     Ce     0.2427   0.7573   0.4859
Er44     Er     0.4383   0.5617   0.4089
Ce45     Ce     0.2427   0.4854   0.4859
V46     V     0.6511   0.6808   0.3479
V47     V     0.0297   0.6808   0.3479
Ti48     Ti     0.8167   0.6333   0.395
S49     S     0.1749   0.3498   0.25
S50     S     0.6502   0.8251   0.25
V51     V     0.0297   0.3489   0.1521
V52     V     0.6511   0.9703   0.1521
Ti53     Ti     0.8167   0.1833   0.105
V54     V     0.3192   0.3489   0.1521
V55     V     0.3192   0.9703   0.1521
Ti56     Ti     0.3667   0.1833   0.105
Ce57     Ce     0.2427   0.7573   0.0141
Er58     Er     0.1235   0.5618   0.0912
Ce59     Ce     0.5146   0.7573   0.0141
Er60     Er     0.4383   0.8765   0.0912
Er61     Er     0.4383   0.5617   0.0912
Ce62     Ce     0.2427   0.4854   0.0141
V63     V     0.6511   0.6808   0.1521
V64     V     0.0297   0.6808   0.1521
Ti65     Ti     0.8167   0.6333   0.105
S66     S     0.1749   0.8251   0.25
loop_
_geom_bond_atom_site_label_1
_geom_bond_atom_site_label_2
_geom_bond_distance
_geom_bond_site_symmetry_2
_ccdc_geom_bond_type
V1     Er9    10.0   .     S
V1     Ti3    10.0   .     S
V1     S18    10.0   .     S
V2     Er12    10.0   .     S
V2     Ti3    10.0   1_655     S
V2     S17    10.0   .     S
Ti3     Ce45    10.0   .     S
Ti3     V2    10.0   1_455     S
V4     Er12    10.0   .     S
V4     Ti6    10.0   1_655     S
V4     S16    10.0   .     S
V5     Er7    10.0   .     S
V5     Ti6    10.0   1_545     S
V5     S18    10.0   .     S
Ti6     Ce43    10.0   .     S
Ti6     V4    10.0   1_455     S
Ti6     V5    10.0   1_565     S
Er7     Ce8    10.0   .     S
Er7     Ce11    10.0   .     S
Er7     V13    10.0   .     S
Ce8     Ti39    10.0   .     S
Ce8     Er9    10.0   .     S
Er9     Ce10    10.0   .     S
Er9     V14    10.0   .     S
Ce10     Ti48    10.0   .     S
Ce10     Er12    10.0   .     S
Ce11     Ti36    10.0   .     S
Ce11     Er12    10.0   .     S
V13     Ti15    10.0   1_545     S
V13     S17    10.0   .     S
V14     Ti15    10.0   .     S
V14     S16    10.0   .     S
Ti15     Ce41    10.0   .     S
Ti15     V13    10.0   1_565     S
S16     V31    10.0   .     S
S16     V25    10.0   .     S
S17     V20    10.0   .     S
S17     V24    10.0   .     S
S18     V19    10.0   .     S
S18     V32    10.0   .     S
V19     Er29    10.0   .     S
V19     Ti21    10.0   .     S
V20     Er27    10.0   .     S
V20     Ti21    10.0   1_655     S
Ti21     Ce62    10.0   1_556     S
Ti21     V20    10.0   1_455     S
Er22     Ce23    10.0   .     S
Er22     V24    10.0   .     S
Er22     Ce30    10.0   .     S
Er22     V32    10.0   .     S
Ce23     Ti53    10.0   1_556     S
Ce23     Er27    10.0   .     S
V24     Ti26    10.0   1_545     S
V25     Er29    10.0   .     S
V25     Ti26    10.0   .     S
Ti26     Ce59    10.0   1_556     S
Ti26     V24    10.0   1_565     S
Er27     Ce28    10.0   .     S
Er27     V31    10.0   .     S
Ce28     Ti65    10.0   1_556     S
Ce28     Er29    10.0   .     S
Er29     Ce30    10.0   .     S
Ce30     Ti56    10.0   1_556     S
V31     Ti33    10.0   1_655     S
V32     Ti33    10.0   1_545     S
Ti33     V31    10.0   1_455     S
Ti33     V32    10.0   1_565     S
Ti33     Ce57    10.0   1_556     S
V34     Er42    10.0   .     S
V34     Ti36    10.0   1_455     S
V34     S49    10.0   .     S
V35     Er40    10.0   .     S
V35     Ti36    10.0   1_565     S
V35     S50    10.0   .     S
Ti36     V34    10.0   1_655     S
Ti36     V35    10.0   1_545     S
V37     Er44    10.0   .     S
V37     Ti39    10.0   .     S
V37     S49    10.0   .     S
V38     Er40    10.0   .     S
V38     Ti39    10.0   1_565     S
V38     S66    10.0   .     S
Ti39     V38    10.0   1_545     S
Er40     Ce43    10.0   .     S
Er40     Ce41    10.0   .     S
Ce41     Er44    10.0   .     S
Er42     Ce45    10.0   .     S
Er42     Ce43    10.0   .     S
Er42     V47    10.0   .     S
Er44     Ce45    10.0   .     S
Er44     V46    10.0   .     S
V46     Ti48    10.0   .     S
V46     S50    10.0   .     S
V47     Ti48    10.0   1_455     S
V47     S66    10.0   .     S
Ti48     V47    10.0   1_655     S
S49     V54    10.0   .     S
S49     V51    10.0   .     S
S50     V52    10.0   .     S
S50     V63    10.0   .     S
V51     Er58    10.0   .     S
V51     Ti53    10.0   1_455     S
V52     Er60    10.0   .     S
V52     Ti53    10.0   1_565     S
Ti53     Ce23    10.0   1_554     S
Ti53     V52    10.0   1_545     S
Ti53     V51    10.0   1_655     S
V54     Er61    10.0   .     S
V54     Ti56    10.0   .     S
V55     Er60    10.0   .     S
V55     Ti56    10.0   1_565     S
V55     S66    10.0   .     S
Ti56     Ce30    10.0   1_554     S
Ti56     V55    10.0   1_545     S
Ce57     Ti33    10.0   1_554     S
Ce57     Er58    10.0   .     S
Ce57     Er60    10.0   .     S
Er58     Ce62    10.0   .     S
Er58     V64    10.0   .     S
Ce59     Ti26    10.0   1_554     S
Ce59     Er61    10.0   .     S
Ce59     Er60    10.0   .     S
Er61     Ce62    10.0   .     S
Er61     V63    10.0   .     S
Ce62     Ti21    10.0   1_554     S
V63     Ti65    10.0   .     S
V64     Ti65    10.0   1_455     S
V64     S66    10.0   .     S
Ti65     Ce28    10.0   1_554     S
Ti65     V64    10.0   1_655     S
