data_gwg
_audit_creation_date              2019-12-31
_audit_creation_method            'Pymatgen'
_symmetry_space_group_name_H-M    'P1'
_symmetry_Int_Tables_number       1
loop_
_symmetry_equiv_pos_as_xyz
  x,y,z
_cell_length_a                    20.6907
_cell_length_b                    39.5622
_cell_length_c                    24.3716
_cell_angle_alpha                 90.0
_cell_angle_beta                 107.028
_cell_angle_gamma                 90.0
loop_
_atom_site_label
_atom_site_type_symbol
_atom_site_fract_x
_atom_site_fract_y
_atom_site_fract_z
V1     V     0.0   0.0   0.0
V2     V     0.0   0.5   0.0
Er3     Er     0.6428   0.1789   0.9118
Er4     Er     0.6428   0.6789   0.9118
Er5     Er     0.3572   0.3211   0.0882
Er6     Er     0.3572   0.8211   0.0882
V7     V     0.5   0.25   0.5
V8     V     0.5   0.75   0.5
Er9     Er     0.1428   0.0711   0.4118
Er10     Er     0.1428   0.5711   0.4118
Er11     Er     0.8572   0.4289   0.5882
Er12     Er     0.8572   0.9289   0.5882
loop_
_geom_bond_atom_site_label_1
_geom_bond_atom_site_label_2
_geom_bond_distance
_geom_bond_site_symmetry_2
_ccdc_geom_bond_type
V1     Er3    10.0   1_454     S
V1     Er6    10.0   1_545     S
V1     Er12    10.0   1_444     S
V1     Er9    10.0   .     S
V2     Er4    10.0   1_454     S
V2     Er5    10.0   .     S
V2     Er11    10.0   1_454     S
V2     Er10    10.0   .     S
Er3     V1    10.0   1_656     S
Er3     V7    10.0   .     S
Er3     Er5    10.0   1_556     S
Er4     V2    10.0   1_656     S
Er4     V8    10.0   .     S
Er4     Er6    10.0   1_556     S
Er5     V7    10.0   .     S
Er5     Er3    10.0   1_554     S
Er6     V1    10.0   1_565     S
Er6     V8    10.0   .     S
Er6     Er4    10.0   1_554     S
V7     Er9    10.0   .     S
V7     Er11    10.0   .     S
V8     Er10    10.0   .     S
V8     Er12    10.0   .     S
Er9     Er12    10.0   1_445     S
Er10     Er11    10.0   1_455     S
Er11     V2    10.0   1_656     S
Er11     Er10    10.0   1_655     S
Er12     V1    10.0   1_666     S
Er12     Er9    10.0   1_665     S
