data_hci
_audit_creation_date              2020-02-02
_audit_creation_method            'Pymatgen'
_symmetry_space_group_name_H-M    'P1'
_symmetry_Int_Tables_number       1
loop_
_symmetry_equiv_pos_as_xyz
  x,y,z
_cell_length_a                    28.2979
_cell_length_b                    18.1974
_cell_length_c                    50.1283
_cell_angle_alpha                 90.0
_cell_angle_beta                 90.0
_cell_angle_gamma                 90.0
loop_
_atom_site_label
_atom_site_type_symbol
_atom_site_fract_x
_atom_site_fract_y
_atom_site_fract_z
V1     V     0.3233   0.453   0.75
V2     V     0.1767   0.953   0.75
V3     V     0.6767   0.453   0.75
V4     V     0.8233   0.953   0.75
Er5     Er     0.6767   0.849   0.0833
Er6     Er     0.6767   0.151   0.9167
Er7     Er     0.8233   0.349   0.0833
Er8     Er     0.8233   0.651   0.9167
Er9     Er     0.3233   0.849   0.0833
Er10     Er     0.3233   0.151   0.9167
Er11     Er     0.1767   0.349   0.0833
Er12     Er     0.1767   0.651   0.9167
V13     V     0.8233   0.047   0.25
V14     V     0.6767   0.547   0.25
V15     V     0.1767   0.047   0.25
V16     V     0.3233   0.547   0.25
Er17     Er     0.3233   0.151   0.5833
Er18     Er     0.3233   0.849   0.4167
Er19     Er     0.1767   0.651   0.5833
Er20     Er     0.1767   0.349   0.4167
Er21     Er     0.6767   0.151   0.5833
Er22     Er     0.6767   0.849   0.4167
Er23     Er     0.8233   0.349   0.4167
Er24     Er     0.8233   0.651   0.5833
loop_
_geom_bond_atom_site_label_1
_geom_bond_atom_site_label_2
_geom_bond_distance
_geom_bond_site_symmetry_2
_ccdc_geom_bond_type
V1     V2    10.0   1_545     S
V1     Er17    10.0   .     S
V1     Er10    10.0   .     S
V1     V2    10.0   .     S
V1     Er19    10.0   .     S
V1     Er12    10.0   .     S
V1     V3    10.0   .     S
V2     V1    10.0   1_565     S
V2     Er10    10.0   1_565     S
V2     Er17    10.0   1_565     S
V2     Er12    10.0   .     S
V2     Er19    10.0   .     S
V2     V4    10.0   1_455     S
V3     V4    10.0   1_545     S
V3     Er6    10.0   .     S
V3     Er21    10.0   .     S
V3     V4    10.0   .     S
V3     Er8    10.0   .     S
V3     Er24    10.0   .     S
V4     V3    10.0   1_565     S
V4     Er21    10.0   1_565     S
V4     Er6    10.0   1_565     S
V4     Er24    10.0   .     S
V4     Er8    10.0   .     S
V4     V2    10.0   1_655     S
Er5     Er7    10.0   1_565     S
Er5     Er6    10.0   1_564     S
Er5     Er7    10.0   .     S
Er5     Er8    10.0   1_554     S
Er5     Er9    10.0   .     S
Er5     V13    10.0   1_565     S
Er5     V14    10.0   .     S
Er6     V4    10.0   1_545     S
Er6     Er7    10.0   1_556     S
Er6     Er8    10.0   .     S
Er6     Er5    10.0   1_546     S
Er6     Er8    10.0   1_545     S
Er6     Er10    10.0   .     S
Er7     Er5    10.0   1_545     S
Er7     Er6    10.0   1_554     S
Er7     Er8    10.0   1_554     S
Er7     Er11    10.0   1_655     S
Er7     V13    10.0   .     S
Er7     V14    10.0   .     S
Er8     Er7    10.0   1_556     S
Er8     Er5    10.0   1_556     S
Er8     Er6    10.0   1_565     S
Er8     Er12    10.0   1_655     S
Er9     Er11    10.0   1_565     S
Er9     Er10    10.0   1_564     S
Er9     Er11    10.0   .     S
Er9     Er12    10.0   1_554     S
Er9     V15    10.0   1_565     S
Er9     V16    10.0   .     S
Er10     V2    10.0   1_545     S
Er10     Er11    10.0   1_556     S
Er10     Er12    10.0   .     S
Er10     Er9    10.0   1_546     S
Er10     Er12    10.0   1_545     S
Er11     Er9    10.0   1_545     S
Er11     Er10    10.0   1_554     S
Er11     Er12    10.0   1_554     S
Er11     Er7    10.0   1_455     S
Er11     V15    10.0   .     S
Er11     V16    10.0   .     S
Er12     Er11    10.0   1_556     S
Er12     Er9    10.0   1_556     S
Er12     Er10    10.0   1_565     S
Er12     Er8    10.0   1_455     S
V13     Er23    10.0   .     S
V13     V14    10.0   1_545     S
V13     Er5    10.0   1_545     S
V13     Er22    10.0   1_545     S
V13     V14    10.0   .     S
V13     V15    10.0   1_655     S
V14     V13    10.0   1_565     S
V14     Er23    10.0   .     S
V14     Er22    10.0   .     S
V14     V16    10.0   .     S
V15     Er20    10.0   .     S
V15     V16    10.0   1_545     S
V15     Er9    10.0   1_545     S
V15     Er18    10.0   1_545     S
V15     V16    10.0   .     S
V15     V13    10.0   1_455     S
V16     V15    10.0   1_565     S
V16     Er20    10.0   .     S
V16     Er18    10.0   .     S
Er17     V2    10.0   1_545     S
Er17     Er19    10.0   1_545     S
Er17     Er18    10.0   1_545     S
Er17     Er19    10.0   .     S
Er17     Er20    10.0   .     S
Er17     Er21    10.0   .     S
Er18     V15    10.0   1_565     S
Er18     Er20    10.0   .     S
Er18     Er19    10.0   .     S
Er18     Er17    10.0   1_565     S
Er18     Er20    10.0   1_565     S
Er18     Er22    10.0   .     S
Er19     Er17    10.0   1_565     S
Er19     Er20    10.0   .     S
Er19     Er24    10.0   1_455     S
Er20     Er18    10.0   1_545     S
Er20     Er23    10.0   1_455     S
Er21     V4    10.0   1_545     S
Er21     Er24    10.0   1_545     S
Er21     Er22    10.0   1_545     S
Er21     Er24    10.0   .     S
Er21     Er23    10.0   .     S
Er22     V13    10.0   1_565     S
Er22     Er23    10.0   .     S
Er22     Er24    10.0   .     S
Er22     Er21    10.0   1_565     S
Er22     Er23    10.0   1_565     S
Er23     Er24    10.0   .     S
Er23     Er22    10.0   1_545     S
Er23     Er20    10.0   1_655     S
Er24     Er21    10.0   1_565     S
Er24     Er19    10.0   1_655     S
