data_hcj
_audit_creation_date              2020-02-02
_audit_creation_method            'Pymatgen'
_symmetry_space_group_name_H-M    'P1'
_symmetry_Int_Tables_number       1
loop_
_symmetry_equiv_pos_as_xyz
  x,y,z
_cell_length_a                    18.2016
_cell_length_b                    28.2884
_cell_length_c                    25.662
_cell_angle_alpha                 90.0
_cell_angle_beta                 102.363
_cell_angle_gamma                 90.0
loop_
_atom_site_label
_atom_site_type_symbol
_atom_site_fract_x
_atom_site_fract_y
_atom_site_fract_z
V1     V     0.5   0.1768   0.0
V2     V     0.5   0.8232   0.0
V3     V     0.0   0.6768   0.0
V4     V     0.0   0.3232   0.0
Er5     Er     0.7988   0.6768   0.3333
Er6     Er     0.2988   0.8232   0.3333
Er7     Er     0.7988   0.3232   0.3333
Er8     Er     0.2988   0.1768   0.3333
Er9     Er     0.2012   0.6768   0.6667
Er10     Er     0.7012   0.8232   0.6667
Er11     Er     0.2012   0.3232   0.6667
Er12     Er     0.7012   0.1768   0.6667
loop_
_geom_bond_atom_site_label_1
_geom_bond_atom_site_label_2
_geom_bond_distance
_geom_bond_site_symmetry_2
_ccdc_geom_bond_type
V1     V2    10.0   1_545     S
V1     V4    10.0   .     S
V1     V4    10.0   1_655     S
V1     Er7    10.0   .     S
V1     Er8    10.0   .     S
V1     Er12    10.0   1_554     S
V1     Er11    10.0   1_554     S
V2     V1    10.0   1_565     S
V2     V3    10.0   1_655     S
V2     V3    10.0   .     S
V2     Er5    10.0   .     S
V2     Er6    10.0   .     S
V2     Er10    10.0   1_554     S
V2     Er9    10.0   1_554     S
V3     V4    10.0   .     S
V3     V2    10.0   1_455     S
V3     Er6    10.0   .     S
V3     Er5    10.0   1_455     S
V3     Er10    10.0   1_454     S
V3     Er9    10.0   1_554     S
V4     V1    10.0   1_455     S
V4     Er7    10.0   1_455     S
V4     Er8    10.0   .     S
V4     Er12    10.0   1_454     S
V4     Er11    10.0   1_554     S
Er5     Er6    10.0   .     S
Er5     Er6    10.0   1_655     S
Er5     V3    10.0   1_655     S
Er5     Er7    10.0   .     S
Er5     Er10    10.0   .     S
Er5     Er9    10.0   1_655     S
Er6     Er5    10.0   1_455     S
Er6     Er8    10.0   1_565     S
Er6     Er9    10.0   .     S
Er6     Er10    10.0   .     S
Er7     Er8    10.0   .     S
Er7     Er8    10.0   1_655     S
Er7     V4    10.0   1_655     S
Er7     Er11    10.0   1_655     S
Er7     Er12    10.0   .     S
Er8     Er7    10.0   1_455     S
Er8     Er6    10.0   1_545     S
Er8     Er11    10.0   .     S
Er8     Er12    10.0   .     S
Er9     Er5    10.0   1_455     S
Er9     Er10    10.0   .     S
Er9     V2    10.0   1_556     S
Er9     Er10    10.0   1_455     S
Er9     V3    10.0   1_556     S
Er9     Er11    10.0   .     S
Er10     V2    10.0   1_556     S
Er10     V3    10.0   1_656     S
Er10     Er9    10.0   1_655     S
Er10     Er12    10.0   1_565     S
Er11     Er12    10.0   .     S
Er11     V1    10.0   1_556     S
Er11     Er12    10.0   1_455     S
Er11     V4    10.0   1_556     S
Er11     Er7    10.0   1_455     S
Er12     V1    10.0   1_556     S
Er12     V4    10.0   1_656     S
Er12     Er11    10.0   1_655     S
Er12     Er10    10.0   1_545     S
