data_hcz
_audit_creation_date              2020-02-02
_audit_creation_method            'Pymatgen'
_symmetry_space_group_name_H-M    'P1'
_symmetry_Int_Tables_number       1
loop_
_symmetry_equiv_pos_as_xyz
  x,y,z
_cell_length_a                    27.714
_cell_length_b                    27.714
_cell_length_c                    27.714
_cell_angle_alpha                 90.0
_cell_angle_beta                 90.0
_cell_angle_gamma                 90.0
loop_
_atom_site_label
_atom_site_type_symbol
_atom_site_fract_x
_atom_site_fract_y
_atom_site_fract_z
Er1     Er     0.5   0.5   0.5
Ti2     Ti     0.7086   0.7086   0.7086
Ti3     Ti     0.2086   0.7914   0.7914
V4     V     0.5   0.0   0.75
V5     V     0.5   0.75   0.0
Ti6     Ti     0.7914   0.2086   0.7914
V7     V     0.0   0.5   0.75
V8     V     0.75   0.5   0.0
Ti9     Ti     0.7914   0.7914   0.2086
V10     V     0.0   0.75   0.5
V11     V     0.75   0.0   0.5
Ti12     Ti     0.2914   0.2914   0.7086
Ti13     Ti     0.7086   0.2914   0.2914
Ti14     Ti     0.2914   0.7086   0.2914
Ti15     Ti     0.2086   0.2086   0.2086
V16     V     0.0   0.25   0.5
V17     V     0.25   0.0   0.5
V18     V     0.5   0.0   0.25
V19     V     0.0   0.5   0.25
V20     V     0.25   0.5   0.0
V21     V     0.5   0.25   0.0
Er22     Er     0.0   0.0   0.0
loop_
_geom_bond_atom_site_label_1
_geom_bond_atom_site_label_2
_geom_bond_distance
_geom_bond_site_symmetry_2
_ccdc_geom_bond_type
Er1     Ti2    10.016   .     S
Er1     Ti12    10.016   .     S
Er1     Ti13    10.016   .     S
Er1     Ti14    10.016   .     S
Ti2     V5    9.997   1_556     S
Ti2     V8    9.997   1_556     S
Ti2     V7    9.997   1_655     S
Ti2     V4    9.997   1_565     S
Ti2     V11    9.997   1_565     S
Ti2     V10    9.997   1_655     S
Ti3     V7    9.997   .     S
Ti3     V20    9.997   1_556     S
Ti3     V17    9.997   1_565     S
Ti3     V10    9.997   .     S
Ti3     V4    9.997   1_565     S
Ti3     V5    9.997   1_556     S
Ti3     Er22    10.016   1_566     S
V4     Ti2    9.997   1_545     S
V4     Ti3    9.997   1_545     S
V4     Ti6    9.997   .     S
V4     Ti12    9.997   .     S
V5     Ti2    9.997   1_554     S
V5     Ti3    9.997   1_554     S
V5     Ti9    9.997   .     S
V5     Ti14    9.997   .     S
Ti6     V21    9.997   1_556     S
Ti6     V11    9.997   .     S
Ti6     V16    9.997   1_655     S
Ti6     V7    9.997   1_655     S
Ti6     V8    9.997   1_556     S
Ti6     Er22    10.016   1_656     S
V7     Ti2    9.997   1_455     S
V7     Ti6    9.997   1_455     S
V7     Ti12    9.997   .     S
V8     Ti2    9.997   1_554     S
V8     Ti6    9.997   1_554     S
V8     Ti9    9.997   .     S
V8     Ti13    9.997   .     S
Ti9     V19    9.997   1_655     S
Ti9     V18    9.997   1_565     S
Ti9     V10    9.997   1_655     S
Ti9     V11    9.997   1_565     S
Ti9     Er22    10.016   1_665     S
V10     Ti2    9.997   1_455     S
V10     Ti9    9.997   1_455     S
V10     Ti14    9.997   .     S
V11     Ti2    9.997   1_545     S
V11     Ti9    9.997   1_545     S
V11     Ti13    9.997   .     S
Ti12     V21    9.997   1_556     S
Ti12     V16    9.997   .     S
Ti12     V17    9.997   .     S
Ti12     V20    9.997   1_556     S
Ti13     V16    9.997   1_655     S
Ti13     V21    9.997   .     S
Ti13     V18    9.997   .     S
Ti13     V19    9.997   1_655     S
Ti14     V17    9.997   1_565     S
Ti14     V20    9.997   .     S
Ti14     V19    9.997   .     S
Ti14     V18    9.997   1_565     S
Ti15     V19    9.997   .     S
Ti15     V20    9.997   .     S
Ti15     V16    9.997   .     S
Ti15     V17    9.997   .     S
Ti15     V18    9.997   .     S
Ti15     V21    9.997   .     S
Ti15     Er22    10.016   .     S
V16     Ti6    9.997   1_455     S
V16     Ti13    9.997   1_455     S
V17     Ti3    9.997   1_545     S
V17     Ti14    9.997   1_545     S
V18     Ti9    9.997   1_545     S
V18     Ti14    9.997   1_545     S
V19     Ti9    9.997   1_455     S
V19     Ti13    9.997   1_455     S
V20     Ti3    9.997   1_554     S
V20     Ti12    9.997   1_554     S
V21     Ti6    9.997   1_554     S
V21     Ti12    9.997   1_554     S
Er22     Ti3    10.016   1_544     S
Er22     Ti9    10.016   1_445     S
Er22     Ti6    10.016   1_454     S
