data_heaa
_audit_creation_date              2020-02-02
_audit_creation_method            'Pymatgen'
_symmetry_space_group_name_H-M    'P1'
_symmetry_Int_Tables_number       1
loop_
_symmetry_equiv_pos_as_xyz
  x,y,z
_cell_length_a                    57.2347
_cell_length_b                    57.2347
_cell_length_c                    83.5271
_cell_angle_alpha                 90.0
_cell_angle_beta                 90.0
_cell_angle_gamma                 120.0
loop_
_atom_site_label
_atom_site_type_symbol
_atom_site_fract_x
_atom_site_fract_y
_atom_site_fract_z
Ce1     Ce     0.661   0.2298   0.1908
Ce2     Ce     0.5688   0.339   0.1908
Ce3     Ce     0.7702   0.4312   0.1908
Ti4     Ti     0.7616   0.4393   0.0715
Ti5     Ti     0.5607   0.3223   0.0715
Ti6     Ti     0.6777   0.2384   0.0715
V7     V     0.4308   0.3081   0.3912
V8     V     0.456   0.3586   0.2755
Er9     Er     0.2711   0.2357   0.3182
Er10     Er     0.3687   0.4309   0.3485
V11     V     0.8773   0.5692   0.3912
V12     V     0.9025   0.544   0.2755
Er13     Er     0.0622   0.6313   0.3485
Er14     Er     0.9646   0.7289   0.3182
Ce15     Ce     0.5631   0.3276   0.4758
Ce16     Ce     0.6724   0.2355   0.4758
Ce17     Ce     0.7645   0.4369   0.4758
Ti18     Ti     0.5718   0.3444   0.5951
Ti19     Ti     0.6556   0.2274   0.5951
Ti20     Ti     0.7726   0.4282   0.5951
V21     V     0.6414   0.0975   0.2755
V22     V     0.6919   0.1227   0.3912
Er23     Er     0.5691   0.9378   0.3485
Er24     Er     0.7643   0.0354   0.3182
Ce25     Ce     0.8965   0.9943   0.1425
Ce26     Ce     0.0057   0.9022   0.1425
Ce27     Ce     0.0979   0.1035   0.1425
Ti28     Ti     0.106   0.0949   0.2618
Ti29     Ti     0.9051   0.0111   0.2618
Ti30     Ti     0.9889   0.894   0.2618
V31     V     0.0252   0.7894   0.0579
V32     V     0.9748   0.7641   0.9421
Er33     Er     0.0976   0.702   0.9848
Er34     Er     0.9024   0.6045   0.0152
V35     V     0.2106   0.2359   0.0579
V36     V     0.2359   0.2106   0.9421
Er37     Er     0.298   0.3955   0.9848
Er38     Er     0.3955   0.298   0.0152
Ce39     Ce     0.9943   0.8965   0.8575
Ce40     Ce     0.1035   0.0979   0.8575
Ce41     Ce     0.9022   0.0057   0.8575
Ti42     Ti     0.0949   0.106   0.7382
Ti43     Ti     0.894   0.9889   0.7382
Ti44     Ti     0.0111   0.9051   0.7382
V45     V     0.7641   0.9748   0.0579
V46     V     0.7894   0.0252   0.9421
Er47     Er     0.702   0.0976   0.0152
Er48     Er     0.6045   0.9024   0.9848
Ce49     Ce     0.2298   0.661   0.8092
Ce50     Ce     0.4312   0.7702   0.8092
Ce51     Ce     0.339   0.5688   0.8092
Ti52     Ti     0.2384   0.6777   0.9285
Ti53     Ti     0.3223   0.5607   0.9285
Ti54     Ti     0.4393   0.7616   0.9285
V55     V     0.5692   0.8773   0.6088
V56     V     0.544   0.9025   0.7245
Er57     Er     0.6313   0.0622   0.6515
Er58     Er     0.7289   0.9646   0.6818
V59     V     0.3081   0.4308   0.6088
V60     V     0.3586   0.456   0.7245
Er61     Er     0.2357   0.2711   0.6818
Er62     Er     0.4309   0.3687   0.6515
Ce63     Ce     0.4369   0.7645   0.5242
Ce64     Ce     0.2355   0.6724   0.5242
Ce65     Ce     0.3276   0.5631   0.5242
Ti66     Ti     0.4282   0.7726   0.4049
Ti67     Ti     0.2274   0.6556   0.4049
Ti68     Ti     0.3444   0.5718   0.4049
V69     V     0.1227   0.6919   0.6088
V70     V     0.0975   0.6414   0.7245
Er71     Er     0.9378   0.5691   0.6515
Er72     Er     0.0354   0.7643   0.6818
loop_
_geom_bond_atom_site_label_1
_geom_bond_atom_site_label_2
_geom_bond_distance
_geom_bond_site_symmetry_2
_ccdc_geom_bond_type
Ce1     Ce2    9.994   .     S
Ce1     Ce3    9.994   .     S
Ce1     Ti6    9.999   .     S
Ce1     V21    10.005   .     S
Ce2     Ce3    9.994   .     S
Ce2     Ti5    9.999   .     S
Ce2     V8    10.005   .     S
Ce3     Ti4    9.999   .     S
Ce3     V12    10.005   .     S
Ti4     Ti6    10.001   .     S
Ti4     Ti5    10.001   .     S
Ti4     Er34    10.015   .     S
Ti5     Ti6    10.001   .     S
Ti5     Er38    10.015   .     S
Ti6     Er47    10.015   .     S
V7     Er10    9.989   .     S
V7     V8    9.988   .     S
V7     Er9    10.003   .     S
V7     Ce15    10.005   .     S
V8     Er10    10.003   .     S
V8     Er9    9.989   .     S
Er9     Er10    10.001   .     S
Er9     Ti28    10.015   .     S
Er10     Ti68    10.015   .     S
V11     Er14    10.003   .     S
V11     V12    9.988   .     S
V11     Er13    9.989   1_655     S
V11     Ce17    10.005   .     S
V12     Er14    9.989   .     S
V12     Er13    10.003   1_655     S
Er13     Er14    10.001   1_455     S
Er13     V11    9.989   1_455     S
Er13     V12    10.003   1_455     S
Er13     Ti67    10.015   .     S
Er14     Er13    10.001   1_655     S
Er14     Ti30    10.015   .     S
Ce15     Ce16    9.994   .     S
Ce15     Ce17    9.994   .     S
Ce15     Ti18    9.999   .     S
Ce16     Ce17    9.994   .     S
Ce16     Ti19    9.999   .     S
Ce16     V22    10.005   .     S
Ce17     Ti20    9.999   .     S
Ti18     Ti20    10.001   .     S
Ti18     Ti19    10.001   .     S
Ti18     Er62    10.015   .     S
Ti19     Ti20    10.001   .     S
Ti19     Er57    10.015   .     S
Ti20     Er71    10.015   .     S
V21     Er24    9.989   .     S
V21     V22    9.988   .     S
V21     Er23    10.003   1_545     S
V22     Er24    10.003   .     S
V22     Er23    9.989   1_545     S
Er23     Er24    10.001   1_565     S
Er23     V22    9.989   1_565     S
Er23     V21    10.003   1_565     S
Er23     Ti66    10.015   .     S
Er24     Er23    10.001   1_545     S
Er24     Ti29    10.015   .     S
Ce25     Ce26    9.994   1_655     S
Ce25     Ce27    9.994   1_665     S
Ce25     Ti29    9.999   1_565     S
Ce25     V45    10.005   .     S
Ce26     Ce25    9.994   1_455     S
Ce26     Ce27    9.994   1_565     S
Ce26     Ti30    9.999   1_455     S
Ce26     V31    10.005   .     S
Ce27     Ce26    9.994   1_545     S
Ce27     Ce25    9.994   1_445     S
Ce27     Ti28    9.999   .     S
Ce27     V35    10.005   .     S
Ti28     Ti29    10.001   1_455     S
Ti28     Ti30    10.001   1_445     S
Ti29     Ce25    9.999   1_545     S
Ti29     Ti28    10.001   1_655     S
Ti29     Ti30    10.001   1_545     S
Ti30     Ce26    9.999   1_655     S
Ti30     Ti29    10.001   1_565     S
Ti30     Ti28    10.001   1_665     S
V31     Er33    10.003   1_554     S
V31     V32    9.988   1_454     S
V31     Er34    9.989   1_455     S
V32     Er33    9.989   1_655     S
V32     V31    9.988   1_656     S
V32     Er34    10.003   1_556     S
V32     Ce39    10.005   .     S
Er33     Er34    10.001   1_456     S
Er33     V32    9.989   1_455     S
Er33     V31    10.003   1_556     S
Er33     Ti52    10.015   .     S
Er34     Er33    10.001   1_654     S
Er34     V31    9.989   1_655     S
Er34     V32    10.003   1_554     S
V35     Er37    10.003   1_554     S
V35     V36    9.988   1_554     S
V35     Er38    9.989   .     S
V36     Er37    9.989   .     S
V36     V35    9.988   1_556     S
V36     Er38    10.003   1_556     S
V36     Ce40    10.005   .     S
Er37     Er38    10.001   1_556     S
Er37     V35    10.003   1_556     S
Er37     Ti53    10.015   .     S
Er38     Er37    10.001   1_554     S
Er38     V36    10.003   1_554     S
Ce39     Ce41    9.994   1_565     S
Ce39     Ce40    9.994   1_665     S
Ce39     Ti44    9.999   1_655     S
Ce40     Ce39    9.994   1_445     S
Ce40     Ce41    9.994   1_455     S
Ce40     Ti42    9.999   .     S
Ce41     Ce39    9.994   1_545     S
Ce41     Ce40    9.994   1_655     S
Ce41     Ti43    9.999   1_545     S
Ce41     V46    10.005   .     S
Ti42     Ti44    10.001   1_545     S
Ti42     Ti43    10.001   1_445     S
Ti42     Er61    10.015   .     S
Ti43     Ce41    9.999   1_565     S
Ti43     Ti44    10.001   1_655     S
Ti43     Ti42    10.001   1_665     S
Ti43     Er58    10.015   .     S
Ti44     Ce39    9.999   1_455     S
Ti44     Ti42    10.001   1_565     S
Ti44     Ti43    10.001   1_455     S
Ti44     Er72    10.015   .     S
V45     Er48    10.003   1_554     S
V45     V46    9.988   1_564     S
V45     Er47    9.989   1_565     S
V46     Er48    9.989   1_545     S
V46     V45    9.988   1_546     S
V46     Er47    10.003   1_556     S
Er47     Er48    10.001   1_544     S
Er47     V45    9.989   1_545     S
Er47     V46    10.003   1_554     S
Er48     Er47    10.001   1_566     S
Er48     V46    9.989   1_565     S
Er48     V45    10.003   1_556     S
Er48     Ti54    10.015   .     S
Ce49     Ce51    9.994   .     S
Ce49     Ce50    9.994   .     S
Ce49     Ti52    9.999   .     S
Ce49     V70    10.005   .     S
Ce50     Ce51    9.994   .     S
Ce50     Ti54    9.999   .     S
Ce50     V56    10.005   .     S
Ce51     Ti53    9.999   .     S
Ce51     V60    10.005   .     S
Ti52     Ti54    10.001   .     S
Ti52     Ti53    10.001   .     S
Ti53     Ti54    10.001   .     S
V55     Er58    10.003   .     S
V55     V56    9.988   .     S
V55     Er57    9.989   1_565     S
V55     Ce63    10.005   .     S
V56     Er58    9.989   .     S
V56     Er57    10.003   1_565     S
Er57     Er58    10.001   1_545     S
Er57     V55    9.989   1_545     S
Er57     V56    10.003   1_545     S
Er58     Er57    10.001   1_565     S
V59     Er61    10.003   .     S
V59     V60    9.988   .     S
V59     Er62    9.989   .     S
V59     Ce65    10.005   .     S
V60     Er61    9.989   .     S
V60     Er62    10.003   .     S
Er61     Er62    10.001   .     S
Ce63     Ce65    9.994   .     S
Ce63     Ce64    9.994   .     S
Ce63     Ti66    9.999   .     S
Ce64     Ce65    9.994   .     S
Ce64     Ti67    9.999   .     S
Ce64     V69    10.005   .     S
Ce65     Ti68    9.999   .     S
Ti66     Ti67    10.001   .     S
Ti66     Ti68    10.001   .     S
Ti67     Ti68    10.001   .     S
V69     Er72    10.003   .     S
V69     V70    9.988   .     S
V69     Er71    9.989   1_455     S
V70     Er72    9.989   .     S
V70     Er71    10.003   1_455     S
Er71     Er72    10.001   1_655     S
Er71     V69    9.989   1_655     S
Er71     V70    10.003   1_655     S
Er72     Er71    10.001   1_455     S
