data_hec
_audit_creation_date              2020-02-02
_audit_creation_method            'Pymatgen'
_symmetry_space_group_name_H-M    'P1'
_symmetry_Int_Tables_number       1
loop_
_symmetry_equiv_pos_as_xyz
  x,y,z
_cell_length_a                    65.3761
_cell_length_b                    65.3761
_cell_length_c                    65.3761
_cell_angle_alpha                 90.0
_cell_angle_beta                 90.0
_cell_angle_gamma                 90.0
loop_
_atom_site_label
_atom_site_type_symbol
_atom_site_fract_x
_atom_site_fract_y
_atom_site_fract_z
V1     V     0.7372   0.3437   0.1305
V2     V     0.7372   0.6563   0.1305
V3     V     0.7372   0.6563   0.8695
V4     V     0.7372   0.3437   0.8695
Er5     Er     0.7372   0.5765   0.0
Er6     Er     0.7372   0.4235   0.0
V7     V     0.8437   0.3695   0.2372
V8     V     0.8437   0.6305   0.2372
V9     V     0.1563   0.3695   0.2372
V10     V     0.1563   0.6305   0.2372
Er11     Er     0.9235   0.5   0.2372
Er12     Er     0.0765   0.5   0.2372
V13     V     0.2628   0.6563   0.1305
V14     V     0.2628   0.3437   0.1305
V15     V     0.2628   0.3437   0.8695
V16     V     0.2628   0.6563   0.8695
Er17     Er     0.2628   0.5765   0.0
Er18     Er     0.2628   0.4235   0.0
V19     V     0.6305   0.7628   0.8437
V20     V     0.3695   0.7628   0.8437
V21     V     0.6305   0.7628   0.1563
V22     V     0.3695   0.7628   0.1563
Er23     Er     0.5   0.7628   0.9235
Er24     Er     0.5   0.7628   0.0765
V25     V     0.3437   0.1305   0.7372
V26     V     0.6563   0.1305   0.7372
V27     V     0.6563   0.8695   0.7372
V28     V     0.3437   0.8695   0.7372
Er29     Er     0.5765   0.0   0.7372
Er30     Er     0.4235   0.0   0.7372
V31     V     0.3695   0.2372   0.8437
V32     V     0.6305   0.2372   0.8437
V33     V     0.3695   0.2372   0.1563
V34     V     0.6305   0.2372   0.1563
Er35     Er     0.5   0.2372   0.9235
Er36     Er     0.5   0.2372   0.0765
V37     V     0.6563   0.1305   0.2628
V38     V     0.3437   0.1305   0.2628
V39     V     0.3437   0.8695   0.2628
V40     V     0.6563   0.8695   0.2628
Er41     Er     0.5765   0.0   0.2628
Er42     Er     0.4235   0.0   0.2628
V43     V     0.7628   0.8437   0.6305
V44     V     0.7628   0.8437   0.3695
V45     V     0.7628   0.1563   0.6305
V46     V     0.7628   0.1563   0.3695
Er47     Er     0.7628   0.9235   0.5
Er48     Er     0.7628   0.0765   0.5
V49     V     0.1305   0.2628   0.6563
V50     V     0.1305   0.2628   0.3437
V51     V     0.8695   0.2628   0.3437
V52     V     0.8695   0.2628   0.6563
Er53     Er     0.0   0.2628   0.5765
Er54     Er     0.0   0.2628   0.4235
V55     V     0.8437   0.6305   0.7628
V56     V     0.8437   0.3695   0.7628
V57     V     0.1563   0.6305   0.7628
V58     V     0.1563   0.3695   0.7628
Er59     Er     0.9235   0.5   0.7628
Er60     Er     0.0765   0.5   0.7628
V61     V     0.1305   0.7372   0.3437
V62     V     0.1305   0.7372   0.6563
V63     V     0.8695   0.7372   0.6563
V64     V     0.8695   0.7372   0.3437
Er65     Er     0.0   0.7372   0.5765
Er66     Er     0.0   0.7372   0.4235
V67     V     0.2372   0.8437   0.3695
V68     V     0.2372   0.8437   0.6305
V69     V     0.2372   0.1563   0.3695
V70     V     0.2372   0.1563   0.6305
Er71     Er     0.2372   0.9235   0.5
Er72     Er     0.2372   0.0765   0.5
loop_
_geom_bond_atom_site_label_1
_geom_bond_atom_site_label_2
_geom_bond_distance
_geom_bond_site_symmetry_2
_ccdc_geom_bond_type
V1     V7    10.0   .     S
V1     Er6    10.0   .     S
V1     V34    10.0   .     S
V2     V8    10.0   .     S
V2     Er5    10.0   .     S
V2     V21    10.0   .     S
V3     V55    10.0   .     S
V3     Er5    10.0   1_556     S
V3     V19    10.0   .     S
V4     V56    10.0   .     S
V4     Er6    10.0   1_556     S
V4     V32    10.0   .     S
Er5     V3    10.0   1_554     S
Er5     Er6    10.0   .     S
Er6     V4    10.0   1_554     S
V7     V51    10.0   .     S
V7     Er11    10.0   .     S
V8     V64    10.0   .     S
V8     Er11    10.0   .     S
V9     V50    10.0   .     S
V9     Er12    10.0   .     S
V9     V14    10.0   .     S
V10     V61    10.0   .     S
V10     Er12    10.0   .     S
V10     V13    10.0   .     S
Er11     Er12    10.0   1_655     S
Er12     Er11    10.0   1_455     S
V13     Er17    10.0   .     S
V13     V22    10.0   .     S
V14     Er18    10.0   .     S
V14     V33    10.0   .     S
V15     V58    10.0   .     S
V15     Er18    10.0   1_556     S
V15     V31    10.0   .     S
V16     V57    10.0   .     S
V16     Er17    10.0   1_556     S
V16     V20    10.0   .     S
Er17     V16    10.0   1_554     S
Er17     Er18    10.0   .     S
Er18     V15    10.0   1_554     S
V19     Er23    10.0   .     S
V19     V27    10.0   .     S
V20     Er23    10.0   .     S
V20     V28    10.0   .     S
V21     Er24    10.0   .     S
V21     V40    10.0   .     S
V22     Er24    10.0   .     S
V22     V39    10.0   .     S
Er23     Er24    10.0   1_556     S
Er24     Er23    10.0   1_554     S
V25     V31    10.0   .     S
V25     Er30    10.0   .     S
V25     V70    10.0   .     S
V26     V32    10.0   .     S
V26     Er29    10.0   .     S
V26     V45    10.0   .     S
V27     Er29    10.0   1_565     S
V27     V43    10.0   .     S
V28     Er30    10.0   1_565     S
V28     V68    10.0   .     S
Er29     V27    10.0   1_545     S
Er29     Er30    10.0   .     S
Er30     V28    10.0   1_545     S
V31     Er35    10.0   .     S
V32     Er35    10.0   .     S
V33     Er36    10.0   .     S
V33     V38    10.0   .     S
V34     Er36    10.0   .     S
V34     V37    10.0   .     S
Er35     Er36    10.0   1_556     S
Er36     Er35    10.0   1_554     S
V37     Er41    10.0   .     S
V37     V46    10.0   .     S
V38     Er42    10.0   .     S
V38     V69    10.0   .     S
V39     Er42    10.0   1_565     S
V39     V67    10.0   .     S
V40     Er41    10.0   1_565     S
V40     V44    10.0   .     S
Er41     V40    10.0   1_545     S
Er41     Er42    10.0   .     S
Er42     V39    10.0   1_545     S
V43     Er47    10.0   .     S
V43     V63    10.0   .     S
V44     Er47    10.0   .     S
V44     V64    10.0   .     S
V45     Er48    10.0   .     S
V45     V52    10.0   .     S
V46     Er48    10.0   .     S
V46     V51    10.0   .     S
Er47     Er48    10.0   1_565     S
Er48     Er47    10.0   1_545     S
V49     V70    10.0   .     S
V49     Er53    10.0   .     S
V49     V58    10.0   .     S
V50     V69    10.0   .     S
V50     Er54    10.0   .     S
V51     Er54    10.0   1_655     S
V52     Er53    10.0   1_655     S
V52     V56    10.0   .     S
Er53     V52    10.0   1_455     S
Er53     Er54    10.0   .     S
Er54     V51    10.0   1_455     S
V55     V63    10.0   .     S
V55     Er59    10.0   .     S
V56     Er59    10.0   .     S
V57     V62    10.0   .     S
V57     Er60    10.0   .     S
V58     Er60    10.0   .     S
Er59     Er60    10.0   1_655     S
Er60     Er59    10.0   1_455     S
V61     V67    10.0   .     S
V61     Er66    10.0   .     S
V62     V68    10.0   .     S
V62     Er65    10.0   .     S
V63     Er65    10.0   1_655     S
V64     Er66    10.0   1_655     S
Er65     V63    10.0   1_455     S
Er65     Er66    10.0   .     S
Er66     V64    10.0   1_455     S
V67     Er71    10.0   .     S
V68     Er71    10.0   .     S
V69     Er72    10.0   .     S
V70     Er72    10.0   .     S
Er71     Er72    10.0   1_565     S
Er72     Er71    10.0   1_545     S
