data_hef
_audit_creation_date              2020-02-02
_audit_creation_method            'Pymatgen'
_symmetry_space_group_name_H-M    'P1'
_symmetry_Int_Tables_number       1
loop_
_symmetry_equiv_pos_as_xyz
  x,y,z
_cell_length_a                    89.1182
_cell_length_b                    89.1182
_cell_length_c                    89.1182
_cell_angle_alpha                 90.0
_cell_angle_beta                 90.0
_cell_angle_gamma                 90.0
loop_
_atom_site_label
_atom_site_type_symbol
_atom_site_fract_x
_atom_site_fract_y
_atom_site_fract_z
Er1     Er     0.6165   0.27   0.8093
V2     V     0.5561   0.3646   0.8082
Er3     Er     0.73   0.3835   0.8093
V4     V     0.6354   0.4439   0.8082
Er5     Er     0.77   0.3093   0.8835
V6     V     0.8646   0.3082   0.9439
Er7     Er     0.8835   0.3093   0.77
V8     V     0.9439   0.3082   0.8646
Er9     Er     0.8093   0.27   0.6165
V10     V     0.8082   0.3646   0.5561
Er11     Er     0.8093   0.3835   0.73
V12     V     0.8082   0.4439   0.6354
Er13     Er     0.8835   0.23   0.6907
V14     V     0.9439   0.1354   0.6918
Er15     Er     0.77   0.1165   0.6907
V16     V     0.8646   0.0561   0.6918
Er17     Er     0.6907   0.23   0.8835
V18     V     0.6918   0.1354   0.9439
Er19     Er     0.6907   0.1165   0.77
V20     V     0.6918   0.0561   0.8646
Er21     Er     0.73   0.1907   0.6165
V22     V     0.6354   0.1918   0.5561
Er23     Er     0.6165   0.1907   0.73
V24     V     0.5561   0.1918   0.6354
Er25     Er     0.8093   0.73   0.6165
V26     V     0.8082   0.6354   0.5561
Er27     Er     0.8093   0.6165   0.73
V28     V     0.8082   0.5561   0.6354
Er29     Er     0.8835   0.6907   0.77
V30     V     0.9439   0.6918   0.8646
Er31     Er     0.77   0.6907   0.8835
V32     V     0.8646   0.6918   0.9439
Er33     Er     0.73   0.6165   0.8093
V34     V     0.6354   0.5561   0.8082
Er35     Er     0.6165   0.73   0.8093
V36     V     0.5561   0.6354   0.8082
Er37     Er     0.6907   0.77   0.8835
V38     V     0.6918   0.8646   0.9439
Er39     Er     0.6907   0.8835   0.77
V40     V     0.6918   0.9439   0.8646
Er41     Er     0.77   0.8835   0.6907
V42     V     0.8646   0.9439   0.6918
Er43     Er     0.8835   0.77   0.6907
V44     V     0.9439   0.8646   0.6918
Er45     Er     0.6165   0.8093   0.73
V46     V     0.5561   0.8082   0.6354
Er47     Er     0.73   0.8093   0.6165
V48     V     0.6354   0.8082   0.5561
Er49     Er     0.27   0.8093   0.6165
V50     V     0.3646   0.8082   0.5561
Er51     Er     0.3835   0.8093   0.73
V52     V     0.4439   0.8082   0.6354
Er53     Er     0.3093   0.8835   0.77
V54     V     0.3082   0.9439   0.8646
Er55     Er     0.3093   0.77   0.8835
V56     V     0.3082   0.8646   0.9439
Er57     Er     0.27   0.6165   0.8093
V58     V     0.3646   0.5561   0.8082
Er59     Er     0.3835   0.73   0.8093
V60     V     0.4439   0.6354   0.8082
Er61     Er     0.23   0.6907   0.8835
V62     V     0.1354   0.6918   0.9439
Er63     Er     0.1165   0.6907   0.77
V64     V     0.0561   0.6918   0.8646
Er65     Er     0.23   0.8835   0.6907
V66     V     0.1354   0.9439   0.6918
Er67     Er     0.1165   0.77   0.6907
V68     V     0.0561   0.8646   0.6918
Er69     Er     0.1907   0.6165   0.73
V70     V     0.1918   0.5561   0.6354
Er71     Er     0.1907   0.73   0.6165
V72     V     0.1918   0.6354   0.5561
Er73     Er     0.1165   0.23   0.6907
V74     V     0.0561   0.1354   0.6918
Er75     Er     0.23   0.1165   0.6907
V76     V     0.1354   0.0561   0.6918
Er77     Er     0.3093   0.23   0.8835
V78     V     0.3082   0.1354   0.9439
Er79     Er     0.3093   0.1165   0.77
V80     V     0.3082   0.0561   0.8646
Er81     Er     0.27   0.1907   0.6165
V82     V     0.3646   0.1918   0.5561
Er83     Er     0.3835   0.1907   0.73
V84     V     0.4439   0.1918   0.6354
Er85     Er     0.3835   0.27   0.8093
V86     V     0.4439   0.3646   0.8082
Er87     Er     0.27   0.3835   0.8093
V88     V     0.3646   0.4439   0.8082
Er89     Er     0.23   0.3093   0.8835
V90     V     0.1354   0.3082   0.9439
Er91     Er     0.1165   0.3093   0.77
V92     V     0.0561   0.3082   0.8646
Er93     Er     0.1907   0.27   0.6165
V94     V     0.1918   0.3646   0.5561
Er95     Er     0.1907   0.3835   0.73
V96     V     0.1918   0.4439   0.6354
Er97     Er     0.23   0.6907   0.1165
V98     V     0.1354   0.6918   0.0561
Er99     Er     0.1165   0.6907   0.23
V100     V     0.0561   0.6918   0.1354
Er101     Er     0.1907   0.6165   0.27
V102     V     0.1918   0.5561   0.3646
Er103     Er     0.1907   0.73   0.3835
V104     V     0.1918   0.6354   0.4439
Er105     Er     0.23   0.8835   0.3093
V106     V     0.1354   0.9439   0.3082
Er107     Er     0.1165   0.77   0.3093
V108     V     0.0561   0.8646   0.3082
Er109     Er     0.3835   0.8093   0.27
V110     V     0.4439   0.8082   0.3646
Er111     Er     0.27   0.8093   0.3835
V112     V     0.3646   0.8082   0.4439
Er113     Er     0.3093   0.8835   0.23
V114     V     0.3082   0.9439   0.1354
Er115     Er     0.3093   0.77   0.1165
V116     V     0.3082   0.8646   0.0561
Er117     Er     0.27   0.6165   0.1907
V118     V     0.3646   0.5561   0.1918
Er119     Er     0.3835   0.73   0.1907
V120     V     0.4439   0.6354   0.1918
Er121     Er     0.6165   0.8093   0.27
V122     V     0.5561   0.8082   0.3646
Er123     Er     0.73   0.8093   0.3835
V124     V     0.6354   0.8082   0.4439
Er125     Er     0.8835   0.77   0.3093
V126     V     0.9439   0.8646   0.3082
Er127     Er     0.77   0.8835   0.3093
V128     V     0.8646   0.9439   0.3082
Er129     Er     0.8093   0.6165   0.27
V130     V     0.8082   0.5561   0.3646
Er131     Er     0.8093   0.73   0.3835
V132     V     0.8082   0.6354   0.4439
Er133     Er     0.8835   0.6907   0.23
V134     V     0.9439   0.6918   0.1354
Er135     Er     0.77   0.6907   0.1165
V136     V     0.8646   0.6918   0.0561
Er137     Er     0.6907   0.8835   0.23
V138     V     0.6918   0.9439   0.1354
Er139     Er     0.6907   0.77   0.1165
V140     V     0.6918   0.8646   0.0561
Er141     Er     0.73   0.6165   0.1907
V142     V     0.6354   0.5561   0.1918
Er143     Er     0.6165   0.73   0.1907
V144     V     0.5561   0.6354   0.1918
Er145     Er     0.3835   0.1907   0.27
V146     V     0.4439   0.1918   0.3646
Er147     Er     0.27   0.1907   0.3835
V148     V     0.3646   0.1918   0.4439
Er149     Er     0.3093   0.23   0.1165
V150     V     0.3082   0.1354   0.0561
Er151     Er     0.3093   0.1165   0.23
V152     V     0.3082   0.0561   0.1354
Er153     Er     0.3835   0.27   0.1907
V154     V     0.4439   0.3646   0.1918
Er155     Er     0.27   0.3835   0.1907
V156     V     0.3646   0.4439   0.1918
Er157     Er     0.23   0.1165   0.3093
V158     V     0.1354   0.0561   0.3082
Er159     Er     0.1165   0.23   0.3093
V160     V     0.0561   0.1354   0.3082
Er161     Er     0.1907   0.3835   0.27
V162     V     0.1918   0.4439   0.3646
Er163     Er     0.1907   0.27   0.3835
V164     V     0.1918   0.3646   0.4439
Er165     Er     0.23   0.3093   0.1165
V166     V     0.1354   0.3082   0.0561
Er167     Er     0.1165   0.3093   0.23
V168     V     0.0561   0.3082   0.1354
Er169     Er     0.6907   0.1165   0.23
V170     V     0.6918   0.0561   0.1354
Er171     Er     0.6907   0.23   0.1165
V172     V     0.6918   0.1354   0.0561
Er173     Er     0.8835   0.23   0.3093
V174     V     0.9439   0.1354   0.3082
Er175     Er     0.77   0.1165   0.3093
V176     V     0.8646   0.0561   0.3082
Er177     Er     0.6165   0.1907   0.27
V178     V     0.5561   0.1918   0.3646
Er179     Er     0.73   0.1907   0.3835
V180     V     0.6354   0.1918   0.4439
Er181     Er     0.8093   0.3835   0.27
V182     V     0.8082   0.4439   0.3646
Er183     Er     0.8093   0.27   0.3835
V184     V     0.8082   0.3646   0.4439
Er185     Er     0.8835   0.3093   0.23
V186     V     0.9439   0.3082   0.1354
Er187     Er     0.77   0.3093   0.1165
V188     V     0.8646   0.3082   0.0561
Er189     Er     0.6165   0.27   0.1907
V190     V     0.5561   0.3646   0.1918
Er191     Er     0.73   0.3835   0.1907
V192     V     0.6354   0.4439   0.1918
loop_
_geom_bond_atom_site_label_1
_geom_bond_atom_site_label_2
_geom_bond_distance
_geom_bond_site_symmetry_2
_ccdc_geom_bond_type
Er1     V2    9.999   .     S
Er1     Er17    10.0   .     S
Er1     Er23    10.001   .     S
V2     V4    9.999   .     S
V2     V86    10.001   .     S
Er3     V4    9.999   .     S
Er3     Er5    10.0   .     S
Er3     Er11    10.001   .     S
V4     V34    10.001   .     S
Er5     V6    9.999   .     S
Er5     Er17    10.001   .     S
V6     V8    9.999   .     S
V6     V188    10.001   1_556     S
Er7     V8    9.999   .     S
Er7     Er11    10.0   .     S
Er7     Er13    10.001   .     S
V8     V92    10.001   1_655     S
Er9     V10    9.999   .     S
Er9     Er13    10.0   .     S
Er9     Er21    10.001   .     S
V10     V12    9.999   .     S
V10     V184    10.001   .     S
Er11     V12    9.999   .     S
V12     V28    10.001   .     S
Er13     V14    9.999   .     S
V14     V16    9.999   .     S
V14     V74    10.001   1_655     S
Er15     V16    9.999   .     S
Er15     Er21    10.0   .     S
Er15     Er19    10.001   .     S
V16     V42    10.001   1_545     S
Er17     V18    9.999   .     S
V18     V20    9.999   .     S
V18     V172    10.001   1_556     S
Er19     V20    9.999   .     S
Er19     Er23    10.0   .     S
V20     V40    10.001   1_545     S
Er21     V22    9.999   .     S
V22     V24    9.999   .     S
V22     V180    10.001   .     S
Er23     V24    9.999   .     S
V24     V84    10.001   .     S
Er25     V26    9.999   .     S
Er25     Er43    10.0   .     S
Er25     Er47    10.001   .     S
V26     V28    9.999   .     S
V26     V132    10.001   .     S
Er27     V28    9.999   .     S
Er27     Er29    10.0   .     S
Er27     Er33    10.001   .     S
Er29     V30    9.999   .     S
Er29     Er43    10.001   .     S
V30     V32    9.999   .     S
V30     V64    10.001   1_655     S
Er31     V32    9.999   .     S
Er31     Er33    10.0   .     S
Er31     Er37    10.001   .     S
V32     V136    10.001   1_556     S
Er33     V34    9.999   .     S
V34     V36    9.999   .     S
Er35     V36    9.999   .     S
Er35     Er37    10.0   .     S
Er35     Er45    10.001   .     S
V36     V60    10.001   .     S
Er37     V38    9.999   .     S
V38     V40    9.999   .     S
V38     V140    10.001   1_556     S
Er39     V40    9.999   .     S
Er39     Er45    10.0   .     S
Er39     Er41    10.001   .     S
V40     V20    10.001   1_565     S
Er41     V42    9.999   .     S
Er41     Er47    10.0   .     S
V42     V44    9.999   .     S
V42     V16    10.001   1_565     S
Er43     V44    9.999   .     S
V44     V68    10.001   1_655     S
Er45     V46    9.999   .     S
V46     V48    9.999   .     S
V46     V52    10.001   .     S
Er47     V48    9.999   .     S
V48     V124    10.001   .     S
Er49     V50    9.999   .     S
Er49     Er65    10.0   .     S
Er49     Er71    10.001   .     S
V50     V52    9.999   .     S
V50     V112    10.001   .     S
Er51     V52    9.999   .     S
Er51     Er53    10.0   .     S
Er51     Er59    10.001   .     S
Er53     V54    9.999   .     S
Er53     Er65    10.001   .     S
V54     V56    9.999   .     S
V54     V80    10.001   1_565     S
Er55     V56    9.999   .     S
Er55     Er59    10.0   .     S
Er55     Er61    10.001   .     S
V56     V116    10.001   1_556     S
Er57     V58    9.999   .     S
Er57     Er61    10.0   .     S
Er57     Er69    10.001   .     S
V58     V60    9.999   .     S
V58     V88    10.001   .     S
Er59     V60    9.999   .     S
Er61     V62    9.999   .     S
V62     V64    9.999   .     S
V62     V98    10.001   1_556     S
Er63     V64    9.999   .     S
Er63     Er69    10.0   .     S
Er63     Er67    10.001   .     S
V64     V30    10.001   1_455     S
Er65     V66    9.999   .     S
V66     V68    9.999   .     S
V66     V76    10.001   1_565     S
Er67     V68    9.999   .     S
Er67     Er71    10.0   .     S
V68     V44    10.001   1_455     S
Er69     V70    9.999   .     S
V70     V72    9.999   .     S
V70     V96    10.001   .     S
Er71     V72    9.999   .     S
V72     V104    10.001   .     S
Er73     V74    9.999   .     S
Er73     Er93    10.0   .     S
Er73     Er91    10.001   .     S
V74     V14    10.001   1_455     S
V74     V76    9.999   .     S
Er75     V76    9.999   .     S
Er75     Er81    10.0   .     S
Er75     Er79    10.001   .     S
V76     V66    10.001   1_545     S
Er77     V78    9.999   .     S
Er77     Er85    10.0   .     S
Er77     Er89    10.001   .     S
V78     V80    9.999   .     S
V78     V150    10.001   1_556     S
Er79     V80    9.999   .     S
Er79     Er83    10.0   .     S
V80     V54    10.001   1_545     S
Er81     V82    9.999   .     S
Er81     Er93    10.001   .     S
V82     V84    9.999   .     S
V82     V148    10.001   .     S
Er83     V84    9.999   .     S
Er83     Er85    10.001   .     S
Er85     V86    9.999   .     S
V86     V88    9.999   .     S
Er87     V88    9.999   .     S
Er87     Er89    10.0   .     S
Er87     Er95    10.001   .     S
Er89     V90    9.999   .     S
V90     V92    9.999   .     S
V90     V166    10.001   1_556     S
Er91     V92    9.999   .     S
Er91     Er95    10.0   .     S
V92     V8    10.001   1_455     S
Er93     V94    9.999   .     S
V94     V96    9.999   .     S
V94     V164    10.001   .     S
Er95     V96    9.999   .     S
Er97     V98    9.999   .     S
Er97     Er117    10.0   .     S
Er97     Er115    10.001   .     S
V98     V62    10.001   1_554     S
V98     V100    9.999   .     S
Er99     V100    9.999   .     S
Er99     Er101    10.0   .     S
Er99     Er107    10.001   .     S
V100     V134    10.001   1_455     S
Er101     V102    9.999   .     S
Er101     Er117    10.001   .     S
V102     V104    9.999   .     S
V102     V162    10.001   .     S
Er103     V104    9.999   .     S
Er103     Er107    10.0   .     S
Er103     Er111    10.001   .     S
Er105     V106    9.999   .     S
Er105     Er111    10.0   .     S
Er105     Er113    10.001   .     S
V106     V108    9.999   .     S
V106     V158    10.001   1_565     S
Er107     V108    9.999   .     S
V108     V126    10.001   1_455     S
Er109     V110    9.999   .     S
Er109     Er113    10.0   .     S
Er109     Er119    10.001   .     S
V110     V112    9.999   .     S
V110     V122    10.001   .     S
Er111     V112    9.999   .     S
Er113     V114    9.999   .     S
V114     V116    9.999   .     S
V114     V152    10.001   1_565     S
Er115     V116    9.999   .     S
Er115     Er119    10.0   .     S
V116     V56    10.001   1_554     S
Er117     V118    9.999   .     S
V118     V120    9.999   .     S
V118     V156    10.001   .     S
Er119     V120    9.999   .     S
V120     V144    10.001   .     S
Er121     V122    9.999   .     S
Er121     Er137    10.0   .     S
Er121     Er143    10.001   .     S
V122     V124    9.999   .     S
Er123     V124    9.999   .     S
Er123     Er127    10.0   .     S
Er123     Er131    10.001   .     S
Er125     V126    9.999   .     S
Er125     Er131    10.0   .     S
Er125     Er133    10.001   .     S
V126     V128    9.999   .     S
V126     V108    10.001   1_655     S
Er127     V128    9.999   .     S
Er127     Er137    10.001   .     S
V128     V176    10.001   1_565     S
Er129     V130    9.999   .     S
Er129     Er133    10.0   .     S
Er129     Er141    10.001   .     S
V130     V132    9.999   .     S
V130     V182    10.001   .     S
Er131     V132    9.999   .     S
Er133     V134    9.999   .     S
V134     V136    9.999   .     S
V134     V100    10.001   1_655     S
Er135     V136    9.999   .     S
Er135     Er141    10.0   .     S
Er135     Er139    10.001   .     S
V136     V32    10.001   1_554     S
Er137     V138    9.999   .     S
V138     V140    9.999   .     S
V138     V170    10.001   1_565     S
Er139     V140    9.999   .     S
Er139     Er143    10.0   .     S
V140     V38    10.001   1_554     S
Er141     V142    9.999   .     S
V142     V144    9.999   .     S
V142     V192    10.001   .     S
Er143     V144    9.999   .     S
Er145     V146    9.999   .     S
Er145     Er151    10.0   .     S
Er145     Er153    10.001   .     S
V146     V148    9.999   .     S
V146     V178    10.001   .     S
Er147     V148    9.999   .     S
Er147     Er157    10.0   .     S
Er147     Er163    10.001   .     S
Er149     V150    9.999   .     S
Er149     Er153    10.0   .     S
Er149     Er165    10.001   .     S
V150     V78    10.001   1_554     S
V150     V152    9.999   .     S
Er151     V152    9.999   .     S
Er151     Er157    10.001   .     S
V152     V114    10.001   1_545     S
Er153     V154    9.999   .     S
V154     V156    9.999   .     S
V154     V190    10.001   .     S
Er155     V156    9.999   .     S
Er155     Er165    10.0   .     S
Er155     Er161    10.001   .     S
Er157     V158    9.999   .     S
V158     V106    10.001   1_545     S
V158     V160    9.999   .     S
Er159     V160    9.999   .     S
Er159     Er163    10.0   .     S
Er159     Er167    10.001   .     S
V160     V174    10.001   1_455     S
Er161     V162    9.999   .     S
Er161     Er167    10.0   .     S
V162     V164    9.999   .     S
Er163     V164    9.999   .     S
Er165     V166    9.999   .     S
V166     V90    10.001   1_554     S
V166     V168    9.999   .     S
Er167     V168    9.999   .     S
V168     V186    10.001   1_455     S
Er169     V170    9.999   .     S
Er169     Er177    10.0   .     S
Er169     Er175    10.001   .     S
V170     V138    10.001   1_545     S
V170     V172    9.999   .     S
Er171     V172    9.999   .     S
Er171     Er189    10.0   .     S
Er171     Er187    10.001   .     S
V172     V18    10.001   1_554     S
Er173     V174    9.999   .     S
Er173     Er183    10.0   .     S
Er173     Er185    10.001   .     S
V174     V176    9.999   .     S
V174     V160    10.001   1_655     S
Er175     V176    9.999   .     S
Er175     Er179    10.0   .     S
V176     V128    10.001   1_545     S
Er177     V178    9.999   .     S
Er177     Er189    10.001   .     S
V178     V180    9.999   .     S
Er179     V180    9.999   .     S
Er179     Er183    10.001   .     S
Er181     V182    9.999   .     S
Er181     Er185    10.0   .     S
Er181     Er191    10.001   .     S
V182     V184    9.999   .     S
Er183     V184    9.999   .     S
Er185     V186    9.999   .     S
V186     V188    9.999   .     S
V186     V168    10.001   1_655     S
Er187     V188    9.999   .     S
Er187     Er191    10.0   .     S
V188     V6    10.001   1_554     S
Er189     V190    9.999   .     S
V190     V192    9.999   .     S
Er191     V192    9.999   .     S
