data_heta
_audit_creation_date              2020-02-02
_audit_creation_method            'Pymatgen'
_symmetry_space_group_name_H-M    'P1'
_symmetry_Int_Tables_number       1
loop_
_symmetry_equiv_pos_as_xyz
  x,y,z
_cell_length_a                    106.1806
_cell_length_b                    106.1806
_cell_length_c                    106.1806
_cell_angle_alpha                 90.0
_cell_angle_beta                 90.0
_cell_angle_gamma                 90.0
loop_
_atom_site_label
_atom_site_type_symbol
_atom_site_fract_x
_atom_site_fract_y
_atom_site_fract_z
Ti1     Ti     0.7226   0.7226   0.7892
Ti2     Ti     0.7226   0.7892   0.7226
Ti3     Ti     0.7892   0.7226   0.7226
Ti4     Ti     0.2774   0.2108   0.7226
Ti5     Ti     0.2108   0.2774   0.7226
Ti6     Ti     0.2774   0.2774   0.7892
Ti7     Ti     0.2108   0.7226   0.2774
Ti8     Ti     0.2774   0.7226   0.2108
Ti9     Ti     0.2774   0.7892   0.2774
Ti10     Ti     0.7226   0.2108   0.2774
Ti11     Ti     0.7226   0.2774   0.2108
Ti12     Ti     0.7892   0.2774   0.2774
Ti13     Ti     0.2226   0.7108   0.7774
Ti14     Ti     0.2226   0.7774   0.7108
Ti15     Ti     0.2892   0.7774   0.7774
Ti16     Ti     0.7108   0.2226   0.7774
Ti17     Ti     0.7774   0.2226   0.7108
Ti18     Ti     0.7774   0.2892   0.7774
Ti19     Ti     0.7108   0.7774   0.2226
Ti20     Ti     0.7774   0.7108   0.2226
Ti21     Ti     0.7774   0.7774   0.2892
Ti22     Ti     0.2226   0.2226   0.2892
Ti23     Ti     0.2226   0.2892   0.2226
Ti24     Ti     0.2892   0.2226   0.2226
Er25     Er     0.4327   0.8159   0.8824
Er26     Er     0.4327   0.8824   0.8159
Ce27     Ce     0.3662   0.8158   0.8158
Er28     Er     0.8159   0.4327   0.8824
Er29     Er     0.8824   0.4327   0.8159
Ce30     Ce     0.8158   0.3662   0.8158
Er31     Er     0.8159   0.8824   0.4327
Er32     Er     0.8824   0.8159   0.4327
Ce33     Ce     0.8158   0.8158   0.3662
Er34     Er     0.1176   0.5673   0.8159
Er35     Er     0.1841   0.5673   0.8824
Ce36     Ce     0.1842   0.6338   0.8158
Er37     Er     0.1176   0.8159   0.5673
Er38     Er     0.1841   0.8824   0.5673
Ce39     Ce     0.1842   0.8158   0.6338
Er40     Er     0.0673   0.3159   0.6176
Er41     Er     0.0673   0.3824   0.6841
Ce42     Ce     0.1338   0.3158   0.6842
V43     V     0.9591   0.4766   0.7833
V44     V     0.0409   0.5234   0.7833
V45     V     0.0234   0.4591   0.7167
V46     V     0.9766   0.5409   0.7167
Er47     Er     0.9327   0.6176   0.6841
Er48     Er     0.9327   0.6841   0.6176
Ce49     Ce     0.8662   0.6842   0.6842
Er50     Er     0.0673   0.6841   0.3824
Er51     Er     0.0673   0.6176   0.3159
Ce52     Ce     0.1338   0.6842   0.3158
V53     V     0.9591   0.7833   0.4766
V54     V     0.0409   0.7833   0.5234
V55     V     0.0234   0.7167   0.4591
V56     V     0.9766   0.7167   0.5409
Er57     Er     0.5673   0.1176   0.8159
Er58     Er     0.5673   0.1841   0.8824
Ce59     Ce     0.6338   0.1842   0.8158
Er60     Er     0.8159   0.1176   0.5673
Er61     Er     0.8824   0.1841   0.5673
Ce62     Ce     0.8158   0.1842   0.6338
Er63     Er     0.3159   0.0673   0.6176
Er64     Er     0.3824   0.0673   0.6841
Ce65     Ce     0.3158   0.1338   0.6842
V66     V     0.4766   0.9591   0.7833
V67     V     0.5234   0.0409   0.7833
V68     V     0.4591   0.0234   0.7167
V69     V     0.5409   0.9766   0.7167
Er70     Er     0.6176   0.9327   0.6841
Er71     Er     0.6841   0.9327   0.6176
Ce72     Ce     0.6842   0.8662   0.6842
Er73     Er     0.6841   0.0673   0.3824
Er74     Er     0.6176   0.0673   0.3159
Ce75     Ce     0.6842   0.1338   0.3158
V76     V     0.7833   0.9591   0.4766
V77     V     0.7833   0.0409   0.5234
V78     V     0.7167   0.0234   0.4591
V79     V     0.7167   0.9766   0.5409
Er80     Er     0.3159   0.3824   0.9327
Er81     Er     0.3824   0.3159   0.9327
Ce82     Ce     0.3158   0.3158   0.8662
V83     V     0.2833   0.5409   0.0234
V84     V     0.2833   0.4591   0.9766
V85     V     0.2167   0.5234   0.9591
V86     V     0.2167   0.4766   0.0409
V87     V     0.9591   0.5234   0.2167
V88     V     0.0409   0.4766   0.2167
V89     V     0.0234   0.5409   0.2833
V90     V     0.9766   0.4591   0.2833
Er91     Er     0.1841   0.4327   0.1176
Er92     Er     0.1176   0.4327   0.1841
Ce93     Ce     0.1842   0.3662   0.1842
Er94     Er     0.9327   0.3824   0.3159
Er95     Er     0.9327   0.3159   0.3824
Ce96     Ce     0.8662   0.3158   0.3158
V97     V     0.5409   0.2833   0.0234
V98     V     0.4591   0.2833   0.9766
V99     V     0.5234   0.2167   0.9591
V100     V     0.4766   0.2167   0.0409
V101     V     0.5234   0.9591   0.2167
V102     V     0.4766   0.0409   0.2167
V103     V     0.5409   0.0234   0.2833
V104     V     0.4591   0.9766   0.2833
Er105     Er     0.4327   0.1841   0.1176
Er106     Er     0.4327   0.1176   0.1841
Ce107     Ce     0.3662   0.1842   0.1842
Er108     Er     0.3824   0.9327   0.3159
Er109     Er     0.3159   0.9327   0.3824
Ce110     Ce     0.3158   0.8662   0.3158
V111     V     0.2833   0.0234   0.5409
V112     V     0.2833   0.9766   0.4591
V113     V     0.2167   0.9591   0.5234
V114     V     0.2167   0.0409   0.4766
V115     V     0.0234   0.2833   0.5409
V116     V     0.9766   0.2833   0.4591
V117     V     0.9591   0.2167   0.5234
V118     V     0.0409   0.2167   0.4766
Er119     Er     0.1841   0.1176   0.4327
Er120     Er     0.1176   0.1841   0.4327
Ce121     Ce     0.1842   0.1842   0.3662
Er122     Er     0.8159   0.5673   0.1176
Er123     Er     0.8824   0.5673   0.1841
Ce124     Ce     0.8158   0.6338   0.1842
Er125     Er     0.5673   0.8159   0.1176
Er126     Er     0.5673   0.8824   0.1841
Ce127     Ce     0.6338   0.8158   0.1842
Er128     Er     0.6176   0.3159   0.0673
Er129     Er     0.6841   0.3824   0.0673
Ce130     Ce     0.6842   0.3158   0.1338
V131     V     0.7833   0.4766   0.9591
V132     V     0.7833   0.5234   0.0409
V133     V     0.7167   0.4591   0.0234
V134     V     0.7167   0.5409   0.9766
Er135     Er     0.6841   0.6176   0.9327
Er136     Er     0.6176   0.6841   0.9327
Ce137     Ce     0.6842   0.6842   0.8662
Er138     Er     0.3824   0.6841   0.0673
Er139     Er     0.3159   0.6176   0.0673
Ce140     Ce     0.3158   0.6842   0.1338
V141     V     0.4766   0.7833   0.9591
V142     V     0.5234   0.7833   0.0409
V143     V     0.4591   0.7167   0.0234
V144     V     0.5409   0.7167   0.9766
loop_
_geom_bond_atom_site_label_1
_geom_bond_atom_site_label_2
_geom_bond_distance
_geom_bond_site_symmetry_2
_ccdc_geom_bond_type
Ti1     Ti2    9.999   .     S
Ti1     Ti3    9.999   .     S
Ti1     Ce137    10.0   .     S
Ti2     Ti3    9.999   .     S
Ti2     Ce72    10.0   .     S
Ti3     Ce49    10.0   .     S
Ti4     Ti6    9.999   .     S
Ti4     Ti5    9.999   .     S
Ti4     Ce65    10.0   .     S
Ti5     Ti6    9.999   .     S
Ti5     Ce42    10.0   .     S
Ti6     Ce82    10.0   .     S
Ti7     Ti9    9.999   .     S
Ti7     Ti8    9.999   .     S
Ti7     Ce52    10.0   .     S
Ti8     Ti9    9.999   .     S
Ti8     Ce140    10.0   .     S
Ti9     Ce110    10.0   .     S
Ti10     Ti12    9.999   .     S
Ti10     Ti11    9.999   .     S
Ti10     Ce75    10.0   .     S
Ti11     Ti12    9.999   .     S
Ti11     Ce130    10.0   .     S
Ti12     Ce96    10.0   .     S
Ti13     Ti15    9.999   .     S
Ti13     Ti14    9.999   .     S
Ti13     Ce36    10.0   .     S
Ti14     Ti15    9.999   .     S
Ti14     Ce39    10.0   .     S
Ti15     Ce27    10.0   .     S
Ti16     Ti18    9.999   .     S
Ti16     Ti17    9.999   .     S
Ti16     Ce59    10.0   .     S
Ti17     Ti18    9.999   .     S
Ti17     Ce62    10.0   .     S
Ti18     Ce30    10.0   .     S
Ti19     Ti21    9.999   .     S
Ti19     Ti20    9.999   .     S
Ti19     Ce127    10.0   .     S
Ti20     Ti21    9.999   .     S
Ti20     Ce124    10.0   .     S
Ti21     Ce33    10.0   .     S
Ti22     Ti23    9.999   .     S
Ti22     Ti24    9.999   .     S
Ti22     Ce121    10.0   .     S
Ti23     Ti24    9.999   .     S
Ti23     Ce93    10.0   .     S
Ti24     Ce107    10.0   .     S
Er25     Ce27    9.999   .     S
Er25     Er26    9.999   .     S
Er25     V141    10.001   .     S
Er26     Ce27    9.999   .     S
Er26     V66    10.001   .     S
Er28     Ce30    9.999   .     S
Er28     Er29    9.999   .     S
Er28     V131    10.001   .     S
Er29     Ce30    9.999   .     S
Er29     V43    10.001   .     S
Er31     Ce33    9.999   .     S
Er31     Er32    9.999   .     S
Er31     V76    10.001   .     S
Er32     Ce33    9.999   .     S
Er32     V53    10.001   .     S
Er34     Ce36    9.999   .     S
Er34     Er35    9.999   .     S
Er34     V44    10.001   .     S
Er35     Ce36    9.999   .     S
Er35     V85    10.001   .     S
Er37     Ce39    9.999   .     S
Er37     Er38    9.999   .     S
Er37     V54    10.001   .     S
Er38     Ce39    9.999   .     S
Er38     V113    10.001   .     S
Er40     Ce42    9.999   .     S
Er40     Er41    9.999   .     S
Er40     V115    10.001   .     S
Er41     Ce42    9.999   .     S
Er41     V45    10.001   .     S
V43     V44    10.0   1_655     S
V43     V45    10.0   1_655     S
V43     V46    10.0   .     S
V44     V43    10.0   1_455     S
V44     V45    10.0   .     S
V44     V46    10.0   1_455     S
V45     V46    10.0   1_455     S
V45     V43    10.0   1_455     S
V46     V45    10.0   1_655     S
V46     V44    10.0   1_655     S
V46     Er47    10.001   .     S
Er47     Ce49    9.999   .     S
Er47     Er48    9.999   .     S
Er48     Ce49    9.999   .     S
Er48     V56    10.001   .     S
Er50     Ce52    9.999   .     S
Er50     Er51    9.999   .     S
Er50     V55    10.001   .     S
Er51     Ce52    9.999   .     S
Er51     V89    10.001   .     S
V53     V54    10.0   1_655     S
V53     V55    10.0   1_655     S
V53     V56    10.0   .     S
V54     V53    10.0   1_455     S
V54     V55    10.0   .     S
V54     V56    10.0   1_455     S
V55     V56    10.0   1_455     S
V55     V53    10.0   1_455     S
V56     V55    10.0   1_655     S
V56     V54    10.0   1_655     S
Er57     Ce59    9.999   .     S
Er57     Er58    9.999   .     S
Er57     V67    10.001   .     S
Er58     Ce59    9.999   .     S
Er58     V99    10.001   .     S
Er60     Ce62    9.999   .     S
Er60     Er61    9.999   .     S
Er60     V77    10.001   .     S
Er61     Ce62    9.999   .     S
Er61     V117    10.001   .     S
Er63     Ce65    9.999   .     S
Er63     Er64    9.999   .     S
Er63     V111    10.001   .     S
Er64     Ce65    9.999   .     S
Er64     V68    10.001   .     S
V66     V67    10.0   1_565     S
V66     V68    10.0   1_565     S
V66     V69    10.0   .     S
V67     V66    10.0   1_545     S
V67     V68    10.0   .     S
V67     V69    10.0   1_545     S
V68     V69    10.0   1_545     S
V68     V66    10.0   1_545     S
V69     V68    10.0   1_565     S
V69     V67    10.0   1_565     S
V69     Er70    10.001   .     S
Er70     Ce72    9.999   .     S
Er70     Er71    9.999   .     S
Er71     Ce72    9.999   .     S
Er71     V79    10.001   .     S
Er73     Ce75    9.999   .     S
Er73     Er74    9.999   .     S
Er73     V78    10.001   .     S
Er74     Ce75    9.999   .     S
Er74     V103    10.001   .     S
V76     V77    10.0   1_565     S
V76     V78    10.0   1_565     S
V76     V79    10.0   .     S
V77     V76    10.0   1_545     S
V77     V78    10.0   .     S
V77     V79    10.0   1_545     S
V78     V79    10.0   1_545     S
V78     V76    10.0   1_545     S
V79     V78    10.0   1_565     S
V79     V77    10.0   1_565     S
Er80     Ce82    9.999   .     S
Er80     Er81    9.999   .     S
Er80     V84    10.001   .     S
Er81     Ce82    9.999   .     S
Er81     V98    10.001   .     S
V83     V84    10.0   1_554     S
V83     V86    10.0   .     S
V83     V85    10.0   1_554     S
V83     Er139    10.001   .     S
V84     V83    10.0   1_556     S
V84     V85    10.0   .     S
V84     V86    10.0   1_556     S
V85     V86    10.0   1_556     S
V85     V83    10.0   1_556     S
V86     V85    10.0   1_554     S
V86     V84    10.0   1_554     S
V86     Er91    10.001   .     S
V87     V88    10.0   1_655     S
V87     V90    10.0   .     S
V87     V89    10.0   1_655     S
V87     Er123    10.001   .     S
V88     V87    10.0   1_455     S
V88     V90    10.0   1_455     S
V88     V89    10.0   .     S
V88     Er92    10.001   .     S
V89     V90    10.0   1_455     S
V89     V87    10.0   1_455     S
V90     V89    10.0   1_655     S
V90     V88    10.0   1_655     S
V90     Er94    10.001   .     S
Er91     Ce93    9.999   .     S
Er91     Er92    9.999   .     S
Er92     Ce93    9.999   .     S
Er94     Ce96    9.999   .     S
Er94     Er95    9.999   .     S
Er95     Ce96    9.999   .     S
Er95     V116    10.001   .     S
V97     V98    10.0   1_554     S
V97     V100    10.0   .     S
V97     V99    10.0   1_554     S
V97     Er128    10.001   .     S
V98     V97    10.0   1_556     S
V98     V99    10.0   .     S
V98     V100    10.0   1_556     S
V99     V100    10.0   1_556     S
V99     V97    10.0   1_556     S
V100     V99    10.0   1_554     S
V100     V98    10.0   1_554     S
V100     Er105    10.001   .     S
V101     V102    10.0   1_565     S
V101     V104    10.0   .     S
V101     V103    10.0   1_565     S
V101     Er126    10.001   .     S
V102     V101    10.0   1_545     S
V102     V104    10.0   1_545     S
V102     V103    10.0   .     S
V102     Er106    10.001   .     S
V103     V104    10.0   1_545     S
V103     V101    10.0   1_545     S
V104     V103    10.0   1_565     S
V104     V102    10.0   1_565     S
V104     Er108    10.001   .     S
Er105     Ce107    9.999   .     S
Er105     Er106    9.999   .     S
Er106     Ce107    9.999   .     S
Er108     Ce110    9.999   .     S
Er108     Er109    9.999   .     S
Er109     Ce110    9.999   .     S
Er109     V112    10.001   .     S
V111     V112    10.0   1_545     S
V111     V114    10.0   .     S
V111     V113    10.0   1_545     S
V112     V111    10.0   1_565     S
V112     V113    10.0   .     S
V112     V114    10.0   1_565     S
V113     V114    10.0   1_565     S
V113     V111    10.0   1_565     S
V114     V113    10.0   1_545     S
V114     V112    10.0   1_545     S
V114     Er119    10.001   .     S
V115     V116    10.0   1_455     S
V115     V118    10.0   .     S
V115     V117    10.0   1_455     S
V116     V115    10.0   1_655     S
V116     V117    10.0   .     S
V116     V118    10.0   1_655     S
V117     V118    10.0   1_655     S
V117     V115    10.0   1_655     S
V118     V117    10.0   1_455     S
V118     V116    10.0   1_455     S
V118     Er120    10.001   .     S
Er119     Ce121    9.999   .     S
Er119     Er120    9.999   .     S
Er120     Ce121    9.999   .     S
Er122     Ce124    9.999   .     S
Er122     Er123    9.999   .     S
Er122     V132    10.001   .     S
Er123     Ce124    9.999   .     S
Er125     Ce127    9.999   .     S
Er125     Er126    9.999   .     S
Er125     V142    10.001   .     S
Er126     Ce127    9.999   .     S
Er128     Ce130    9.999   .     S
Er128     Er129    9.999   .     S
Er129     Ce130    9.999   .     S
Er129     V133    10.001   .     S
V131     V132    10.0   1_556     S
V131     V133    10.0   1_556     S
V131     V134    10.0   .     S
V132     V131    10.0   1_554     S
V132     V133    10.0   .     S
V132     V134    10.0   1_554     S
V133     V134    10.0   1_554     S
V133     V131    10.0   1_554     S
V134     V133    10.0   1_556     S
V134     V132    10.0   1_556     S
V134     Er135    10.001   .     S
Er135     Ce137    9.999   .     S
Er135     Er136    9.999   .     S
Er136     Ce137    9.999   .     S
Er136     V144    10.001   .     S
Er138     Ce140    9.999   .     S
Er138     Er139    9.999   .     S
Er138     V143    10.001   .     S
Er139     Ce140    9.999   .     S
V141     V142    10.0   1_556     S
V141     V143    10.0   1_556     S
V141     V144    10.0   .     S
V142     V141    10.0   1_554     S
V142     V143    10.0   .     S
V142     V144    10.0   1_554     S
V143     V144    10.0   1_554     S
V143     V141    10.0   1_554     S
V144     V143    10.0   1_556     S
V144     V142    10.0   1_556     S
