data_heya
_audit_creation_date              2020-02-02
_audit_creation_method            'Pymatgen'
_symmetry_space_group_name_H-M    'P1'
_symmetry_Int_Tables_number       1
loop_
_symmetry_equiv_pos_as_xyz
  x,y,z
_cell_length_a                    86.3601
_cell_length_b                    86.3601
_cell_length_c                    86.3601
_cell_angle_alpha                 90.0
_cell_angle_beta                 90.0
_cell_angle_gamma                 90.0
loop_
_atom_site_label
_atom_site_type_symbol
_atom_site_fract_x
_atom_site_fract_y
_atom_site_fract_z
Ti1     Ti     0.0799   0.4431   0.0179
Ti2     Ti     0.4431   0.0179   0.0799
Ti3     Ti     0.0179   0.0799   0.4431
Ti4     Ti     0.0569   0.4201   0.4821
Ti5     Ti     0.4821   0.0569   0.4201
Ce6     Ce     0.25   0.3792   0.1208
V7     V     0.1928   0.4438   0.0436
V8     V     0.3072   0.4564   0.0562
Ce9     Ce     0.3792   0.1208   0.25
V10     V     0.4438   0.0436   0.1928
V11     V     0.4564   0.0562   0.3072
Er12     Er     0.2973   0.2027   0.25
Er13     Er     0.2027   0.25   0.2973
Er14     Er     0.25   0.2973   0.2027
Ce15     Ce     0.1208   0.25   0.3792
V16     V     0.0436   0.1928   0.4438
V17     V     0.0562   0.3072   0.4564
Ti18     Ti     0.4201   0.4821   0.0569
Ti19     Ti     0.0569   0.4821   0.5799
Ti20     Ti     0.0179   0.4431   0.9201
Ti21     Ti     0.4431   0.0799   0.9821
Ti22     Ti     0.0799   0.0179   0.5569
Ti23     Ti     0.4821   0.4201   0.9431
Ce24     Ce     0.1208   0.3792   0.75
V25     V     0.0436   0.4438   0.8072
V26     V     0.0562   0.4564   0.6928
Er27     Er     0.2973   0.25   0.7973
Er28     Er     0.25   0.2027   0.7027
Er29     Er     0.2027   0.2973   0.75
Ce30     Ce     0.3792   0.25   0.8792
V31     V     0.4564   0.3072   0.9438
V32     V     0.4438   0.1928   0.9564
Ce33     Ce     0.25   0.1208   0.6208
V34     V     0.1928   0.0436   0.5562
V35     V     0.3072   0.0562   0.5436
Ti36     Ti     0.4201   0.0569   0.5179
Ti37     Ti     0.4821   0.9431   0.5799
Ti38     Ti     0.4431   0.9821   0.9201
Ti39     Ti     0.0179   0.9201   0.5569
Ti40     Ti     0.0569   0.5799   0.5179
Ti41     Ti     0.0799   0.5569   0.9821
Ce42     Ce     0.3792   0.8792   0.75
V43     V     0.4438   0.9564   0.8072
V44     V     0.4564   0.9438   0.6928
Er45     Er     0.25   0.7027   0.7973
Er46     Er     0.2973   0.7973   0.75
Er47     Er     0.2027   0.75   0.7027
Ce48     Ce     0.25   0.6208   0.8792
V49     V     0.3072   0.5436   0.9438
V50     V     0.1928   0.5562   0.9564
Ce51     Ce     0.1208   0.75   0.6208
V52     V     0.0436   0.8072   0.5562
V53     V     0.0562   0.6928   0.5436
Ti54     Ti     0.4201   0.5179   0.9431
Ti55     Ti     0.5799   0.0569   0.4821
Ti56     Ti     0.9201   0.0179   0.4431
Ti57     Ti     0.9821   0.4431   0.0799
Ti58     Ti     0.5569   0.0799   0.0179
Ti59     Ti     0.9431   0.4821   0.4201
Ce60     Ce     0.6208   0.25   0.1208
V61     V     0.5562   0.1928   0.0436
V62     V     0.5436   0.3072   0.0562
Ce63     Ce     0.75   0.1208   0.3792
V64     V     0.8072   0.0436   0.4438
V65     V     0.6928   0.0562   0.4564
Er66     Er     0.7973   0.2973   0.25
Er67     Er     0.7027   0.25   0.2027
Er68     Er     0.75   0.2027   0.2973
Ce69     Ce     0.8792   0.3792   0.25
V70     V     0.9438   0.4564   0.3072
V71     V     0.9564   0.4438   0.1928
Ti72     Ti     0.5179   0.4201   0.0569
Ti73     Ti     0.5799   0.4821   0.9431
Ti74     Ti     0.9201   0.4431   0.9821
Ti75     Ti     0.5569   0.0179   0.9201
Ti76     Ti     0.5179   0.0569   0.5799
Ti77     Ti     0.9821   0.0799   0.5569
Ce78     Ce     0.75   0.3792   0.8792
V79     V     0.8072   0.4438   0.9564
V80     V     0.6928   0.4564   0.9438
Er81     Er     0.7973   0.25   0.7027
Er82     Er     0.75   0.2973   0.7973
Er83     Er     0.7027   0.2027   0.75
Ce84     Ce     0.8792   0.25   0.6208
V85     V     0.9438   0.3072   0.5436
V86     V     0.9564   0.1928   0.5562
Ce87     Ce     0.6208   0.1208   0.75
V88     V     0.5562   0.0436   0.8072
V89     V     0.5436   0.0562   0.6928
Ti90     Ti     0.9431   0.4201   0.5179
Ti91     Ti     0.9821   0.5569   0.9201
Ti92     Ti     0.9201   0.9821   0.5569
Ti93     Ti     0.5569   0.9201   0.9821
Ti94     Ti     0.5799   0.9431   0.5179
Ti95     Ti     0.9431   0.5179   0.5799
Ce96     Ce     0.8792   0.6208   0.75
V97     V     0.9564   0.5562   0.8072
V98     V     0.9438   0.5436   0.6928
Ce99     Ce     0.75   0.8792   0.6208
V100     V     0.8072   0.9564   0.5562
V101     V     0.6928   0.9438   0.5436
Er102     Er     0.7027   0.75   0.7973
Er103     Er     0.75   0.7973   0.7027
Er104     Er     0.7973   0.7027   0.75
Ce105     Ce     0.6208   0.75   0.8792
V106     V     0.5562   0.8072   0.9564
V107     V     0.5436   0.6928   0.9438
Ti108     Ti     0.5179   0.5799   0.9431
Ti109     Ti     0.4821   0.5799   0.0569
Ti110     Ti     0.4431   0.9201   0.0179
Ti111     Ti     0.0799   0.9821   0.4431
Ti112     Ti     0.0179   0.5569   0.0799
Ti113     Ti     0.4201   0.9431   0.4821
Ce114     Ce     0.3792   0.75   0.1208
V115     V     0.4438   0.8072   0.0436
V116     V     0.4564   0.6928   0.0562
Er117     Er     0.25   0.7973   0.2973
Er118     Er     0.2027   0.7027   0.25
Er119     Er     0.2973   0.75   0.2027
Ce120     Ce     0.25   0.8792   0.3792
V121     V     0.3072   0.9438   0.4564
V122     V     0.1928   0.9564   0.4438
Ce123     Ce     0.1208   0.6208   0.25
V124     V     0.0436   0.5562   0.1928
V125     V     0.0562   0.5436   0.3072
Ti126     Ti     0.0569   0.5179   0.4201
Ti127     Ti     0.9431   0.5799   0.4821
Ti128     Ti     0.9821   0.9201   0.4431
Ti129     Ti     0.9201   0.5569   0.0179
Ti130     Ti     0.5799   0.5179   0.0569
Ti131     Ti     0.5569   0.9821   0.0799
Ce132     Ce     0.6208   0.8792   0.25
V133     V     0.5436   0.9438   0.3072
V134     V     0.5562   0.9564   0.1928
Er135     Er     0.7027   0.7973   0.25
Er136     Er     0.7973   0.75   0.2973
Er137     Er     0.75   0.7027   0.2027
Ce138     Ce     0.8792   0.75   0.3792
V139     V     0.9564   0.8072   0.4438
V140     V     0.9438   0.6928   0.4564
Ce141     Ce     0.75   0.6208   0.1208
V142     V     0.8072   0.5562   0.0436
V143     V     0.6928   0.5436   0.0562
Ti144     Ti     0.5179   0.9431   0.4201
loop_
_geom_bond_atom_site_label_1
_geom_bond_atom_site_label_2
_geom_bond_distance
_geom_bond_site_symmetry_2
_ccdc_geom_bond_type
Ti1     V7    10.0   .     S
Ti1     Ti20    10.0   1_554     S
Ti1     Ti57    10.0   1_455     S
Ti2     V10    10.0   .     S
Ti2     Ti110    10.0   1_545     S
Ti2     Ti21    10.0   1_554     S
Ti3     V16    10.0   .     S
Ti3     Ti56    10.0   1_455     S
Ti3     Ti111    10.0   1_545     S
Ti4     V17    10.0   .     S
Ti4     Ti19    10.0   .     S
Ti4     Ti126    10.0   .     S
Ti5     V11    10.0   .     S
Ti5     Ti55    10.0   .     S
Ti5     Ti36    10.0   .     S
Ce6     V7    10.0   .     S
Ce6     V8    10.0   .     S
Ce6     Er14    10.0   .     S
V7     V8    10.0   .     S
V8     Ti18    10.0   .     S
Ce9     V10    10.0   .     S
Ce9     V11    10.0   .     S
Ce9     Er12    10.0   .     S
V10     V11    10.0   .     S
Er12     Er13    9.999   .     S
Er12     Er14    9.999   .     S
Er13     Er14    9.999   .     S
Er13     Ce15    10.0   .     S
Ce15     V16    10.0   .     S
Ce15     V17    10.0   .     S
V16     V17    10.0   .     S
Ti18     Ti109    10.0   .     S
Ti18     Ti72    10.0   .     S
Ti19     V26    10.0   .     S
Ti19     Ti40    10.0   .     S
Ti20     Ti1    10.0   1_556     S
Ti20     V25    10.0   .     S
Ti20     Ti74    10.0   1_455     S
Ti21     V32    10.0   .     S
Ti21     Ti2    10.0   1_556     S
Ti21     Ti38    10.0   1_545     S
Ti22     V34    10.0   .     S
Ti22     Ti39    10.0   1_545     S
Ti22     Ti77    10.0   1_455     S
Ti23     V31    10.0   .     S
Ti23     Ti73    10.0   .     S
Ti23     Ti54    10.0   .     S
Ce24     V25    10.0   .     S
Ce24     V26    10.0   .     S
Ce24     Er29    10.0   .     S
V25     V26    10.0   .     S
Er27     Er29    9.999   .     S
Er27     Er28    9.999   .     S
Er27     Ce30    10.0   .     S
Er28     Er29    9.999   .     S
Er28     Ce33    10.0   .     S
Ce30     V32    10.0   .     S
Ce30     V31    10.0   .     S
V31     V32    10.0   .     S
Ce33     V34    10.0   .     S
Ce33     V35    10.0   .     S
V34     V35    10.0   .     S
V35     Ti36    10.0   .     S
Ti36     Ti76    10.0   .     S
Ti37     V44    10.0   .     S
Ti37     Ti94    10.0   .     S
Ti37     Ti113    10.0   .     S
Ti38     V43    10.0   .     S
Ti38     Ti21    10.0   1_565     S
Ti38     Ti110    10.0   1_556     S
Ti39     Ti22    10.0   1_565     S
Ti39     V52    10.0   .     S
Ti39     Ti92    10.0   1_455     S
Ti40     V53    10.0   .     S
Ti40     Ti126    10.0   .     S
Ti41     V50    10.0   .     S
Ti41     Ti112    10.0   1_556     S
Ti41     Ti91    10.0   1_455     S
Ce42     V43    10.0   .     S
Ce42     V44    10.0   .     S
Ce42     Er46    10.0   .     S
V43     V44    10.0   .     S
Er45     Er47    9.999   .     S
Er45     Er46    9.999   .     S
Er45     Ce48    10.0   .     S
Er46     Er47    9.999   .     S
Er47     Ce51    10.0   .     S
Ce48     V50    10.0   .     S
Ce48     V49    10.0   .     S
V49     V50    10.0   .     S
V49     Ti54    10.0   .     S
Ce51     V52    10.0   .     S
Ce51     V53    10.0   .     S
V52     V53    10.0   .     S
Ti54     Ti108    10.0   .     S
Ti55     V65    10.0   .     S
Ti55     Ti76    10.0   .     S
Ti56     Ti3    10.0   1_655     S
Ti56     V64    10.0   .     S
Ti56     Ti128    10.0   1_545     S
Ti57     V71    10.0   .     S
Ti57     Ti1    10.0   1_655     S
Ti57     Ti74    10.0   1_554     S
Ti58     V61    10.0   .     S
Ti58     Ti75    10.0   1_554     S
Ti58     Ti131    10.0   1_545     S
Ti59     V70    10.0   .     S
Ti59     Ti127    10.0   .     S
Ti59     Ti90    10.0   .     S
Ce60     V61    10.0   .     S
Ce60     V62    10.0   .     S
Ce60     Er67    10.0   .     S
V61     V62    10.0   .     S
V62     Ti72    10.0   .     S
Ce63     V64    10.0   .     S
Ce63     V65    10.0   .     S
Ce63     Er68    10.0   .     S
V64     V65    10.0   .     S
Er66     Er68    9.999   .     S
Er66     Er67    9.999   .     S
Er66     Ce69    10.0   .     S
Er67     Er68    9.999   .     S
Ce69     V71    10.0   .     S
Ce69     V70    10.0   .     S
V70     V71    10.0   .     S
Ti72     Ti130    10.0   .     S
Ti73     V80    10.0   .     S
Ti73     Ti108    10.0   .     S
Ti74     Ti20    10.0   1_655     S
Ti74     V79    10.0   .     S
Ti74     Ti57    10.0   1_556     S
Ti75     Ti58    10.0   1_556     S
Ti75     V88    10.0   .     S
Ti75     Ti93    10.0   1_545     S
Ti76     V89    10.0   .     S
Ti77     V86    10.0   .     S
Ti77     Ti22    10.0   1_655     S
Ti77     Ti92    10.0   1_545     S
Ce78     V79    10.0   .     S
Ce78     V80    10.0   .     S
Ce78     Er82    10.0   .     S
V79     V80    10.0   .     S
Er81     Er82    9.999   .     S
Er81     Er83    9.999   .     S
Er81     Ce84    10.0   .     S
Er82     Er83    9.999   .     S
Er83     Ce87    10.0   .     S
Ce84     V86    10.0   .     S
Ce84     V85    10.0   .     S
V85     V86    10.0   .     S
V85     Ti90    10.0   .     S
Ce87     V88    10.0   .     S
Ce87     V89    10.0   .     S
V88     V89    10.0   .     S
Ti90     Ti95    10.0   .     S
Ti91     V97    10.0   .     S
Ti91     Ti41    10.0   1_655     S
Ti91     Ti129    10.0   1_556     S
Ti92     Ti39    10.0   1_655     S
Ti92     V100    10.0   .     S
Ti92     Ti77    10.0   1_565     S
Ti93     Ti75    10.0   1_565     S
Ti93     V106    10.0   .     S
Ti93     Ti131    10.0   1_556     S
Ti94     V101    10.0   .     S
Ti94     Ti144    10.0   .     S
Ti95     V98    10.0   .     S
Ti95     Ti127    10.0   .     S
Ce96     V97    10.0   .     S
Ce96     V98    10.0   .     S
Ce96     Er104    10.0   .     S
V97     V98    10.0   .     S
Ce99     V100    10.0   .     S
Ce99     V101    10.0   .     S
Ce99     Er103    10.0   .     S
V100     V101    10.0   .     S
Er102     Er103    9.999   .     S
Er102     Er104    9.999   .     S
Er102     Ce105    10.0   .     S
Er103     Er104    9.999   .     S
Ce105     V106    10.0   .     S
Ce105     V107    10.0   .     S
V106     V107    10.0   .     S
V107     Ti108    10.0   .     S
Ti109     V116    10.0   .     S
Ti109     Ti130    10.0   .     S
Ti110     Ti2    10.0   1_565     S
Ti110     V115    10.0   .     S
Ti110     Ti38    10.0   1_554     S
Ti111     V122    10.0   .     S
Ti111     Ti3    10.0   1_565     S
Ti111     Ti128    10.0   1_455     S
Ti112     Ti41    10.0   1_554     S
Ti112     V124    10.0   .     S
Ti112     Ti129    10.0   1_455     S
Ti113     V121    10.0   .     S
Ti113     Ti144    10.0   .     S
Ce114     V115    10.0   .     S
Ce114     V116    10.0   .     S
Ce114     Er119    10.0   .     S
V115     V116    10.0   .     S
Er117     Er119    9.999   .     S
Er117     Er118    9.999   .     S
Er117     Ce120    10.0   .     S
Er118     Er119    9.999   .     S
Er118     Ce123    10.0   .     S
Ce120     V122    10.0   .     S
Ce120     V121    10.0   .     S
V121     V122    10.0   .     S
Ce123     V124    10.0   .     S
Ce123     V125    10.0   .     S
V124     V125    10.0   .     S
V125     Ti126    10.0   .     S
Ti127     V140    10.0   .     S
Ti128     Ti56    10.0   1_565     S
Ti128     V139    10.0   .     S
Ti128     Ti111    10.0   1_655     S
Ti129     Ti112    10.0   1_655     S
Ti129     V142    10.0   .     S
Ti129     Ti91    10.0   1_554     S
Ti130     V143    10.0   .     S
Ti131     Ti93    10.0   1_554     S
Ti131     V134    10.0   .     S
Ti131     Ti58    10.0   1_565     S
Ce132     V134    10.0   .     S
Ce132     V133    10.0   .     S
Ce132     Er135    10.0   .     S
V133     V134    10.0   .     S
V133     Ti144    10.0   .     S
Er135     Er136    9.999   .     S
Er135     Er137    9.999   .     S
Er136     Er137    9.999   .     S
Er136     Ce138    10.0   .     S
Er137     Ce141    10.0   .     S
Ce138     V139    10.0   .     S
Ce138     V140    10.0   .     S
V139     V140    10.0   .     S
Ce141     V142    10.0   .     S
Ce141     V143    10.0   .     S
V142     V143    10.0   .     S
