data_hfp
_audit_creation_date              2020-02-02
_audit_creation_method            'Pymatgen'
_symmetry_space_group_name_H-M    'P1'
_symmetry_Int_Tables_number       1
loop_
_symmetry_equiv_pos_as_xyz
  x,y,z
_cell_length_a                    23.1122
_cell_length_b                    56.5232
_cell_length_c                    16.3907
_cell_angle_alpha                 90.0
_cell_angle_beta                 90.0
_cell_angle_gamma                 90.0
loop_
_atom_site_label
_atom_site_type_symbol
_atom_site_fract_x
_atom_site_fract_y
_atom_site_fract_z
Ce1     Ce     0.7507   0.8739   0.25
Ti2     Ti     0.0   0.7502   0.5026
Ce3     Ce     0.2493   0.8739   0.25
Ti4     Ti     0.0   0.7502   0.9974
Ce5     Ce     0.7493   0.6261   0.75
Ce6     Ce     0.2507   0.6261   0.75
Ti7     Ti     0.5   0.7498   0.4974
Ti8     Ti     0.5   0.7498   0.0026
Er9     Er     0.5   0.8738   0.75
Er10     Er     0.0   0.6262   0.25
V11     V     0.5   0.5   0.0
V12     V     0.5   0.5   0.5
Ce13     Ce     0.2507   0.3739   0.25
Ce14     Ce     0.7493   0.3739   0.25
Ti15     Ti     0.5   0.2502   0.5026
Ti16     Ti     0.5   0.2502   0.9974
Ce17     Ce     0.7507   0.1261   0.75
Ce18     Ce     0.2493   0.1261   0.75
Ti19     Ti     0.0   0.2498   0.4974
Ti20     Ti     0.0   0.2498   0.0026
Er21     Er     0.0   0.3738   0.75
Er22     Er     0.5   0.1262   0.25
V23     V     0.0   0.0   0.0
V24     V     0.0   0.0   0.5
loop_
_geom_bond_atom_site_label_1
_geom_bond_atom_site_label_2
_geom_bond_distance
_geom_bond_site_symmetry_2
_ccdc_geom_bond_type
Ce1     Ti2    9.962   1_655     S
Ce1     Ti4    9.962   1_654     S
Ce1     Ti8    9.963   .     S
Ce1     Ti7    9.963   .     S
Ce1     V24    10.037   1_665     S
Ce1     V23    10.037   1_665     S
Ce1     Er9    10.037   1_554     S
Ce1     Er9    10.037   .     S
Ti2     Ce6    9.963   .     S
Ti2     Ce5    9.963   1_455     S
Ti2     Ce1    9.962   1_455     S
Ti2     Ce3    9.962   .     S
Ce3     Ti4    9.962   1_554     S
Ce3     Ti7    9.963   .     S
Ce3     Ti8    9.963   .     S
Ce3     V23    10.037   1_565     S
Ce3     V24    10.037   1_565     S
Ce3     Er9    10.037   .     S
Ce3     Er9    10.037   1_554     S
Ti4     Ce6    9.963   .     S
Ti4     Ce5    9.963   1_455     S
Ti4     Ce1    9.962   1_456     S
Ti4     Ce3    9.962   1_556     S
Ce5     Ti2    9.963   1_655     S
Ce5     Ti4    9.963   1_655     S
Ce5     Ti8    9.962   1_556     S
Ce5     Ti7    9.962   .     S
Ce5     Er10    10.037   1_655     S
Ce5     Er10    10.037   1_656     S
Ce5     V11    10.037   1_556     S
Ce5     V12    10.037   .     S
Ce6     Ti7    9.962   .     S
Ce6     Ti8    9.962   1_556     S
Ce6     Er10    10.037   1_556     S
Ce6     Er10    10.037   .     S
Ce6     V12    10.037   .     S
Ce6     V11    10.037   1_556     S
Ti8     Ce5    9.962   1_554     S
Ti8     Ce6    9.962   1_554     S
Er9     Ce3    10.037   1_556     S
Er9     Ce1    10.037   1_556     S
Er10     Ce6    10.037   1_554     S
Er10     Ce5    10.037   1_455     S
Er10     Ce5    10.037   1_454     S
V11     Ce6    10.037   1_554     S
V11     Ce5    10.037   1_554     S
V11     Ce14    10.037   .     S
V11     Ce13    10.037   .     S
V12     Ce14    10.037   .     S
V12     Ce13    10.037   .     S
Ce13     Ti15    9.962   .     S
Ce13     Ti16    9.962   1_554     S
Ce13     Ti20    9.963   .     S
Ce13     Ti19    9.963   .     S
Ce13     Er21    10.037   1_554     S
Ce13     Er21    10.037   .     S
Ce14     Ti16    9.962   1_554     S
Ce14     Ti15    9.962   .     S
Ce14     Ti19    9.963   1_655     S
Ce14     Ti20    9.963   1_655     S
Ce14     Er21    10.037   1_655     S
Ce14     Er21    10.037   1_654     S
Ti15     Ce18    9.963   .     S
Ti15     Ce17    9.963   .     S
Ti16     Ce18    9.963   .     S
Ti16     Ce17    9.963   .     S
Ti16     Ce13    9.962   1_556     S
Ti16     Ce14    9.962   1_556     S
Ce17     Ti19    9.962   1_655     S
Ce17     Ti20    9.962   1_656     S
Ce17     Er22    10.037   1_556     S
Ce17     Er22    10.037   .     S
Ce17     V24    10.037   1_655     S
Ce17     V23    10.037   1_656     S
Ce18     Ti20    9.962   1_556     S
Ce18     Ti19    9.962   .     S
Ce18     Er22    10.037   .     S
Ce18     Er22    10.037   1_556     S
Ce18     V23    10.037   1_556     S
Ce18     V24    10.037   .     S
Ti19     Ce14    9.963   1_455     S
Ti19     Ce17    9.962   1_455     S
Ti20     Ce14    9.963   1_455     S
Ti20     Ce17    9.962   1_454     S
Ti20     Ce18    9.962   1_554     S
Er21     Ce14    10.037   1_455     S
Er21     Ce14    10.037   1_456     S
Er21     Ce13    10.037   1_556     S
Er22     Ce18    10.037   1_554     S
Er22     Ce17    10.037   1_554     S
V23     Ce1    10.037   1_445     S
V23     Ce3    10.037   1_545     S
V23     Ce18    10.037   1_554     S
V23     Ce17    10.037   1_454     S
V24     Ce1    10.037   1_445     S
V24     Ce3    10.037   1_545     S
V24     Ce17    10.037   1_455     S
