data_hlz
_audit_creation_date              2020-02-02
_audit_creation_method            'Pymatgen'
_symmetry_space_group_name_H-M    'P1'
_symmetry_Int_Tables_number       1
loop_
_symmetry_equiv_pos_as_xyz
  x,y,z
_cell_length_a                    31.2133
_cell_length_b                    31.2133
_cell_length_c                    19.9998
_cell_angle_alpha                 90.0
_cell_angle_beta                 90.0
_cell_angle_gamma                 90.0
loop_
_atom_site_label
_atom_site_type_symbol
_atom_site_fract_x
_atom_site_fract_y
_atom_site_fract_z
Er1     Er     0.1602   0.8398   0.25
Er2     Er     0.1602   0.8398   0.75
V3     V     0.3867   0.6133   0.25
V4     V     0.3867   0.6133   0.75
V5     V     0.6133   0.3867   0.25
V6     V     0.6133   0.3867   0.75
Er7     Er     0.8398   0.1602   0.25
Er8     Er     0.8398   0.1602   0.75
V9     V     0.1133   0.1133   0.0
V10     V     0.1133   0.1133   0.5
V11     V     0.8867   0.8867   0.0
V12     V     0.8867   0.8867   0.5
Er13     Er     0.6602   0.6602   0.0
Er14     Er     0.6602   0.6602   0.5
Er15     Er     0.3398   0.3398   0.0
Er16     Er     0.3398   0.3398   0.5
loop_
_geom_bond_atom_site_label_1
_geom_bond_atom_site_label_2
_geom_bond_distance
_geom_bond_site_symmetry_2
_ccdc_geom_bond_type
Er1     V9    10.0   1_565     S
Er1     V10    10.0   1_565     S
Er1     V12    10.0   1_455     S
Er1     V11    10.0   1_455     S
Er1     V3    10.0   .     S
Er2     V10    10.0   1_565     S
Er2     V9    10.0   1_566     S
Er2     V11    10.0   1_456     S
Er2     V12    10.0   1_455     S
Er2     V4    10.0   .     S
V3     Er15    10.0   .     S
V3     Er16    10.0   .     S
V3     Er14    10.0   .     S
V3     Er13    10.0   .     S
V3     V4    10.0   1_554     S
V3     V4    10.0   .     S
V3     V5    10.0   .     S
V4     Er16    10.0   .     S
V4     Er15    10.0   1_556     S
V4     Er13    10.0   1_556     S
V4     Er14    10.0   .     S
V4     V3    10.0   1_556     S
V4     V6    10.0   .     S
V5     Er16    10.0   .     S
V5     Er15    10.0   .     S
V5     Er13    10.0   .     S
V5     Er14    10.0   .     S
V5     V6    10.0   1_554     S
V5     V6    10.0   .     S
V5     Er7    10.0   .     S
V6     Er15    10.0   1_556     S
V6     Er16    10.0   .     S
V6     Er14    10.0   .     S
V6     Er13    10.0   1_556     S
V6     V5    10.0   1_556     S
V6     Er8    10.0   .     S
Er7     V11    10.0   1_545     S
Er7     V12    10.0   1_545     S
Er7     V10    10.0   1_655     S
Er7     V9    10.0   1_655     S
Er8     V12    10.0   1_545     S
Er8     V11    10.0   1_546     S
Er8     V9    10.0   1_656     S
Er8     V10    10.0   1_655     S
V9     Er1    10.0   1_545     S
V9     Er2    10.0   1_544     S
V9     Er8    10.0   1_454     S
V9     Er7    10.0   1_455     S
V9     V10    10.0   .     S
V9     V10    10.0   1_554     S
V9     V11    10.0   1_445     S
V9     Er15    10.0   .     S
V10     Er2    10.0   1_545     S
V10     Er1    10.0   1_545     S
V10     Er7    10.0   1_455     S
V10     Er8    10.0   1_455     S
V10     V9    10.0   1_556     S
V10     V12    10.0   1_445     S
V10     Er16    10.0   .     S
V11     Er2    10.0   1_654     S
V11     Er1    10.0   1_655     S
V11     Er7    10.0   1_565     S
V11     Er8    10.0   1_564     S
V11     V12    10.0   .     S
V11     V12    10.0   1_554     S
V11     V9    10.0   1_665     S
V11     Er13    10.0   .     S
V12     Er1    10.0   1_655     S
V12     Er2    10.0   1_655     S
V12     Er8    10.0   1_565     S
V12     Er7    10.0   1_565     S
V12     V11    10.0   1_556     S
V12     V10    10.0   1_665     S
V12     Er14    10.0   .     S
Er13     V4    10.0   1_554     S
Er13     V6    10.0   1_554     S
Er15     V6    10.0   1_554     S
Er15     V4    10.0   1_554     S
