data_hmc
_audit_creation_date              2020-02-02
_audit_creation_method            'Pymatgen'
_symmetry_space_group_name_H-M    'P1'
_symmetry_Int_Tables_number       1
loop_
_symmetry_equiv_pos_as_xyz
  x,y,z
_cell_length_a                    52.7791
_cell_length_b                    52.7791
_cell_length_c                    52.7791
_cell_angle_alpha                 90.0
_cell_angle_beta                 90.0
_cell_angle_gamma                 90.0
loop_
_atom_site_label
_atom_site_type_symbol
_atom_site_fract_x
_atom_site_fract_y
_atom_site_fract_z
Ti1     Ti     0.634   0.634   0.634
Ti2     Ti     0.634   0.866   0.866
Ti3     Ti     0.866   0.634   0.866
Ti4     Ti     0.866   0.866   0.634
Er5     Er     0.7886   0.7114   0.7114
Er6     Er     0.7114   0.7886   0.7114
Er7     Er     0.7114   0.7114   0.7886
Er8     Er     0.7886   0.7886   0.7886
Ti9     Ti     0.634   0.366   0.634
Ti10     Ti     0.866   0.366   0.866
Ti11     Ti     0.634   0.134   0.866
Ti12     Ti     0.866   0.134   0.634
Er13     Er     0.7886   0.2886   0.7114
Er14     Er     0.7114   0.2886   0.7886
Er15     Er     0.7886   0.2114   0.7886
Er16     Er     0.7114   0.2114   0.7114
Ti17     Ti     0.366   0.634   0.634
Ti18     Ti     0.134   0.634   0.866
Ti19     Ti     0.366   0.866   0.866
Ti20     Ti     0.134   0.866   0.634
Er21     Er     0.2886   0.7886   0.7114
Er22     Er     0.2886   0.7114   0.7886
Er23     Er     0.2114   0.7886   0.7886
Er24     Er     0.2114   0.7114   0.7114
Ti25     Ti     0.366   0.366   0.634
Er26     Er     0.2886   0.2886   0.7886
Ti27     Ti     0.366   0.134   0.866
Er28     Er     0.2886   0.2114   0.7114
Ti29     Ti     0.134   0.134   0.634
Er30     Er     0.2114   0.2114   0.7886
Ti31     Ti     0.134   0.366   0.866
Er32     Er     0.2114   0.2886   0.7114
V33     V     0.0   0.0   0.6339
Ti34     Ti     0.634   0.634   0.366
Ti35     Ti     0.866   0.634   0.134
Ti36     Ti     0.866   0.866   0.366
Ti37     Ti     0.634   0.866   0.134
Er38     Er     0.7886   0.7114   0.2886
Er39     Er     0.7114   0.7886   0.2886
Er40     Er     0.7886   0.7886   0.2114
Er41     Er     0.7114   0.7114   0.2114
Ti42     Ti     0.366   0.634   0.366
Er43     Er     0.2886   0.7886   0.2886
Ti44     Ti     0.366   0.866   0.134
Ti45     Ti     0.134   0.634   0.134
Er46     Er     0.2886   0.7114   0.2114
Er47     Er     0.2114   0.7886   0.2114
Ti48     Ti     0.134   0.866   0.366
Er49     Er     0.2114   0.7114   0.2886
V50     V     0.0   0.6339   0.0
Ti51     Ti     0.634   0.366   0.366
Er52     Er     0.7886   0.2886   0.2886
Ti53     Ti     0.634   0.134   0.134
Ti54     Ti     0.866   0.366   0.134
Er55     Er     0.7114   0.2886   0.2114
Er56     Er     0.7886   0.2114   0.2114
Ti57     Ti     0.866   0.134   0.366
Er58     Er     0.7114   0.2114   0.2886
V59     V     0.6339   0.0   0.0
Ti60     Ti     0.366   0.366   0.366
Ti61     Ti     0.134   0.366   0.134
Ti62     Ti     0.366   0.134   0.134
Ti63     Ti     0.134   0.134   0.366
Er64     Er     0.2114   0.2114   0.2114
Er65     Er     0.2114   0.2886   0.2886
Er66     Er     0.2886   0.2114   0.2886
Er67     Er     0.2886   0.2886   0.2114
V68     V     0.0   0.0   0.3661
V69     V     0.3661   0.0   0.0
V70     V     0.0   0.3661   0.0
V71     V     0.0   0.5   0.1339
V72     V     0.0   0.1339   0.5
V73     V     0.5   0.0   0.1339
V74     V     0.1339   0.0   0.5
V75     V     0.1339   0.5   0.0
V76     V     0.5   0.1339   0.0
V77     V     0.8661   0.0   0.5
V78     V     0.8661   0.5   0.0
V79     V     0.0   0.8661   0.5
V80     V     0.5   0.8661   0.0
V81     V     0.0   0.5   0.8661
V82     V     0.5   0.0   0.8661
V83     V     0.3661   0.5   0.5
V84     V     0.6339   0.5   0.5
V85     V     0.5   0.3661   0.5
V86     V     0.5   0.6339   0.5
V87     V     0.5   0.5   0.3661
V88     V     0.5   0.5   0.6339
loop_
_geom_bond_atom_site_label_1
_geom_bond_atom_site_label_2
_geom_bond_distance
_geom_bond_site_symmetry_2
_ccdc_geom_bond_type
Ti1     V84    10.0   .     S
Ti1     V86    10.0   .     S
Ti1     V88    10.0   .     S
Ti1     Er5    10.0   .     S
Ti1     Er6    10.0   .     S
Ti1     Er7    10.0   .     S
Ti2     V59    10.0   1_566     S
Ti2     V82    10.0   1_565     S
Ti2     V80    10.0   1_556     S
Ti2     Er8    10.0   .     S
Ti2     Er6    10.0   .     S
Ti2     Er7    10.0   .     S
Ti3     V50    10.0   1_656     S
Ti3     V81    10.0   1_655     S
Ti3     V78    10.0   1_556     S
Ti3     Er8    10.0   .     S
Ti3     Er5    10.0   .     S
Ti3     Er7    10.0   .     S
Ti4     V33    10.0   1_665     S
Ti4     V79    10.0   1_655     S
Ti4     V77    10.0   1_565     S
Ti4     Er8    10.0   .     S
Ti4     Er5    10.0   .     S
Ti4     Er6    10.0   .     S
Ti9     V84    10.0   .     S
Ti9     V85    10.0   .     S
Ti9     V88    10.0   .     S
Ti9     Er13    10.0   .     S
Ti9     Er16    10.0   .     S
Ti9     Er14    10.0   .     S
Ti10     V70    10.0   1_656     S
Ti10     V81    10.0   1_655     S
Ti10     V78    10.0   1_556     S
Ti10     Er15    10.0   .     S
Ti10     Er13    10.0   .     S
Ti10     Er14    10.0   .     S
Ti11     V59    10.0   1_556     S
Ti11     V76    10.0   1_556     S
Ti11     V82    10.0   .     S
Ti11     Er15    10.0   .     S
Ti11     Er14    10.0   .     S
Ti11     Er16    10.0   .     S
Ti12     V33    10.0   1_655     S
Ti12     V72    10.0   1_655     S
Ti12     V77    10.0   .     S
Ti12     Er15    10.0   .     S
Ti12     Er13    10.0   .     S
Ti12     Er16    10.0   .     S
Ti17     V83    10.0   .     S
Ti17     V86    10.0   .     S
Ti17     V88    10.0   .     S
Ti17     Er24    10.0   .     S
Ti17     Er21    10.0   .     S
Ti17     Er22    10.0   .     S
Ti18     V50    10.0   1_556     S
Ti18     V75    10.0   1_556     S
Ti18     V81    10.0   .     S
Ti18     Er23    10.0   .     S
Ti18     Er22    10.0   .     S
Ti18     Er24    10.0   .     S
Ti19     V69    10.0   1_566     S
Ti19     V82    10.0   1_565     S
Ti19     V80    10.0   1_556     S
Ti19     Er23    10.0   .     S
Ti19     Er21    10.0   .     S
Ti19     Er22    10.0   .     S
Ti20     V33    10.0   1_565     S
Ti20     V74    10.0   1_565     S
Ti20     V79    10.0   .     S
Ti20     Er23    10.0   .     S
Ti20     Er21    10.0   .     S
Ti20     Er24    10.0   .     S
Ti25     V83    10.0   .     S
Ti25     V85    10.0   .     S
Ti25     V88    10.0   .     S
Ti25     Er32    10.0   .     S
Ti25     Er28    10.0   .     S
Ti25     Er26    10.0   .     S
Er26     Ti27    10.0   .     S
Er26     Ti31    10.0   .     S
Ti27     V69    10.0   1_556     S
Ti27     V76    10.0   1_556     S
Ti27     V82    10.0   .     S
Ti27     Er30    10.0   .     S
Ti27     Er28    10.0   .     S
Er28     Ti29    10.0   .     S
Ti29     V72    10.0   .     S
Ti29     V74    10.0   .     S
Ti29     V33    10.0   .     S
Ti29     Er32    10.0   .     S
Ti29     Er30    10.0   .     S
Er30     Ti31    10.0   .     S
Ti31     V70    10.0   1_556     S
Ti31     V75    10.0   1_556     S
Ti31     V81    10.0   .     S
Ti31     Er32    10.0   .     S
V33     Ti4    10.0   1_445     S
V33     Ti12    10.0   1_455     S
V33     Ti20    10.0   1_545     S
Ti34     V84    10.0   .     S
Ti34     V87    10.0   .     S
Ti34     V86    10.0   .     S
Ti34     Er38    10.0   .     S
Ti34     Er41    10.0   .     S
Ti34     Er39    10.0   .     S
Ti35     V50    10.0   1_655     S
Ti35     V71    10.0   1_655     S
Ti35     V78    10.0   .     S
Ti35     Er40    10.0   .     S
Ti35     Er38    10.0   .     S
Ti35     Er41    10.0   .     S
Ti36     V68    10.0   1_665     S
Ti36     V79    10.0   1_655     S
Ti36     V77    10.0   1_565     S
Ti36     Er40    10.0   .     S
Ti36     Er38    10.0   .     S
Ti36     Er39    10.0   .     S
Ti37     V59    10.0   1_565     S
Ti37     V73    10.0   1_565     S
Ti37     V80    10.0   .     S
Ti37     Er40    10.0   .     S
Ti37     Er39    10.0   .     S
Ti37     Er41    10.0   .     S
Ti42     V83    10.0   .     S
Ti42     V87    10.0   .     S
Ti42     V86    10.0   .     S
Ti42     Er49    10.0   .     S
Ti42     Er46    10.0   .     S
Ti42     Er43    10.0   .     S
Er43     Ti44    10.0   .     S
Er43     Ti48    10.0   .     S
Ti44     V69    10.0   1_565     S
Ti44     V73    10.0   1_565     S
Ti44     V80    10.0   .     S
Ti44     Er47    10.0   .     S
Ti44     Er46    10.0   .     S
Ti45     V71    10.0   .     S
Ti45     V75    10.0   .     S
Ti45     V50    10.0   .     S
Ti45     Er49    10.0   .     S
Ti45     Er46    10.0   .     S
Ti45     Er47    10.0   .     S
Er47     Ti48    10.0   .     S
Ti48     V68    10.0   1_565     S
Ti48     V74    10.0   1_565     S
Ti48     V79    10.0   .     S
Ti48     Er49    10.0   .     S
V50     Ti3    10.0   1_454     S
V50     Ti18    10.0   1_554     S
V50     Ti35    10.0   1_455     S
Ti51     V85    10.0   .     S
Ti51     V87    10.0   .     S
Ti51     V84    10.0   .     S
Ti51     Er58    10.0   .     S
Ti51     Er55    10.0   .     S
Ti51     Er52    10.0   .     S
Er52     Ti54    10.0   .     S
Er52     Ti57    10.0   .     S
Ti53     V73    10.0   .     S
Ti53     V76    10.0   .     S
Ti53     V59    10.0   .     S
Ti53     Er58    10.0   .     S
Ti53     Er55    10.0   .     S
Ti53     Er56    10.0   .     S
Ti54     V70    10.0   1_655     S
Ti54     V71    10.0   1_655     S
Ti54     V78    10.0   .     S
Ti54     Er56    10.0   .     S
Ti54     Er55    10.0   .     S
Er56     Ti57    10.0   .     S
Ti57     V68    10.0   1_655     S
Ti57     V72    10.0   1_655     S
Ti57     V77    10.0   .     S
Ti57     Er58    10.0   .     S
V59     Ti2    10.0   1_544     S
V59     Ti11    10.0   1_554     S
V59     Ti37    10.0   1_545     S
Ti60     Er65    10.0   .     S
Ti60     Er66    10.0   .     S
Ti60     Er67    10.0   .     S
Ti60     V83    10.0   .     S
Ti60     V85    10.0   .     S
Ti60     V87    10.0   .     S
Ti61     Er64    10.0   .     S
Ti61     Er65    10.0   .     S
Ti61     Er67    10.0   .     S
Ti61     V70    10.0   .     S
Ti61     V71    10.0   .     S
Ti61     V75    10.0   .     S
Ti62     Er64    10.0   .     S
Ti62     Er66    10.0   .     S
Ti62     Er67    10.0   .     S
Ti62     V69    10.0   .     S
Ti62     V73    10.0   .     S
Ti62     V76    10.0   .     S
Ti63     Er64    10.0   .     S
Ti63     Er65    10.0   .     S
Ti63     Er66    10.0   .     S
Ti63     V68    10.0   .     S
Ti63     V72    10.0   .     S
Ti63     V74    10.0   .     S
V68     Ti36    10.0   1_445     S
V68     Ti48    10.0   1_545     S
V68     Ti57    10.0   1_455     S
V69     Ti19    10.0   1_544     S
V69     Ti27    10.0   1_554     S
V69     Ti44    10.0   1_545     S
V70     Ti10    10.0   1_454     S
V70     Ti31    10.0   1_554     S
V70     Ti54    10.0   1_455     S
V71     Ti35    10.0   1_455     S
V71     Ti54    10.0   1_455     S
V72     Ti12    10.0   1_455     S
V72     Ti57    10.0   1_455     S
V73     Ti37    10.0   1_545     S
V73     Ti44    10.0   1_545     S
V74     Ti20    10.0   1_545     S
V74     Ti48    10.0   1_545     S
V75     Ti18    10.0   1_554     S
V75     Ti31    10.0   1_554     S
V76     Ti11    10.0   1_554     S
V76     Ti27    10.0   1_554     S
V77     Ti4    10.0   1_545     S
V77     Ti36    10.0   1_545     S
V78     Ti3    10.0   1_554     S
V78     Ti10    10.0   1_554     S
V79     Ti4    10.0   1_455     S
V79     Ti36    10.0   1_455     S
V80     Ti2    10.0   1_554     S
V80     Ti19    10.0   1_554     S
V81     Ti3    10.0   1_455     S
V81     Ti10    10.0   1_455     S
V82     Ti2    10.0   1_545     S
V82     Ti19    10.0   1_545     S
