data_hqy
_audit_creation_date              2020-02-02
_audit_creation_method            'Pymatgen'
_symmetry_space_group_name_H-M    'P1'
_symmetry_Int_Tables_number       1
loop_
_symmetry_equiv_pos_as_xyz
  x,y,z
_cell_length_a                    115.5854
_cell_length_b                    115.5854
_cell_length_c                    25.3013
_cell_angle_alpha                 90.0
_cell_angle_beta                 90.0
_cell_angle_gamma                 90.0
loop_
_atom_site_label
_atom_site_type_symbol
_atom_site_fract_x
_atom_site_fract_y
_atom_site_fract_z
Er1     Er     0.4564   0.7936   0.375
Er2     Er     0.5436   0.7936   0.375
Er3     Er     0.4564   0.7064   0.375
Er4     Er     0.5436   0.7064   0.375
Er5     Er     0.5436   0.2064   0.625
Er6     Er     0.5436   0.2936   0.625
Er7     Er     0.4564   0.2936   0.625
Er8     Er     0.4564   0.2064   0.625
Ce9     Ce     0.1503   0.0814   0.6906
Ce10     Ce     0.1686   0.0997   0.0594
Ce11     Ce     0.3314   0.0997   0.4406
Ce12     Ce     0.3497   0.0814   0.8094
Ce13     Ce     0.3497   0.9186   0.1906
Ce14     Ce     0.3314   0.9003   0.5594
Ce15     Ce     0.1503   0.9186   0.3094
Ce16     Ce     0.1686   0.9003   0.9406
V17     V     0.2094   0.0181   0.6852
V18     V     0.2681   0.0406   0.4352
V19     V     0.2906   0.9819   0.1852
V20     V     0.2319   0.9594   0.9352
V21     V     0.2094   0.9819   0.3147
V22     V     0.2681   0.9594   0.5648
V23     V     0.2906   0.0181   0.8148
V24     V     0.2319   0.0406   0.0648
Ti25     Ti     0.1058   0.8558   0.125
Ti26     Ti     0.1058   0.1442   0.875
Ti27     Ti     0.3942   0.8558   0.375
Ti28     Ti     0.3942   0.1442   0.625
Ce29     Ce     0.1503   0.5814   0.3094
Ce30     Ce     0.1686   0.5997   0.9406
Ce31     Ce     0.3497   0.5814   0.1906
Ce32     Ce     0.3314   0.5997   0.5594
Ce33     Ce     0.1503   0.4186   0.6906
Ce34     Ce     0.1686   0.4003   0.0594
Ce35     Ce     0.3314   0.4003   0.4406
Ce36     Ce     0.3497   0.4186   0.8094
V37     V     0.2319   0.5406   0.9352
V38     V     0.2681   0.4594   0.4352
V39     V     0.2094   0.4819   0.6852
V40     V     0.2906   0.5181   0.1852
V41     V     0.2681   0.5406   0.5648
V42     V     0.2094   0.5181   0.3147
V43     V     0.2319   0.4594   0.0648
V44     V     0.2906   0.4819   0.8148
Ti45     Ti     0.3942   0.6442   0.375
Ti46     Ti     0.1058   0.6442   0.125
Ti47     Ti     0.3942   0.3558   0.625
Ti48     Ti     0.1058   0.3558   0.875
Er49     Er     0.9564   0.7064   0.125
Er50     Er     0.0436   0.7064   0.125
Er51     Er     0.9564   0.7936   0.125
Er52     Er     0.0436   0.7936   0.125
Ce53     Ce     0.6503   0.0815   0.8094
Ce54     Ce     0.6686   0.0997   0.4406
Ce55     Ce     0.8314   0.0997   0.0594
Ce56     Ce     0.8497   0.0815   0.6906
Ce57     Ce     0.6503   0.9186   0.1906
Ce58     Ce     0.6686   0.9003   0.5594
Ce59     Ce     0.8314   0.9003   0.9406
Ce60     Ce     0.8497   0.9186   0.3094
V61     V     0.7094   0.0181   0.8148
V62     V     0.7319   0.9594   0.5648
V63     V     0.7906   0.9819   0.3147
V64     V     0.7681   0.0406   0.0648
V65     V     0.7906   0.0181   0.6852
V66     V     0.7094   0.9819   0.1853
V67     V     0.7319   0.0406   0.4352
V68     V     0.7681   0.9594   0.9352
Ti69     Ti     0.6058   0.8558   0.375
Ti70     Ti     0.6058   0.1442   0.625
Ti71     Ti     0.8942   0.8558   0.125
Ti72     Ti     0.8942   0.1442   0.875
Ce73     Ce     0.8314   0.5997   0.9406
Ce74     Ce     0.8497   0.5814   0.3094
Ce75     Ce     0.6503   0.5814   0.1906
Ce76     Ce     0.6686   0.5997   0.5594
Ce77     Ce     0.6686   0.4003   0.4406
Ce78     Ce     0.6503   0.4186   0.8094
Ce79     Ce     0.8314   0.4003   0.0594
Ce80     Ce     0.8497   0.4186   0.6906
V81     V     0.7094   0.5181   0.1852
V82     V     0.7681   0.5406   0.9352
V83     V     0.7319   0.4594   0.4352
V84     V     0.7906   0.4819   0.6852
V85     V     0.7094   0.4819   0.8148
V86     V     0.7319   0.5406   0.5648
V87     V     0.7681   0.4594   0.0648
V88     V     0.7906   0.5181   0.3148
Ti89     Ti     0.6058   0.6442   0.375
Ti90     Ti     0.6058   0.3558   0.625
Ti91     Ti     0.8942   0.6442   0.125
Ti92     Ti     0.8942   0.3558   0.875
Er93     Er     0.9564   0.2064   0.875
Er94     Er     0.9564   0.2936   0.875
Er95     Er     0.0436   0.2936   0.875
Er96     Er     0.0436   0.2064   0.875
loop_
_geom_bond_atom_site_label_1
_geom_bond_atom_site_label_2
_geom_bond_distance
_geom_bond_site_symmetry_2
_ccdc_geom_bond_type
Er1     Ti27    10.159   .     S
Er1     Er3    10.088   .     S
Er1     Er2    10.088   .     S
Er2     Ti69    10.159   .     S
Er2     Er4    10.088   .     S
Er3     Ti45    10.159   .     S
Er3     Er4    10.088   .     S
Er4     Ti89    10.159   .     S
Er5     Ti70    10.159   .     S
Er5     Er6    10.088   .     S
Er5     Er8    10.088   .     S
Er6     Ti90    10.159   .     S
Er6     Er7    10.088   .     S
Er7     Ti47    10.159   .     S
Er7     Er8    10.088   .     S
Er8     Ti28    10.159   .     S
Ce9     Ti26    10.041   .     S
Ce9     Ce10    9.801   1_556     S
Ce9     V17    10.018   .     S
Ce10     Ti26    10.041   1_554     S
Ce10     Ce9    9.801   1_554     S
Ce10     V24    10.018   .     S
Ce11     Ti28    10.041   .     S
Ce11     Ce12    9.801   .     S
Ce11     V18    10.018   .     S
Ce12     Ti28    10.041   .     S
Ce12     V23    10.018   .     S
Ce13     Ti27    10.041   .     S
Ce13     Ce14    9.801   .     S
Ce13     V19    10.018   .     S
Ce14     Ti27    10.041   .     S
Ce14     V22    10.018   .     S
Ce15     Ti25    10.041   .     S
Ce15     Ce16    9.801   1_554     S
Ce15     V21    10.018   .     S
Ce16     Ti25    10.041   1_556     S
Ce16     Ce15    9.801   1_556     S
Ce16     V20    10.018   .     S
V17     V22    10.068   1_545     S
V17     V23    9.945   .     S
V17     V20    9.635   1_545     S
V17     V18    9.635   .     S
V17     V24    10.284   1_556     S
V17     V21    10.264   1_545     S
V18     V21    10.068   1_545     S
V18     V22    9.945   1_545     S
V18     V19    9.635   1_545     S
V18     V23    10.284   .     S
V18     V24    10.264   .     S
V19     V24    10.068   1_565     S
V19     V21    9.945   .     S
V19     V18    9.635   1_565     S
V19     V20    9.635   1_554     S
V19     V22    10.284   .     S
V19     V23    10.264   1_564     S
V20     V23    10.068   1_565     S
V20     V24    9.945   1_566     S
V20     V17    9.635   1_565     S
V20     V19    9.635   1_556     S
V20     V21    10.284   1_556     S
V20     V22    10.264   .     S
V21     V18    10.068   1_565     S
V21     V24    9.635   1_565     S
V21     V22    9.635   .     S
V21     V20    10.284   1_554     S
V21     V17    10.264   1_565     S
V22     V17    10.068   1_565     S
V22     V18    9.945   1_565     S
V22     V23    9.635   1_565     S
V23     V20    10.068   1_545     S
V23     V22    9.635   1_545     S
V23     V24    9.635   1_556     S
V23     V19    10.264   1_546     S
V24     V19    10.068   1_545     S
V24     V20    9.945   1_544     S
V24     V21    9.635   1_545     S
V24     V23    9.635   1_554     S
V24     V17    10.284   1_554     S
Ti25     Ce16    10.041   1_554     S
Ti25     Er52    10.159   .     S
Ti26     Ce10    10.041   1_556     S
Ti26     Er96    10.159   .     S
Ce29     Ti46    10.041   .     S
Ce29     Ce30    9.801   1_554     S
Ce29     V42    10.018   .     S
Ce30     Ti46    10.041   1_556     S
Ce30     Ce29    9.801   1_556     S
Ce30     V37    10.018   .     S
Ce31     Ti45    10.041   .     S
Ce31     Ce32    9.801   .     S
Ce31     V40    10.018   .     S
Ce32     Ti45    10.041   .     S
Ce32     V41    10.018   .     S
Ce33     Ti48    10.041   .     S
Ce33     Ce34    9.801   1_556     S
Ce33     V39    10.018   .     S
Ce34     Ti48    10.041   1_554     S
Ce34     Ce33    9.801   1_554     S
Ce34     V43    10.018   .     S
Ce35     Ti47    10.041   .     S
Ce35     Ce36    9.801   .     S
Ce35     V38    10.018   .     S
Ce36     Ti47    10.041   .     S
Ce36     V44    10.018   .     S
V37     V44    10.068   .     S
V37     V43    9.945   1_556     S
V37     V40    9.635   1_556     S
V37     V39    9.635   .     S
V37     V42    10.284   1_556     S
V37     V41    10.264   .     S
V38     V42    10.068   .     S
V38     V41    9.945   .     S
V38     V39    9.635   .     S
V38     V40    9.635   .     S
V38     V44    10.284   .     S
V38     V43    10.264   .     S
V39     V41    10.068   .     S
V39     V44    9.945   .     S
V39     V43    10.284   1_556     S
V39     V42    10.264   .     S
V40     V43    10.068   .     S
V40     V42    9.945   .     S
V40     V37    9.635   1_554     S
V40     V41    10.284   .     S
V40     V44    10.264   1_554     S
V41     V42    9.635   .     S
V41     V44    9.635   .     S
V42     V43    9.635   .     S
V42     V37    10.284   1_554     S
V43     V37    9.945   1_554     S
V43     V44    9.635   1_554     S
V43     V39    10.284   1_554     S
V44     V43    9.635   1_556     S
V44     V40    10.264   1_556     S
Ti46     Ce30    10.041   1_554     S
Ti46     Er50    10.159   .     S
Ti48     Ce34    10.041   1_556     S
Ti48     Er95    10.159   .     S
Er49     Ti91    10.159   .     S
Er49     Er50    10.088   1_655     S
Er49     Er51    10.088   .     S
Er50     Er49    10.088   1_455     S
Er50     Er52    10.088   .     S
Er51     Ti71    10.159   .     S
Er51     Er52    10.088   1_655     S
Er52     Er51    10.088   1_455     S
Ce53     Ti70    10.041   .     S
Ce53     Ce54    9.801   .     S
Ce53     V61    10.018   .     S
Ce54     Ti70    10.041   .     S
Ce54     V67    10.018   .     S
Ce55     Ti72    10.041   1_554     S
Ce55     Ce56    9.801   1_554     S
Ce55     V64    10.018   .     S
Ce56     Ti72    10.041   .     S
Ce56     Ce55    9.801   1_556     S
Ce56     V65    10.018   .     S
Ce57     Ti69    10.041   .     S
Ce57     Ce58    9.801   .     S
Ce57     V66    10.018   .     S
Ce58     Ti69    10.041   .     S
Ce58     V62    10.018   .     S
Ce59     Ti71    10.041   1_556     S
Ce59     Ce60    9.801   1_556     S
Ce59     V68    10.018   .     S
Ce60     Ti71    10.041   .     S
Ce60     Ce59    9.801   1_554     S
Ce60     V63    10.018   .     S
V61     V68    10.068   1_545     S
V61     V65    9.945   .     S
V61     V62    9.635   1_545     S
V61     V64    9.635   1_556     S
V61     V67    10.284   .     S
V61     V66    10.264   1_546     S
V62     V65    10.068   1_565     S
V62     V67    9.945   1_565     S
V62     V61    9.635   1_565     S
V62     V63    9.635   .     S
V62     V66    10.284   .     S
V62     V68    10.264   .     S
V63     V67    10.068   1_565     S
V63     V66    9.945   .     S
V63     V64    9.635   1_565     S
V63     V68    10.284   1_554     S
V63     V65    10.264   1_565     S
V64     V66    10.068   1_545     S
V64     V68    9.945   1_544     S
V64     V61    9.635   1_554     S
V64     V63    9.635   1_545     S
V64     V65    10.284   1_554     S
V64     V67    10.264   .     S
V65     V62    10.068   1_545     S
V65     V68    9.635   1_545     S
V65     V67    9.635   .     S
V65     V64    10.284   1_556     S
V65     V63    10.264   1_545     S
V66     V64    10.068   1_565     S
V66     V67    9.635   1_565     S
V66     V68    9.635   1_554     S
V66     V61    10.264   1_564     S
V67     V63    10.068   1_545     S
V67     V62    9.945   1_545     S
V67     V66    9.635   1_545     S
V68     V61    10.068   1_565     S
V68     V64    9.945   1_566     S
V68     V65    9.635   1_565     S
V68     V66    9.635   1_556     S
V68     V63    10.284   1_556     S
Ti71     Ce59    10.041   1_554     S
Ti72     Ce55    10.041   1_556     S
Ti72     Er93    10.159   .     S
Ce73     Ti91    10.041   1_556     S
Ce73     Ce74    9.801   1_556     S
Ce73     V82    10.018   .     S
Ce74     Ti91    10.041   .     S
Ce74     Ce73    9.801   1_554     S
Ce74     V88    10.018   .     S
Ce75     Ti89    10.041   .     S
Ce75     Ce76    9.801   .     S
Ce75     V81    10.018   .     S
Ce76     Ti89    10.041   .     S
Ce76     V86    10.018   .     S
Ce77     Ti90    10.041   .     S
Ce77     Ce78    9.801   .     S
Ce77     V83    10.018   .     S
Ce78     Ti90    10.041   .     S
Ce78     V85    10.018   .     S
Ce79     Ti92    10.041   1_554     S
Ce79     Ce80    9.801   1_554     S
Ce79     V87    10.018   .     S
Ce80     Ti92    10.041   .     S
Ce80     Ce79    9.801   1_556     S
Ce80     V84    10.018   .     S
V81     V87    10.068   .     S
V81     V88    9.945   .     S
V81     V82    9.635   1_554     S
V81     V83    9.635   .     S
V81     V86    10.284   .     S
V81     V85    10.264   1_554     S
V82     V85    10.068   .     S
V82     V87    9.945   1_556     S
V82     V81    9.635   1_556     S
V82     V84    9.635   .     S
V82     V88    10.284   1_556     S
V82     V86    10.264   .     S
V83     V88    10.068   .     S
V83     V86    9.945   .     S
V83     V84    9.635   .     S
V83     V85    10.284   .     S
V83     V87    10.264   .     S
V84     V86    10.068   .     S
V84     V85    9.945   .     S
V84     V87    10.284   1_556     S
V84     V88    10.264   .     S
V85     V87    9.635   1_556     S
V85     V86    9.635   .     S
V85     V81    10.264   1_556     S
V86     V88    9.635   .     S
V87     V82    9.945   1_554     S
V87     V85    9.635   1_554     S
V87     V88    9.635   .     S
V87     V84    10.284   1_554     S
V88     V82    10.284   1_554     S
Ti91     Ce73    10.041   1_554     S
Ti92     Ce79    10.041   1_556     S
Ti92     Er94    10.159   .     S
Er93     Er96    10.088   1_655     S
Er93     Er94    10.088   .     S
Er94     Er95    10.088   1_655     S
Er95     Er94    10.088   1_455     S
Er95     Er96    10.088   .     S
Er96     Er93    10.088   1_455     S
