data_htpa
_audit_creation_date              2020-02-02
_audit_creation_method            'Pymatgen'
_symmetry_space_group_name_H-M    'P1'
_symmetry_Int_Tables_number       1
loop_
_symmetry_equiv_pos_as_xyz
  x,y,z
_cell_length_a                    60.8514
_cell_length_b                    39.8425
_cell_length_c                    66.5015
_cell_angle_alpha                 90.0
_cell_angle_beta                 90.0
_cell_angle_gamma                 90.0
loop_
_atom_site_label
_atom_site_type_symbol
_atom_site_fract_x
_atom_site_fract_y
_atom_site_fract_z
Ce1     Ce     0.1895   0.0393   0.6991
Ti2     Ti     0.0822   0.6245   0.6414
Ti3     Ti     0.0822   0.8755   0.6414
Ce4     Ce     0.1895   0.4607   0.6991
Ce5     Ce     0.8105   0.0393   0.6991
Ti6     Ti     0.9178   0.8755   0.6414
Ti7     Ti     0.9178   0.6245   0.6414
Ce8     Ce     0.8105   0.4607   0.6991
Er9     Er     0.152   0.25   0.625
V10     V     0.0822   0.25   0.4889
Er11     Er     0.848   0.25   0.625
V12     V     0.9178   0.25   0.4889
Ce13     Ce     0.3105   0.4607   0.8009
Ti14     Ti     0.4178   0.8755   0.8586
Ti15     Ti     0.4178   0.6245   0.8586
Ce16     Ce     0.3105   0.0393   0.8009
Ce17     Ce     0.6895   0.0393   0.8009
Ti18     Ti     0.5822   0.6245   0.8586
Ti19     Ti     0.5822   0.8755   0.8586
Ce20     Ce     0.6895   0.4607   0.8009
Er21     Er     0.652   0.25   0.875
V22     V     0.5822   0.25   0.0111
V23     V     0.4178   0.25   0.0111
Er24     Er     0.348   0.25   0.875
Ce25     Ce     0.3105   0.5393   0.1991
Ti26     Ti     0.4178   0.3755   0.1414
Ti27     Ti     0.4178   0.1245   0.1414
Ce28     Ce     0.3105   0.9607   0.1991
Ce29     Ce     0.6895   0.5393   0.1991
Ti30     Ti     0.5822   0.3755   0.1414
Ti31     Ti     0.5822   0.1245   0.1414
Ce32     Ce     0.6895   0.9607   0.1991
Er33     Er     0.652   0.75   0.125
V34     V     0.5822   0.75   0.9889
V35     V     0.4178   0.75   0.9889
Er36     Er     0.348   0.75   0.125
Ce37     Ce     0.1895   0.9607   0.3009
Ti38     Ti     0.0822   0.3755   0.3586
Ti39     Ti     0.0822   0.1245   0.3586
Ce40     Ce     0.1895   0.5393   0.3009
Ce41     Ce     0.8105   0.5393   0.3009
Ti42     Ti     0.9178   0.3755   0.3586
Ti43     Ti     0.9178   0.1245   0.3586
Ce44     Ce     0.8105   0.9607   0.3009
Er45     Er     0.152   0.75   0.375
V46     V     0.0822   0.75   0.5111
Er47     Er     0.848   0.75   0.375
V48     V     0.9178   0.75   0.5111
loop_
_geom_bond_atom_site_label_1
_geom_bond_atom_site_label_2
_geom_bond_distance
_geom_bond_site_symmetry_2
_ccdc_geom_bond_type
Ce1     Ti3    10.0   1_545     S
Ce1     Er9    10.0   .     S
Ce1     Ce16    10.0   .     S
Ti2     Ti3    10.0   .     S
Ti2     Ce4    10.0   .     S
Ti2     Ti7    10.0   1_455     S
Ti2     V46    10.0   .     S
Ti3     Ce1    10.0   1_565     S
Ti3     Ti6    10.0   1_455     S
Ti3     V46    10.0   .     S
Ce4     Er9    10.0   .     S
Ce4     Ce13    10.0   .     S
Ce5     Ti6    10.0   1_545     S
Ce5     Er11    10.0   .     S
Ce5     Ce17    10.0   .     S
Ti6     Ce5    10.0   1_565     S
Ti6     Ti7    10.0   .     S
Ti6     Ti3    10.0   1_655     S
Ti6     V48    10.0   .     S
Ti7     Ce8    10.0   .     S
Ti7     Ti2    10.0   1_655     S
Ti7     V48    10.0   .     S
Ce8     Er11    10.0   .     S
Ce8     Ce20    10.0   .     S
Er9     V10    10.0   .     S
V10     Ti39    10.0   .     S
V10     Ti38    10.0   .     S
V10     V12    10.0   1_455     S
Er11     V12    10.0   .     S
V12     Ti42    10.0   .     S
V12     Ti43    10.0   .     S
V12     V10    10.0   1_655     S
Ce13     Ti15    10.0   .     S
Ce13     Er24    10.0   .     S
Ti14     Ti15    10.0   .     S
Ti14     Ce16    10.0   1_565     S
Ti14     Ti19    10.0   .     S
Ti14     V35    10.0   .     S
Ti15     Ti18    10.0   .     S
Ti15     V35    10.0   .     S
Ce16     Ti14    10.0   1_545     S
Ce16     Er24    10.0   .     S
Ce17     Ti19    10.0   1_545     S
Ce17     Er21    10.0   .     S
Ti18     Ti19    10.0   .     S
Ti18     Ce20    10.0   .     S
Ti18     V34    10.0   .     S
Ti19     Ce17    10.0   1_565     S
Ti19     V34    10.0   .     S
Ce20     Er21    10.0   .     S
Er21     V22    10.0   1_556     S
V22     Er21    10.0   1_554     S
V22     Ti30    10.0   .     S
V22     Ti31    10.0   .     S
V22     V23    10.0   .     S
V23     Er24    10.0   1_554     S
V23     Ti26    10.0   .     S
V23     Ti27    10.0   .     S
Er24     V23    10.0   1_556     S
Ce25     Ti26    10.0   .     S
Ce25     Er36    10.0   .     S
Ce25     Ce40    10.0   .     S
Ti26     Ti27    10.0   .     S
Ti26     Ti30    10.0   .     S
Ti27     Ce28    10.0   1_545     S
Ti27     Ti31    10.0   .     S
Ce28     Ti27    10.0   1_565     S
Ce28     Er36    10.0   .     S
Ce28     Ce37    10.0   .     S
Ce29     Ti30    10.0   .     S
Ce29     Er33    10.0   .     S
Ce29     Ce41    10.0   .     S
Ti30     Ti31    10.0   .     S
Ti31     Ce32    10.0   1_545     S
Ce32     Ti31    10.0   1_565     S
Ce32     Er33    10.0   .     S
Ce32     Ce44    10.0   .     S
Er33     V34    10.0   1_554     S
V34     Er33    10.0   1_556     S
V34     V35    10.0   .     S
V35     Er36    10.0   1_556     S
Er36     V35    10.0   1_554     S
Ce37     Ti39    10.0   1_565     S
Ce37     Er45    10.0   .     S
Ti38     Ti39    10.0   .     S
Ti38     Ce40    10.0   .     S
Ti38     Ti42    10.0   1_455     S
Ti39     Ce37    10.0   1_545     S
Ti39     Ti43    10.0   1_455     S
Ce40     Er45    10.0   .     S
Ce41     Ti42    10.0   .     S
Ce41     Er47    10.0   .     S
Ti42     Ti43    10.0   .     S
Ti42     Ti38    10.0   1_655     S
Ti43     Ce44    10.0   1_545     S
Ti43     Ti39    10.0   1_655     S
Ce44     Ti43    10.0   1_565     S
Ce44     Er47    10.0   .     S
Er45     V46    10.0   .     S
V46     V48    10.0   1_455     S
Er47     V48    10.0   .     S
V48     V46    10.0   1_655     S
