data_hxgd
_audit_creation_date              2020-02-02
_audit_creation_method            'Pymatgen'
_symmetry_space_group_name_H-M    'P1'
_symmetry_Int_Tables_number       1
loop_
_symmetry_equiv_pos_as_xyz
  x,y,z
_cell_length_a                    21.1324
_cell_length_b                    21.1324
_cell_length_c                    21.1324
_cell_angle_alpha                 90.0
_cell_angle_beta                 90.0
_cell_angle_gamma                 90.0
loop_
_atom_site_label
_atom_site_type_symbol
_atom_site_fract_x
_atom_site_fract_y
_atom_site_fract_z
V1     V     0.125   0.125   0.125
V2     V     0.125   0.125   0.625
V3     V     0.125   0.625   0.125
V4     V     0.125   0.625   0.625
V5     V     0.625   0.125   0.125
V6     V     0.625   0.125   0.625
V7     V     0.625   0.625   0.125
V8     V     0.625   0.625   0.625
V9     V     0.375   0.375   0.375
V10     V     0.375   0.375   0.875
V11     V     0.375   0.875   0.375
V12     V     0.375   0.875   0.875
V13     V     0.875   0.375   0.375
V14     V     0.875   0.375   0.875
V15     V     0.875   0.875   0.375
V16     V     0.875   0.875   0.875
loop_
_geom_bond_atom_site_label_1
_geom_bond_atom_site_label_2
_geom_bond_distance
_geom_bond_site_symmetry_2
_ccdc_geom_bond_type
V1     V2    10.566   .     S
V1     V2    10.566   1_554     S
V1     V5    10.566   .     S
V1     V5    10.566   1_455     S
V1     V3    10.566   .     S
V1     V3    10.566   1_545     S
V1     V10    9.151   1_554     S
V1     V11    9.151   1_545     S
V1     V16    9.151   1_444     S
V1     V13    9.151   1_455     S
V2     V1    10.566   1_556     S
V2     V6    10.566   .     S
V2     V6    10.566   1_455     S
V2     V4    10.566   .     S
V2     V4    10.566   1_545     S
V2     V9    9.151   .     S
V2     V12    9.151   1_545     S
V2     V15    9.151   1_445     S
V2     V14    9.151   1_455     S
V3     V4    10.566   .     S
V3     V4    10.566   1_554     S
V3     V7    10.566   .     S
V3     V7    10.566   1_455     S
V3     V1    10.566   1_565     S
V3     V12    9.151   1_554     S
V3     V9    9.151   .     S
V3     V14    9.151   1_454     S
V3     V15    9.151   1_455     S
V4     V3    10.566   1_556     S
V4     V8    10.566   .     S
V4     V8    10.566   1_455     S
V4     V2    10.566   1_565     S
V4     V11    9.151   .     S
V4     V10    9.151   .     S
V4     V13    9.151   1_455     S
V4     V16    9.151   1_455     S
V5     V6    10.566   .     S
V5     V6    10.566   1_554     S
V5     V1    10.566   1_655     S
V5     V7    10.566   .     S
V5     V7    10.566   1_545     S
V5     V14    9.151   1_554     S
V5     V15    9.151   1_545     S
V5     V12    9.151   1_544     S
V5     V9    9.151   .     S
V6     V5    10.566   1_556     S
V6     V2    10.566   1_655     S
V6     V8    10.566   .     S
V6     V8    10.566   1_545     S
V6     V13    9.151   .     S
V6     V16    9.151   1_545     S
V6     V11    9.151   1_545     S
V6     V10    9.151   .     S
V7     V8    10.566   .     S
V7     V8    10.566   1_554     S
V7     V3    10.566   1_655     S
V7     V5    10.566   1_565     S
V7     V16    9.151   1_554     S
V7     V13    9.151   .     S
V7     V10    9.151   1_554     S
V7     V11    9.151   .     S
V8     V7    10.566   1_556     S
V8     V4    10.566   1_655     S
V8     V6    10.566   1_565     S
V8     V15    9.151   .     S
V8     V14    9.151   .     S
V8     V9    9.151   .     S
V8     V12    9.151   .     S
V9     V10    10.566   1_554     S
V9     V10    10.566   .     S
V9     V11    10.566   1_545     S
V9     V11    10.566   .     S
V9     V13    10.566   1_455     S
V9     V13    10.566   .     S
V10     V9    10.566   1_556     S
V10     V12    10.566   1_545     S
V10     V12    10.566   .     S
V10     V14    10.566   1_455     S
V10     V14    10.566   .     S
V10     V1    9.151   1_556     S
V10     V7    9.151   1_556     S
V11     V12    10.566   1_554     S
V11     V12    10.566   .     S
V11     V9    10.566   1_565     S
V11     V15    10.566   1_455     S
V11     V15    10.566   .     S
V11     V1    9.151   1_565     S
V11     V6    9.151   1_565     S
V12     V11    10.566   1_556     S
V12     V10    10.566   1_565     S
V12     V16    10.566   1_455     S
V12     V16    10.566   .     S
V12     V3    9.151   1_556     S
V12     V2    9.151   1_565     S
V12     V5    9.151   1_566     S
V13     V14    10.566   1_554     S
V13     V14    10.566   .     S
V13     V15    10.566   1_545     S
V13     V15    10.566   .     S
V13     V9    10.566   1_655     S
V13     V4    9.151   1_655     S
V13     V1    9.151   1_655     S
V14     V13    10.566   1_556     S
V14     V16    10.566   1_545     S
V14     V16    10.566   .     S
V14     V10    10.566   1_655     S
V14     V5    9.151   1_556     S
V14     V3    9.151   1_656     S
V14     V2    9.151   1_655     S
V15     V16    10.566   1_554     S
V15     V16    10.566   .     S
V15     V13    10.566   1_565     S
V15     V11    10.566   1_655     S
V15     V5    9.151   1_565     S
V15     V2    9.151   1_665     S
V15     V3    9.151   1_655     S
V16     V15    10.566   1_556     S
V16     V14    10.566   1_565     S
V16     V12    10.566   1_655     S
V16     V7    9.151   1_556     S
V16     V6    9.151   1_565     S
V16     V1    9.151   1_666     S
V16     V4    9.151   1_655     S
