data_hyd
_audit_creation_date              2020-02-02
_audit_creation_method            'Pymatgen'
_symmetry_space_group_name_H-M    'P1'
_symmetry_Int_Tables_number       1
loop_
_symmetry_equiv_pos_as_xyz
  x,y,z
_cell_length_a                    35.374
_cell_length_b                    55.3752
_cell_length_c                    16.3266
_cell_angle_alpha                 90.0
_cell_angle_beta                 90.0
_cell_angle_gamma                 90.0
loop_
_atom_site_label
_atom_site_type_symbol
_atom_site_fract_x
_atom_site_fract_y
_atom_site_fract_z
Ce1     Ce     0.6413   0.1398   0.2448
Ce2     Ce     0.3587   0.1398   0.2448
Ti3     Ti     0.5   0.2591   0.9014
V4     V     0.1413   0.9479   0.0
V5     V     0.8587   0.9479   0.0
Er6     Er     0.0   0.8958   0.5002
V7     V     0.1413   0.0521   0.5
V8     V     0.8587   0.0521   0.5
Er9     Er     0.0   0.1042   0.0002
Ce10     Ce     0.6413   0.8602   0.7448
Ce11     Ce     0.3587   0.8602   0.7448
Ti12     Ti     0.5   0.7409   0.4014
Ce13     Ce     0.8587   0.3602   0.7448
Ce14     Ce     0.1413   0.3602   0.7448
Ti15     Ti     0.0   0.2409   0.4014
V16     V     0.3587   0.5521   0.5
V17     V     0.6413   0.5521   0.5
Er18     Er     0.5   0.6042   0.0002
V19     V     0.3587   0.4479   0.0
V20     V     0.6413   0.4479   0.0
Er21     Er     0.5   0.3958   0.5002
Ce22     Ce     0.8587   0.6398   0.2448
Ce23     Ce     0.1413   0.6398   0.2448
Ti24     Ti     0.0   0.7591   0.9014
loop_
_geom_bond_atom_site_label_1
_geom_bond_atom_site_label_2
_geom_bond_distance
_geom_bond_site_symmetry_2
_ccdc_geom_bond_type
Ce1     Ti3    10.002   1_554     S
Ce1     Ce2    9.998   .     S
Ce1     V8    10.004   .     S
Ce2     Ti3    10.002   1_554     S
Ce2     V7    10.004   .     S
Ti3     Ce2    10.002   1_556     S
Ti3     Ce1    10.002   1_556     S
Ti3     Er21    10.008   .     S
V4     V7    9.998   1_564     S
V4     Er6    9.995   1_554     S
V4     V5    9.997   1_455     S
V4     Er6    10.001   .     S
V4     V7    9.998   1_565     S
V4     Er9    9.998   1_565     S
V4     Ce11    10.004   1_554     S
V5     V8    9.998   1_564     S
V5     Er6    9.995   1_654     S
V5     V4    9.997   1_655     S
V5     Er6    10.001   1_655     S
V5     V8    9.998   1_565     S
V5     Er9    9.998   1_665     S
V5     Ce10    10.004   1_554     S
Er6     V7    9.998   1_565     S
Er6     V8    9.998   1_465     S
Er6     V4    9.995   1_556     S
Er6     V5    9.995   1_456     S
Er6     V5    10.001   1_455     S
Er6     Ti24    10.008   .     S
V7     V4    9.998   1_546     S
V7     Er6    9.998   1_545     S
V7     V4    9.998   1_545     S
V7     Er9    9.995   .     S
V7     V8    9.997   1_455     S
V7     Er9    10.001   1_556     S
V8     V5    9.998   1_546     S
V8     Er6    9.998   1_645     S
V8     V5    9.998   1_545     S
V8     Er9    9.995   1_655     S
V8     V7    9.997   1_655     S
V8     Er9    10.001   1_656     S
Er9     V5    9.998   1_445     S
Er9     V4    9.998   1_545     S
Er9     V8    9.995   1_455     S
Er9     V7    10.001   1_554     S
Er9     V8    10.001   1_454     S
Er9     Ti15    10.008   .     S
Ce10     Ti12    10.002   .     S
Ce10     Ce11    9.998   .     S
Ce10     V5    10.004   1_556     S
Ce11     Ti12    10.002   .     S
Ce11     V4    10.004   1_556     S
Ti12     Er18    10.008   .     S
Ce13     Ti15    10.002   1_655     S
Ce13     Ce14    9.998   1_655     S
Ce13     V20    10.004   1_556     S
Ce14     Ti15    10.002   .     S
Ce14     Ce13    9.998   1_455     S
Ce14     V19    10.004   1_556     S
Ti15     Ce13    10.002   1_455     S
V16     V19    9.998   .     S
V16     Er18    9.995   .     S
V16     V17    9.997   .     S
V16     Er18    10.001   1_556     S
V16     V19    9.998   1_556     S
V16     Er21    9.998   .     S
V16     Ce23    10.004   .     S
V17     V20    9.998   .     S
V17     Er18    9.995   .     S
V17     Er18    10.001   1_556     S
V17     V20    9.998   1_556     S
V17     Er21    9.998   .     S
V17     Ce22    10.004   .     S
Er18     V20    9.998   .     S
Er18     V19    9.998   .     S
Er18     V17    10.001   1_554     S
Er18     V16    10.001   1_554     S
V19     Ce14    10.004   1_554     S
V19     V16    9.998   1_554     S
V19     Er21    9.995   1_554     S
V19     V20    9.997   .     S
V19     Er21    10.001   .     S
V20     Ce13    10.004   1_554     S
V20     V17    9.998   1_554     S
V20     Er21    9.995   1_554     S
V20     Er21    10.001   .     S
Er21     V19    9.995   1_556     S
Er21     V20    9.995   1_556     S
Ce22     Ti24    10.002   1_654     S
Ce22     Ce23    9.998   1_655     S
Ce23     Ti24    10.002   1_554     S
Ce23     Ce22    9.998   1_455     S
Ti24     Ce22    10.002   1_456     S
Ti24     Ce23    10.002   1_556     S
