data_hyw
_audit_creation_date              2020-02-02
_audit_creation_method            'Pymatgen'
_symmetry_space_group_name_H-M    'P1'
_symmetry_Int_Tables_number       1
loop_
_symmetry_equiv_pos_as_xyz
  x,y,z
_cell_length_a                    20.6559
_cell_length_b                    20.6559
_cell_length_c                    46.188
_cell_angle_alpha                 90.0
_cell_angle_beta                 90.0
_cell_angle_gamma                 90.0
loop_
_atom_site_label
_atom_site_type_symbol
_atom_site_fract_x
_atom_site_fract_y
_atom_site_fract_z
V1     V     0.75   0.75   0.25
Ti2     Ti     0.875   0.125   0.625
Er3     Er     0.5   0.0   0.5
Ti4     Ti     0.125   0.875   0.375
Er5     Er     0.0   0.5   0.5
Ti6     Ti     0.625   0.375   0.625
Ti7     Ti     0.375   0.625   0.375
Er8     Er     0.0   0.0   0.0
Ti9     Ti     0.625   0.125   0.875
Ti10     Ti     0.875   0.375   0.875
V11     V     0.25   0.25   0.25
Ti12     Ti     0.375   0.875   0.125
Er13     Er     0.5   0.5   0.0
V14     V     0.25   0.25   0.75
V15     V     0.75   0.75   0.75
Ti16     Ti     0.125   0.625   0.125
loop_
_geom_bond_atom_site_label_1
_geom_bond_atom_site_label_2
_geom_bond_distance
_geom_bond_site_symmetry_2
_ccdc_geom_bond_type
V1     Ti7    10.0   .     S
V1     Ti12    10.0   .     S
V1     Ti16    10.0   1_655     S
V1     Ti4    10.0   1_655     S
Ti2     Er3    10.0   .     S
Ti2     Er5    10.0   1_655     S
Ti2     V14    10.0   1_655     S
Ti2     V15    10.0   1_545     S
Er3     Ti6    10.0   .     S
Er3     Ti7    10.0   1_545     S
Er3     Ti4    10.0   1_545     S
Ti4     Er3    10.0   1_565     S
Ti4     Er5    10.0   .     S
Ti4     V11    10.0   1_565     S
Ti4     V1    10.0   1_455     S
Er5     Ti7    10.0   .     S
Er5     Ti6    10.0   1_455     S
Er5     Ti2    10.0   1_455     S
Ti6     Er5    10.0   1_655     S
Ti6     V15    10.0   .     S
Ti6     V14    10.0   .     S
Ti7     Er3    10.0   1_565     S
Ti7     V11    10.0   .     S
Er8     Ti16    10.0   1_545     S
Er8     Ti12    10.0   1_545     S
Er8     Ti9    10.0   1_454     S
Er8     Ti10    10.0   1_454     S
Ti9     Er8    10.0   1_656     S
Ti9     V15    10.0   1_545     S
Ti9     Er13    10.0   1_556     S
Ti9     V14    10.0   .     S
Ti10     Er8    10.0   1_656     S
Ti10     Er13    10.0   1_556     S
Ti10     V14    10.0   1_655     S
Ti10     V15    10.0   .     S
V11     Ti4    10.0   1_545     S
V11     Ti16    10.0   .     S
V11     Ti12    10.0   1_545     S
Ti12     Er8    10.0   1_565     S
Ti12     Er13    10.0   .     S
Ti12     V11    10.0   1_565     S
Er13     Ti10    10.0   1_554     S
Er13     Ti9    10.0   1_554     S
Er13     Ti16    10.0   .     S
V14     Ti10    10.0   1_455     S
V14     Ti2    10.0   1_455     S
V15     Ti9    10.0   1_565     S
V15     Ti2    10.0   1_565     S
Ti16     Er8    10.0   1_565     S
Ti16     V1    10.0   1_455     S
