data_hyx
_audit_creation_date              2020-02-02
_audit_creation_method            'Pymatgen'
_symmetry_space_group_name_H-M    'P1'
_symmetry_Int_Tables_number       1
loop_
_symmetry_equiv_pos_as_xyz
  x,y,z
_cell_length_a                    29.6452
_cell_length_b                    29.6452
_cell_length_c                    52.1503
_cell_angle_alpha                 90.0
_cell_angle_beta                 90.0
_cell_angle_gamma                 90.0
loop_
_atom_site_label
_atom_site_type_symbol
_atom_site_fract_x
_atom_site_fract_y
_atom_site_fract_z
V1     V     0.7443   0.0058   0.375
Er2     Er     0.75   0.75   0.25
V3     V     0.7557   0.4942   0.375
V4     V     0.7443   0.4942   0.125
V5     V     0.7557   0.0058   0.125
Ti6     Ti     0.5   0.0   0.0
V7     V     0.2443   0.9942   0.875
V8     V     0.2557   0.5058   0.875
Er9     Er     0.25   0.25   0.75
V10     V     0.2557   0.9942   0.625
V11     V     0.2443   0.5058   0.625
Ti12     Ti     0.0   0.5   0.0
Er13     Er     0.75   0.75   0.75
V14     V     0.4942   0.7443   0.875
V15     V     0.0058   0.7557   0.875
V16     V     0.4942   0.7557   0.625
V17     V     0.0058   0.7443   0.625
V18     V     0.9942   0.2443   0.125
V19     V     0.5058   0.2557   0.125
Er20     Er     0.25   0.25   0.25
V21     V     0.9942   0.2557   0.375
V22     V     0.5058   0.2443   0.375
Ti23     Ti     0.0   0.0   0.5
Ti24     Ti     0.5   0.5   0.5
loop_
_geom_bond_atom_site_label_1
_geom_bond_atom_site_label_2
_geom_bond_distance
_geom_bond_site_symmetry_2
_ccdc_geom_bond_type
V1     Er2    9.999   1_545     S
V1     Ti23    10.0   1_655     S
V1     V22    10.002   .     S
Er2     V1    9.999   1_565     S
Er2     V3    9.999   .     S
Er2     V4    9.999   .     S
Er2     V5    9.999   1_565     S
V3     Ti24    10.0   .     S
V3     V21    10.002   .     S
V4     Ti12    10.0   1_655     S
V4     V19    10.002   .     S
V5     Er2    9.999   1_545     S
V5     Ti6    10.0   .     S
V5     V18    10.002   .     S
Ti6     V7    10.0   1_544     S
Ti6     V19    10.0   .     S
Ti6     V14    10.0   1_544     S
V7     Ti6    10.0   1_566     S
V7     Er9    9.999   1_565     S
V7     V15    10.002   .     S
V8     Er9    9.999   .     S
V8     Ti12    10.0   1_556     S
V8     V14    10.002   .     S
Er9     V7    9.999   1_545     S
Er9     V10    9.999   1_545     S
Er9     V11    9.999   .     S
V10     Er9    9.999   1_565     S
V10     Ti23    10.0   1_565     S
V10     V16    10.002   .     S
V11     Ti24    10.0   .     S
V11     V17    10.002   .     S
Ti12     V4    10.0   1_455     S
Ti12     V15    10.0   1_554     S
Ti12     V8    10.0   1_554     S
Ti12     V18    10.0   1_455     S
Er13     V16    9.999   .     S
Er13     V14    9.999   .     S
Er13     V15    9.999   1_655     S
Er13     V17    9.999   1_655     S
V14     Ti6    10.0   1_566     S
V15     Ti12    10.0   1_556     S
V15     Er13    9.999   1_455     S
V16     Ti24    10.0   .     S
V17     Er13    9.999   1_455     S
V17     Ti23    10.0   1_565     S
V18     Er20    9.999   1_655     S
V18     Ti12    10.0   1_655     S
V19     Er20    9.999   .     S
Er20     V18    9.999   1_455     S
Er20     V22    9.999   .     S
Er20     V21    9.999   1_455     S
V21     Er20    9.999   1_655     S
V21     Ti23    10.0   1_655     S
V22     Ti24    10.0   .     S
Ti23     V1    10.0   1_455     S
Ti23     V10    10.0   1_545     S
Ti23     V17    10.0   1_545     S
Ti23     V21    10.0   1_455     S
