data_iab
_audit_creation_date              2020-02-02
_audit_creation_method            'Pymatgen'
_symmetry_space_group_name_H-M    'P1'
_symmetry_Int_Tables_number       1
loop_
_symmetry_equiv_pos_as_xyz
  x,y,z
_cell_length_a                    28.2843
_cell_length_b                    28.2843
_cell_length_c                    56.5685
_cell_angle_alpha                 90.0
_cell_angle_beta                 90.0
_cell_angle_gamma                 90.0
loop_
_atom_site_label
_atom_site_type_symbol
_atom_site_fract_x
_atom_site_fract_y
_atom_site_fract_z
Ti1     Ti     0.75   0.75   0.75
Ti2     Ti     0.25   0.75   0.75
Ti3     Ti     0.0   0.5   0.5
V4     V     0.75   0.5   0.625
V5     V     0.25   0.5   0.625
Ti6     Ti     0.0   0.0   0.5
V7     V     0.25   0.0   0.625
V8     V     0.75   0.0   0.625
Ti9     Ti     0.5   0.5   0.0
V10     V     0.75   0.5   0.875
V11     V     0.25   0.5   0.875
Ti12     Ti     0.75   0.25   0.25
Ti13     Ti     0.5   0.0   0.0
V14     V     0.25   0.0   0.875
V15     V     0.75   0.0   0.875
Ti16     Ti     0.25   0.25   0.25
V17     V     0.25   0.0   0.125
V18     V     0.75   0.0   0.125
V19     V     0.75   0.5   0.125
V20     V     0.25   0.5   0.125
V21     V     0.25   0.0   0.375
V22     V     0.75   0.0   0.375
V23     V     0.75   0.5   0.375
V24     V     0.25   0.5   0.375
Er25     Er     0.0   0.75   0.125
Er26     Er     0.5   0.75   0.375
Er27     Er     0.5   0.25   0.625
Er28     Er     0.0   0.25   0.875
loop_
_geom_bond_atom_site_label_1
_geom_bond_atom_site_label_2
_geom_bond_distance
_geom_bond_site_symmetry_2
_ccdc_geom_bond_type
Ti1     V15    10.0   1_565     S
Ti1     V8    10.0   1_565     S
Ti1     V4    10.0   .     S
Ti1     V10    10.0   .     S
Ti2     V7    10.0   1_565     S
Ti2     V14    10.0   1_565     S
Ti2     V11    10.0   .     S
Ti2     V5    10.0   .     S
Ti3     V23    10.0   1_455     S
Ti3     V4    10.0   1_455     S
Ti3     V5    10.0   .     S
Ti3     V24    10.0   .     S
V4     Ti3    10.0   1_655     S
V4     Er27    10.0   .     S
V5     Er27    10.0   .     S
Ti6     V21    10.0   .     S
Ti6     V7    10.0   .     S
Ti6     V8    10.0   1_455     S
Ti6     V22    10.0   1_455     S
V7     Ti2    10.0   1_545     S
V7     Er27    10.0   .     S
V8     Ti1    10.0   1_545     S
V8     Ti6    10.0   1_655     S
V8     Er27    10.0   .     S
Ti9     V10    10.0   1_554     S
Ti9     V11    10.0   1_554     S
Ti9     V19    10.0   .     S
Ti9     V20    10.0   .     S
V10     Ti9    10.0   1_556     S
V10     Er28    10.0   1_655     S
V11     Ti9    10.0   1_556     S
V11     Er28    10.0   .     S
Ti12     V22    10.0   .     S
Ti12     V23    10.0   .     S
Ti12     V18    10.0   .     S
Ti12     V19    10.0   .     S
Ti13     V14    10.0   1_554     S
Ti13     V15    10.0   1_554     S
Ti13     V17    10.0   .     S
Ti13     V18    10.0   .     S
V14     Ti2    10.0   1_545     S
V14     Ti13    10.0   1_556     S
V14     Er28    10.0   .     S
V15     Ti1    10.0   1_545     S
V15     Ti13    10.0   1_556     S
V15     Er28    10.0   1_655     S
Ti16     V21    10.0   .     S
Ti16     V24    10.0   .     S
Ti16     V17    10.0   .     S
Ti16     V20    10.0   .     S
V17     Er25    10.0   1_545     S
V18     Er25    10.0   1_645     S
V19     Er25    10.0   1_655     S
V20     Er25    10.0   .     S
V21     Er26    10.0   1_545     S
V22     Ti6    10.0   1_655     S
V22     Er26    10.0   1_545     S
V23     Ti3    10.0   1_655     S
V23     Er26    10.0   .     S
V24     Er26    10.0   .     S
Er25     V17    10.0   1_565     S
Er25     V18    10.0   1_465     S
Er25     V19    10.0   1_455     S
Er26     V21    10.0   1_565     S
Er26     V22    10.0   1_565     S
Er28     V15    10.0   1_455     S
Er28     V10    10.0   1_455     S
