data_iac
_audit_creation_date              2020-02-02
_audit_creation_method            'Pymatgen'
_symmetry_space_group_name_H-M    'P1'
_symmetry_Int_Tables_number       1
loop_
_symmetry_equiv_pos_as_xyz
  x,y,z
_cell_length_a                    35.7771
_cell_length_b                    35.7771
_cell_length_c                    35.7771
_cell_angle_alpha                 90.0
_cell_angle_beta                 90.0
_cell_angle_gamma                 90.0
loop_
_atom_site_label
_atom_site_type_symbol
_atom_site_fract_x
_atom_site_fract_y
_atom_site_fract_z
Er1     Er     0.75   0.75   0.75
V2     V     0.875   0.0   0.75
Er3     Er     0.75   0.25   0.75
V4     V     0.625   0.5   0.75
V5     V     0.75   0.625   0.5
Er6     Er     0.75   0.75   0.25
V7     V     0.75   0.875   0.0
V8     V     0.5   0.75   0.125
V9     V     0.375   0.0   0.75
V10     V     0.75   0.375   0.0
V11     V     0.25   0.625   0.0
V12     V     0.125   0.5   0.75
V13     V     0.75   0.125   0.5
V14     V     0.0   0.75   0.375
Er15     Er     0.25   0.75   0.25
V16     V     0.25   0.875   0.5
V17     V     0.875   0.5   0.25
Er18     Er     0.75   0.25   0.25
V19     V     0.625   0.0   0.25
V20     V     0.5   0.25   0.875
Er21     Er     0.25   0.25   0.75
V22     V     0.0   0.25   0.625
V23     V     0.0   0.25   0.125
Er24     Er     0.0   0.0   0.0
Er25     Er     0.25   0.25   0.25
V26     V     0.125   0.0   0.25
Er27     Er     0.0   0.0   0.5
V28     V     0.25   0.125   0.0
Er29     Er     0.5   0.0   0.0
Er30     Er     0.5   0.0   0.5
V31     V     0.5   0.25   0.375
Er32     Er     0.0   0.5   0.0
Er33     Er     0.5   0.5   0.0
Er34     Er     0.0   0.5   0.5
V35     V     0.25   0.375   0.5
Er36     Er     0.5   0.5   0.5
V37     V     0.375   0.5   0.25
V38     V     0.0   0.75   0.875
Er39     Er     0.25   0.75   0.75
V40     V     0.5   0.75   0.625
loop_
_geom_bond_atom_site_label_1
_geom_bond_atom_site_label_2
_geom_bond_distance
_geom_bond_site_symmetry_2
_ccdc_geom_bond_type
Er1     V38    10.0   1_655     S
Er1     V7    10.0   1_556     S
Er1     V2    10.0   1_565     S
Er1     V40    10.0   .     S
Er1     V5    10.0   .     S
Er1     V4    10.0   .     S
V2     Er1    10.0   1_545     S
V2     Er3    10.0   .     S
V2     Er24    10.0   1_656     S
V2     Er27    10.0   1_655     S
Er3     V13    10.0   .     S
Er3     V22    10.0   1_655     S
Er3     V20    10.0   .     S
Er3     V10    10.0   1_556     S
Er3     V4    10.0   .     S
V4     Er36    10.0   .     S
V4     Er33    10.0   1_556     S
V5     Er6    10.0   .     S
V5     Er34    10.0   1_655     S
V5     Er36    10.0   .     S
Er6     V8    10.0   .     S
Er6     V17    10.0   .     S
Er6     V14    10.0   1_655     S
Er6     V19    10.0   1_565     S
Er6     V7    10.0   .     S
V7     Er1    10.0   1_554     S
V7     Er24    10.0   1_665     S
V7     Er29    10.0   1_565     S
V8     Er29    10.0   1_565     S
V8     Er33    10.0   .     S
V8     Er15    10.0   .     S
V9     Er30    10.0   .     S
V9     Er29    10.0   1_556     S
V9     Er21    10.0   .     S
V9     Er39    10.0   1_545     S
V10     Er3    10.0   1_554     S
V10     Er33    10.0   .     S
V10     Er32    10.0   1_655     S
V10     Er18    10.0   .     S
V11     Er15    10.0   .     S
V11     Er33    10.0   .     S
V11     Er32    10.0   .     S
V11     Er39    10.0   1_554     S
V12     Er32    10.0   1_556     S
V12     Er34    10.0   .     S
V12     Er21    10.0   .     S
V12     Er39    10.0   .     S
V13     Er30    10.0   .     S
V13     Er27    10.0   1_655     S
V13     Er18    10.0   .     S
V14     Er6    10.0   1_455     S
V14     Er27    10.0   1_565     S
V14     Er34    10.0   .     S
V14     Er15    10.0   .     S
Er15     V26    10.0   1_565     S
Er15     V37    10.0   .     S
Er15     V16    10.0   .     S
V16     Er30    10.0   1_565     S
V16     Er27    10.0   1_565     S
V16     Er39    10.0   .     S
V17     Er18    10.0   .     S
V17     Er32    10.0   1_655     S
V17     Er34    10.0   1_655     S
Er18     V23    10.0   1_655     S
Er18     V31    10.0   .     S
Er18     V19    10.0   .     S
V19     Er6    10.0   1_545     S
V19     Er29    10.0   .     S
V19     Er30    10.0   .     S
V20     Er21    10.0   .     S
V20     Er29    10.0   1_556     S
V20     Er33    10.0   1_556     S
Er21     V28    10.0   1_556     S
Er21     V35    10.0   .     S
Er21     V22    10.0   .     S
V22     Er3    10.0   1_455     S
V22     Er27    10.0   .     S
V22     Er34    10.0   .     S
V23     Er18    10.0   1_455     S
V23     Er24    10.0   .     S
V23     Er25    10.0   .     S
V23     Er32    10.0   .     S
Er24     V2    10.0   1_454     S
Er24     V7    10.0   1_445     S
Er24     V26    10.0   .     S
Er24     V28    10.0   .     S
Er24     V38    10.0   1_544     S
Er25     V28    10.0   .     S
Er25     V26    10.0   .     S
Er25     V31    10.0   .     S
Er25     V35    10.0   .     S
Er25     V37    10.0   .     S
V26     Er15    10.0   1_545     S
V26     Er27    10.0   .     S
Er27     V2    10.0   1_455     S
Er27     V13    10.0   1_455     S
Er27     V14    10.0   1_545     S
Er27     V16    10.0   1_545     S
V28     Er21    10.0   1_554     S
V28     Er29    10.0   .     S
Er29     V7    10.0   1_545     S
Er29     V8    10.0   1_545     S
Er29     V9    10.0   1_554     S
Er29     V20    10.0   1_554     S
Er30     V16    10.0   1_545     S
Er30     V31    10.0   .     S
Er30     V40    10.0   1_545     S
V31     Er36    10.0   .     S
Er32     V10    10.0   1_455     S
Er32     V12    10.0   1_554     S
Er32     V17    10.0   1_455     S
Er32     V38    10.0   1_554     S
Er33     V4    10.0   1_554     S
Er33     V20    10.0   1_554     S
Er33     V37    10.0   .     S
Er34     V5    10.0   1_455     S
Er34     V17    10.0   1_455     S
Er34     V35    10.0   .     S
V35     Er36    10.0   .     S
Er36     V37    10.0   .     S
Er36     V40    10.0   .     S
V38     Er1    10.0   1_455     S
V38     Er39    10.0   .     S
V38     Er24    10.0   1_566     S
V38     Er32    10.0   1_556     S
Er39     V9    10.0   1_565     S
Er39     V11    10.0   1_556     S
Er39     V40    10.0   .     S
V40     Er30    10.0   1_565     S
