data_ibe
_audit_creation_date              2020-02-02
_audit_creation_method            'Pymatgen'
_symmetry_space_group_name_H-M    'P1'
_symmetry_Int_Tables_number       1
loop_
_symmetry_equiv_pos_as_xyz
  x,y,z
_cell_length_a                    44.6045
_cell_length_b                    44.6045
_cell_length_c                    44.6045
_cell_angle_alpha                 90.0
_cell_angle_beta                 90.0
_cell_angle_gamma                 90.0
loop_
_atom_site_label
_atom_site_type_symbol
_atom_site_fract_x
_atom_site_fract_y
_atom_site_fract_z
V1     V     0.625   0.625   0.625
V2     V     0.875   0.625   0.375
V3     V     0.875   0.375   0.125
Er4     Er     0.75   0.5128   0.0
Er5     Er     0.0128   0.5   0.25
V6     V     0.625   0.375   0.875
V7     V     0.375   0.125   0.875
Er8     Er     0.5   0.25   0.0128
Er9     Er     0.5   0.25   0.7372
Er10     Er     0.5128   0.0   0.75
Er11     Er     0.9872   0.0   0.25
Er12     Er     0.25   0.2628   0.0
Er13     Er     0.25   0.9872   0.0
Er14     Er     0.2628   0.0   0.25
Er15     Er     0.0   0.25   0.9872
Er16     Er     0.0   0.25   0.2628
V17     V     0.125   0.125   0.125
V18     V     0.375   0.875   0.625
V19     V     0.125   0.875   0.375
Er20     Er     0.0   0.75   0.5128
Er21     Er     0.25   0.0128   0.5
Er22     Er     0.25   0.7372   0.5
Er23     Er     0.0   0.75   0.2372
Er24     Er     0.2372   0.0   0.75
Er25     Er     0.75   0.2372   0.0
Er26     Er     0.5   0.75   0.7628
Er27     Er     0.5   0.75   0.4872
Er28     Er     0.75   0.7628   0.5
Er29     Er     0.4872   0.5   0.75
Er30     Er     0.7628   0.5   0.75
Er31     Er     0.75   0.4872   0.5
Er32     Er     0.7372   0.5   0.25
V33     V     0.125   0.375   0.625
V34     V     0.625   0.125   0.375
Er35     Er     0.5   0.25   0.5128
V36     V     0.375   0.375   0.375
Er37     Er     0.5128   0.5   0.25
Er38     Er     0.5   0.75   0.9872
V39     V     0.375   0.625   0.125
Er40     Er     0.25   0.5128   0.5
V41     V     0.625   0.875   0.125
Er42     Er     0.75   0.7372   0.0
V43     V     0.875   0.125   0.625
Er44     Er     0.7372   0.0   0.75
V45     V     0.875   0.875   0.875
V46     V     0.125   0.625   0.875
Er47     Er     0.0   0.75   0.7372
Er48     Er     0.9872   0.5   0.75
Er49     Er     0.2628   0.5   0.75
Er50     Er     0.75   0.9872   0.5
Er51     Er     0.0   0.25   0.4872
Er52     Er     0.0   0.25   0.7628
Er53     Er     0.5   0.75   0.2628
Er54     Er     0.7628   0.0   0.25
Er55     Er     0.25   0.7628   0.0
Er56     Er     0.75   0.2628   0.5
Er57     Er     0.2372   0.5   0.25
Er58     Er     0.25   0.4872   0.0
Er59     Er     0.4872   0.0   0.25
Er60     Er     0.5   0.25   0.2372
Er61     Er     0.25   0.2372   0.5
Er62     Er     0.0   0.75   0.0128
Er63     Er     0.75   0.0128   0.0
Er64     Er     0.0128   0.0   0.75
loop_
_geom_bond_atom_site_label_1
_geom_bond_atom_site_label_2
_geom_bond_distance
_geom_bond_site_symmetry_2
_ccdc_geom_bond_type
V1     Er26    9.998   .     S
V1     Er27    9.998   .     S
V1     Er30    9.998   .     S
V1     Er31    9.998   .     S
V1     Er28    9.998   .     S
V1     Er29    9.998   .     S
V2     Er32    9.998   .     S
V2     Er28    9.998   .     S
V2     Er31    9.998   .     S
V2     Er5    9.998   1_655     S
V2     Er20    9.998   1_655     S
V2     Er23    9.998   1_655     S
V3     Er32    9.998   .     S
V3     Er4    9.998   .     S
V3     Er25    9.998   .     S
V3     Er5    9.998   1_655     S
V3     Er16    9.998   1_655     S
V3     Er15    9.998   1_654     S
Er4     V6    9.998   1_554     S
Er4     Er42    10.009   .     S
Er5     V2    9.998   1_455     S
Er5     V3    9.998   1_455     S
Er5     Er57    10.009   .     S
V6     Er9    9.998   .     S
V6     Er29    9.998   .     S
V6     Er30    9.998   .     S
V6     Er8    9.998   1_556     S
V6     Er4    9.998   1_556     S
V6     Er25    9.998   1_556     S
V7     Er9    9.998   .     S
V7     Er10    9.998   .     S
V7     Er24    9.998   .     S
V7     Er8    9.998   1_556     S
V7     Er12    9.998   1_556     S
V7     Er13    9.998   1_546     S
Er8     V6    9.998   1_554     S
Er8     V7    9.998   1_554     S
Er8     Er60    10.009   .     S
Er9     Er35    10.009   .     S
Er10     V18    9.998   1_545     S
Er10     Er44    10.009   .     S
Er11     V17    9.998   1_655     S
Er11     V19    9.998   1_645     S
Er11     Er54    10.009   .     S
Er12     V7    9.998   1_554     S
Er12     V17    9.998   .     S
Er12     Er58    10.009   .     S
Er13     V17    9.998   1_565     S
Er13     V7    9.998   1_564     S
Er13     Er55    10.009   .     S
Er14     V17    9.998   .     S
Er14     V19    9.998   1_545     S
Er14     Er59    10.009   .     S
Er15     V3    9.998   1_456     S
Er15     V17    9.998   1_556     S
Er15     Er52    10.009   .     S
Er16     V3    9.998   1_455     S
Er16     V17    9.998   .     S
Er16     Er51    10.009   .     S
V17     Er11    9.998   1_455     S
V17     Er13    9.998   1_545     S
V17     Er15    9.998   1_554     S
V18     Er22    9.998   .     S
V18     Er26    9.998   .     S
V18     Er27    9.998   .     S
V18     Er21    9.998   1_565     S
V18     Er10    9.998   1_565     S
V18     Er24    9.998   1_565     S
V19     Er14    9.998   1_565     S
V19     Er22    9.998   .     S
V19     Er23    9.998   .     S
V19     Er20    9.998   .     S
V19     Er21    9.998   1_565     S
V19     Er11    9.998   1_465     S
Er20     V2    9.998   1_455     S
Er20     Er47    10.009   .     S
Er21     V18    9.998   1_545     S
Er21     V19    9.998   1_545     S
Er21     Er61    10.009   .     S
Er22     Er40    10.009   .     S
Er23     V2    9.998   1_455     S
Er23     Er62    10.009   .     S
Er24     V18    9.998   1_545     S
Er24     Er64    10.009   .     S
Er25     V6    9.998   1_554     S
Er25     Er63    10.009   .     S
Er26     Er38    10.009   .     S
Er27     Er53    10.009   .     S
Er28     Er50    10.009   .     S
Er29     Er49    10.009   .     S
Er30     Er48    10.009   .     S
Er31     Er56    10.009   .     S
Er32     Er37    10.009   .     S
V33     Er48    9.998   1_455     S
V33     Er61    9.998   .     S
V33     Er49    9.998   .     S
V33     Er51    9.998   .     S
V33     Er52    9.998   .     S
V33     Er40    9.998   .     S
V34     Er50    9.998   1_545     S
V34     Er35    9.998   .     S
V34     Er60    9.998   .     S
V34     Er56    9.998   .     S
V34     Er54    9.998   .     S
V34     Er59    9.998   .     S
Er35     V36    9.998   .     S
V36     Er60    9.998   .     S
V36     Er57    9.998   .     S
V36     Er61    9.998   .     S
V36     Er37    9.998   .     S
V36     Er40    9.998   .     S
Er37     V39    9.998   .     S
Er38     V39    9.998   1_556     S
Er38     V41    9.998   1_556     S
V39     Er38    9.998   1_554     S
V39     Er53    9.998   .     S
V39     Er55    9.998   .     S
V39     Er58    9.998   .     S
V39     Er57    9.998   .     S
V41     Er42    9.998   .     S
V41     Er38    9.998   1_554     S
V41     Er53    9.998   .     S
V41     Er63    9.998   1_565     S
V41     Er54    9.998   1_565     S
V41     Er59    9.998   1_565     S
Er42     V45    9.998   1_554     S
V43     Er44    9.998   .     S
V43     Er50    9.998   1_545     S
V43     Er56    9.998   .     S
V43     Er64    9.998   1_655     S
V43     Er51    9.998   1_655     S
V43     Er52    9.998   1_655     S
Er44     V45    9.998   1_545     S
V45     Er47    9.998   1_655     S
V45     Er44    9.998   1_565     S
V45     Er42    9.998   1_556     S
V45     Er62    9.998   1_656     S
V45     Er63    9.998   1_566     S
V45     Er64    9.998   1_665     S
V46     Er47    9.998   .     S
V46     Er48    9.998   1_455     S
V46     Er49    9.998   .     S
V46     Er62    9.998   1_556     S
V46     Er58    9.998   1_556     S
V46     Er55    9.998   1_556     S
Er47     V45    9.998   1_455     S
Er48     V33    9.998   1_655     S
Er48     V46    9.998   1_655     S
Er50     V34    9.998   1_565     S
Er50     V43    9.998   1_565     S
Er51     V43    9.998   1_455     S
Er52     V43    9.998   1_455     S
Er54     V41    9.998   1_545     S
Er55     V46    9.998   1_554     S
Er58     V46    9.998   1_554     S
Er59     V41    9.998   1_545     S
Er62     V45    9.998   1_454     S
Er62     V46    9.998   1_554     S
Er63     V41    9.998   1_545     S
Er63     V45    9.998   1_544     S
Er64     V43    9.998   1_455     S
Er64     V45    9.998   1_445     S
