data_icd
_audit_creation_date              2020-02-02
_audit_creation_method            'Pymatgen'
_symmetry_space_group_name_H-M    'P1'
_symmetry_Int_Tables_number       1
loop_
_symmetry_equiv_pos_as_xyz
  x,y,z
_cell_length_a                    32.6599
_cell_length_b                    32.6599
_cell_length_c                    32.6599
_cell_angle_alpha                 90.0
_cell_angle_beta                 90.0
_cell_angle_gamma                 90.0
loop_
_atom_site_label
_atom_site_type_symbol
_atom_site_fract_x
_atom_site_fract_y
_atom_site_fract_z
V1     V     0.625   0.5   0.25
Er2     Er     0.75   0.625   0.5
Er3     Er     0.625   0.5   0.75
V4     V     0.5   0.25   0.625
Er5     Er     0.5   0.75   0.625
V6     V     0.25   0.625   0.5
Er7     Er     0.375   0.5   0.25
Er8     Er     0.25   0.375   0.5
Er9     Er     0.5   0.25   0.375
V10     V     0.25   0.375   0.0
Er11     Er     0.125   0.5   0.75
V12     V     0.375   0.0   0.25
Er13     Er     0.5   0.75   0.125
V14     V     0.0   0.25   0.375
Er15     Er     0.75   0.125   0.5
V16     V     0.125   0.5   0.25
Er17     Er     0.25   0.625   0.0
V18     V     0.375   0.5   0.75
V19     V     0.5   0.25   0.125
Er20     Er     0.625   0.0   0.25
V21     V     0.25   0.125   0.5
Er22     Er     0.0   0.25   0.625
V23     V     0.75   0.375   0.5
Er24     Er     0.125   0.0   0.25
V25     V     0.0   0.75   0.125
Er26     Er     0.75   0.875   0.0
Er27     Er     0.875   0.5   0.25
Er28     Er     0.5   0.25   0.875
Er29     Er     0.375   0.0   0.75
V30     V     0.5   0.75   0.875
V31     V     0.625   0.0   0.75
V32     V     0.25   0.875   0.0
Er33     Er     0.25   0.125   0.0
V34     V     0.125   0.0   0.75
Er35     Er     0.0   0.75   0.875
V36     V     0.5   0.75   0.375
Er37     Er     0.25   0.875   0.5
Er38     Er     0.75   0.375   0.0
V39     V     0.875   0.5   0.75
V40     V     0.75   0.625   0.0
V41     V     0.0   0.25   0.875
Er42     Er     0.0   0.25   0.125
V43     V     0.75   0.125   0.0
Er44     Er     0.875   0.0   0.75
V45     V     0.875   0.0   0.25
Er46     Er     0.0   0.75   0.375
V47     V     0.75   0.875   0.5
V48     V     0.0   0.75   0.625
loop_
_geom_bond_atom_site_label_1
_geom_bond_atom_site_label_2
_geom_bond_distance
_geom_bond_site_symmetry_2
_ccdc_geom_bond_type
V1     Er13    10.0   .     S
V1     Er9    10.0   .     S
V1     Er38    10.0   .     S
V1     Er2    10.0   .     S
Er2     V36    10.0   .     S
Er2     V48    10.0   1_655     S
Er2     V39    10.0   .     S
Er3     V4    10.0   .     S
Er3     V23    10.0   .     S
Er3     V40    10.0   1_556     S
Er3     V30    10.0   .     S
V4     Er15    10.0   .     S
V4     Er8    10.0   .     S
V4     Er29    10.0   .     S
Er5     V31    10.0   1_565     S
Er5     V47    10.0   .     S
Er5     V6    10.0   .     S
Er5     V18    10.0   .     S
V6     Er11    10.0   .     S
V6     Er7    10.0   .     S
V6     Er46    10.0   .     S
Er7     V19    10.0   .     S
Er7     V36    10.0   .     S
Er7     V10    10.0   .     S
Er8     V18    10.0   .     S
Er8     V16    10.0   .     S
Er8     V14    10.0   .     S
Er9     V23    10.0   .     S
Er9     V21    10.0   .     S
Er9     V12    10.0   .     S
V10     Er11    10.0   1_554     S
V10     Er28    10.0   1_554     S
V10     Er42    10.0   .     S
Er11     V10    10.0   1_556     S
Er11     V41    10.0   .     S
Er11     V48    10.0   .     S
V12     Er13    10.0   1_545     S
V12     Er37    10.0   1_545     S
V12     Er33    10.0   .     S
Er13     V12    10.0   1_565     S
Er13     V32    10.0   .     S
Er13     V40    10.0   .     S
V14     Er15    10.0   1_455     S
V14     Er27    10.0   1_455     S
V14     Er24    10.0   .     S
Er15     V14    10.0   1_655     S
Er15     V45    10.0   .     S
Er15     V31    10.0   .     S
V16     Er46    10.0   .     S
V16     Er42    10.0   .     S
V16     Er17    10.0   .     S
Er17     V25    10.0   .     S
Er17     V18    10.0   1_554     S
Er17     V30    10.0   1_554     S
V18     Er17    10.0   1_556     S
V18     Er28    10.0   .     S
V19     Er33    10.0   .     S
V19     Er38    10.0   .     S
V19     Er20    10.0   .     S
Er20     V43    10.0   .     S
Er20     V36    10.0   1_545     S
Er20     V47    10.0   1_545     S
V21     Er29    10.0   .     S
V21     Er24    10.0   .     S
V21     Er22    10.0   .     S
Er22     V34    10.0   .     S
Er22     V23    10.0   1_455     S
Er22     V39    10.0   1_455     S
V23     Er22    10.0   1_655     S
V23     Er27    10.0   .     S
Er24     V25    10.0   1_545     S
Er24     V32    10.0   1_545     S
V25     Er24    10.0   1_565     S
V25     Er26    10.0   1_455     S
V25     Er27    10.0   1_455     S
Er26     V25    10.0   1_655     S
Er26     V45    10.0   1_565     S
Er26     V30    10.0   1_554     S
Er26     V31    10.0   1_564     S
Er27     V40    10.0   .     S
Er27     V25    10.0   1_655     S
Er27     V14    10.0   1_655     S
Er28     V31    10.0   .     S
Er28     V43    10.0   1_556     S
Er28     V10    10.0   1_556     S
Er29     V30    10.0   1_545     S
Er29     V32    10.0   1_546     S
V30     Er29    10.0   1_565     S
V30     Er26    10.0   1_556     S
V30     Er17    10.0   1_556     S
V31     Er5    10.0   1_545     S
V31     Er26    10.0   1_546     S
V32     Er29    10.0   1_564     S
V32     Er35    10.0   1_554     S
V32     Er24    10.0   1_565     S
Er33     V34    10.0   1_554     S
Er33     V41    10.0   1_554     S
V34     Er33    10.0   1_556     S
V34     Er35    10.0   1_545     S
V34     Er37    10.0   1_545     S
Er35     V34    10.0   1_565     S
Er35     V32    10.0   1_556     S
Er35     V39    10.0   1_455     S
Er35     V40    10.0   1_456     S
V36     Er20    10.0   1_565     S
V36     Er37    10.0   .     S
Er37     V48    10.0   .     S
Er37     V34    10.0   1_565     S
Er37     V12    10.0   1_565     S
Er38     V39    10.0   1_554     S
Er38     V41    10.0   1_654     S
V39     Er38    10.0   1_556     S
V39     Er35    10.0   1_655     S
V39     Er22    10.0   1_655     S
V40     Er3    10.0   1_554     S
V40     Er35    10.0   1_654     S
V41     Er38    10.0   1_456     S
V41     Er44    10.0   1_455     S
V41     Er33    10.0   1_556     S
Er42     V43    10.0   1_455     S
Er42     V45    10.0   1_455     S
V43     Er28    10.0   1_554     S
V43     Er42    10.0   1_655     S
V43     Er44    10.0   1_554     S
Er44     V43    10.0   1_556     S
Er44     V41    10.0   1_655     S
Er44     V47    10.0   1_545     S
Er44     V48    10.0   1_645     S
V45     Er26    10.0   1_545     S
V45     Er46    10.0   1_645     S
V45     Er42    10.0   1_655     S
Er46     V45    10.0   1_465     S
Er46     V47    10.0   1_455     S
V47     Er46    10.0   1_655     S
V47     Er44    10.0   1_565     S
V47     Er20    10.0   1_565     S
V48     Er2    10.0   1_455     S
V48     Er44    10.0   1_465     S
