data_icme
_audit_creation_date              2020-02-02
_audit_creation_method            'Pymatgen'
_symmetry_space_group_name_H-M    'P1'
_symmetry_Int_Tables_number       1
loop_
_symmetry_equiv_pos_as_xyz
  x,y,z
_cell_length_a                    29.6229
_cell_length_b                    29.6229
_cell_length_c                    69.6442
_cell_angle_alpha                 90.0
_cell_angle_beta                 90.0
_cell_angle_gamma                 120.0
loop_
_atom_site_label
_atom_site_type_symbol
_atom_site_fract_x
_atom_site_fract_y
_atom_site_fract_z
Er1     Er     0.8917   0.4459   0.3551
Er2     Er     0.5541   0.1083   0.3551
Er3     Er     0.5541   0.4459   0.3551
Er4     Er     0.4459   0.5541   0.8551
Er5     Er     0.1083   0.5541   0.8551
Er6     Er     0.4459   0.8917   0.8551
Er7     Er     0.1083   0.5541   0.6449
Er8     Er     0.4459   0.8917   0.6449
Er9     Er     0.4459   0.5541   0.6449
Er10     Er     0.5541   0.4459   0.1449
Er11     Er     0.8917   0.4459   0.1449
Er12     Er     0.5541   0.1083   0.1449
Ti13     Ti     0.1125   0.225   0.6172
Ti14     Ti     0.775   0.8875   0.6172
Ti15     Ti     0.1125   0.8875   0.6172
Ti16     Ti     0.225   0.1125   0.3828
Ti17     Ti     0.8875   0.1125   0.3828
Ti18     Ti     0.8875   0.775   0.3828
V19     V     0.0   0.0   0.5
Ce20     Ce     0.1868   0.3735   0.75
Ce21     Ce     0.6265   0.8132   0.75
Ce22     Ce     0.1868   0.8132   0.75
Ti23     Ti     0.1125   0.225   0.8828
Ti24     Ti     0.775   0.8875   0.8828
Ti25     Ti     0.1125   0.8875   0.8828
Ti26     Ti     0.225   0.1125   0.1172
Ti27     Ti     0.8875   0.775   0.1172
Ti28     Ti     0.8875   0.1125   0.1172
V29     V     0.0   0.0   0.0
Ce30     Ce     0.3735   0.1868   0.25
Ce31     Ce     0.8132   0.1868   0.25
Ce32     Ce     0.8132   0.6265   0.25
loop_
_geom_bond_atom_site_label_1
_geom_bond_atom_site_label_2
_geom_bond_distance
_geom_bond_site_symmetry_2
_ccdc_geom_bond_type
Er1     Ti18    10.0   .     S
Er1     Ti17    10.0   .     S
Er1     Er2    10.0   .     S
Er1     Er3    10.0   .     S
Er1     Ce31    10.0   .     S
Er1     Ce32    10.0   .     S
Er2     Ti16    10.0   .     S
Er2     Ti17    10.0   .     S
Er2     Er3    10.0   .     S
Er2     Ce30    10.0   .     S
Er2     Ce31    10.0   .     S
Er3     Ti16    10.0   .     S
Er3     Ti18    10.0   .     S
Er3     Ce30    10.0   .     S
Er3     Ce32    10.0   .     S
Er4     Ti24    10.0   .     S
Er4     Ti23    10.0   .     S
Er4     Er6    10.0   .     S
Er4     Er5    10.0   .     S
Er4     Ce20    10.0   .     S
Er4     Ce21    10.0   .     S
Er5     Ti23    10.0   .     S
Er5     Ti25    10.0   .     S
Er5     Er6    10.0   .     S
Er5     Ce22    10.0   .     S
Er5     Ce20    10.0   .     S
Er6     Ti25    10.0   .     S
Er6     Ti24    10.0   .     S
Er6     Ce22    10.0   .     S
Er6     Ce21    10.0   .     S
Er7     Ti15    10.0   .     S
Er7     Ti13    10.0   .     S
Er7     Er8    10.0   .     S
Er7     Er9    10.0   .     S
Er7     Ce22    10.0   .     S
Er7     Ce20    10.0   .     S
Er8     Ti15    10.0   .     S
Er8     Ti14    10.0   .     S
Er8     Er9    10.0   .     S
Er8     Ce21    10.0   .     S
Er8     Ce22    10.0   .     S
Er9     Ti13    10.0   .     S
Er9     Ti14    10.0   .     S
Er9     Ce20    10.0   .     S
Er9     Ce21    10.0   .     S
Er10     Ti27    10.0   .     S
Er10     Ti26    10.0   .     S
Er10     Er12    10.0   .     S
Er10     Er11    10.0   .     S
Er10     Ce30    10.0   .     S
Er10     Ce32    10.0   .     S
Er11     Ti28    10.0   .     S
Er11     Ti27    10.0   .     S
Er11     Er12    10.0   .     S
Er11     Ce31    10.0   .     S
Er11     Ce32    10.0   .     S
Er12     Ti26    10.0   .     S
Er12     Ti28    10.0   .     S
Er12     Ce30    10.0   .     S
Er12     Ce31    10.0   .     S
Ti13     Ce20    10.0   .     S
Ti13     Ti14    10.0   1_445     S
Ti13     Ti15    10.0   1_545     S
Ti13     V19    10.0   .     S
Ti14     Ce21    10.0   .     S
Ti14     Ti13    10.0   1_665     S
Ti14     Ti15    10.0   1_655     S
Ti14     V19    10.0   1_665     S
Ti15     Ce22    10.0   .     S
Ti15     Ti13    10.0   1_565     S
Ti15     Ti14    10.0   1_455     S
Ti15     V19    10.0   1_565     S
Ti16     Ce30    10.0   .     S
Ti16     Ti18    10.0   1_445     S
Ti16     Ti17    10.0   1_455     S
Ti16     V19    10.0   .     S
Ti17     Ce31    10.0   .     S
Ti17     Ti16    10.0   1_655     S
Ti17     Ti18    10.0   1_545     S
Ti17     V19    10.0   1_655     S
Ti18     Ce32    10.0   .     S
Ti18     Ti16    10.0   1_665     S
Ti18     Ti17    10.0   1_565     S
Ti18     V19    10.0   1_665     S
V19     Ti17    10.0   1_455     S
V19     Ti18    10.0   1_445     S
V19     Ti15    10.0   1_545     S
V19     Ti14    10.0   1_445     S
Ce20     Ti23    10.0   .     S
Ce21     Ti24    10.0   .     S
Ce22     Ti25    10.0   .     S
Ti23     Ti24    10.0   1_445     S
Ti23     Ti25    10.0   1_545     S
Ti23     V29    10.0   1_556     S
Ti24     Ti23    10.0   1_665     S
Ti24     Ti25    10.0   1_655     S
Ti24     V29    10.0   1_666     S
Ti25     Ti23    10.0   1_565     S
Ti25     Ti24    10.0   1_455     S
Ti25     V29    10.0   1_566     S
Ti26     Ce30    10.0   .     S
Ti26     Ti27    10.0   1_445     S
Ti26     Ti28    10.0   1_455     S
Ti26     V29    10.0   .     S
Ti27     Ce32    10.0   .     S
Ti27     Ti26    10.0   1_665     S
Ti27     Ti28    10.0   1_565     S
Ti27     V29    10.0   1_665     S
Ti28     Ce31    10.0   .     S
Ti28     Ti27    10.0   1_545     S
Ti28     Ti26    10.0   1_655     S
Ti28     V29    10.0   1_655     S
V29     Ti25    10.0   1_544     S
V29     Ti23    10.0   1_554     S
V29     Ti24    10.0   1_444     S
V29     Ti28    10.0   1_455     S
V29     Ti27    10.0   1_445     S
