data_ild
_audit_creation_date              2020-02-02
_audit_creation_method            'Pymatgen'
_symmetry_space_group_name_H-M    'P1'
_symmetry_Int_Tables_number       1
loop_
_symmetry_equiv_pos_as_xyz
  x,y,z
_cell_length_a                    16.7562
_cell_length_b                    16.7562
_cell_length_c                    14.4528
_cell_angle_alpha                 90.0
_cell_angle_beta                 90.0
_cell_angle_gamma                 120.0
loop_
_atom_site_label
_atom_site_type_symbol
_atom_site_fract_x
_atom_site_fract_y
_atom_site_fract_z
V1     V     0.0   0.0   0.0
V2     V     0.0   0.0   0.3333
V3     V     0.0   0.0   0.6667
V4     V     0.6667   0.3333   0.1111
V5     V     0.6667   0.3333   0.4444
V6     V     0.6667   0.3333   0.7778
V7     V     0.3333   0.6667   0.2222
V8     V     0.3333   0.6667   0.5556
V9     V     0.3333   0.6667   0.8889
loop_
_geom_bond_atom_site_label_1
_geom_bond_atom_site_label_2
_geom_bond_distance
_geom_bond_site_symmetry_2
_ccdc_geom_bond_type
V1     V7    10.193   1_445     S
V1     V6    10.193   1_444     S
V1     V6    10.193   1_554     S
V1     V7    10.193   .     S
V1     V6    10.193   1_454     S
V1     V7    10.193   1_545     S
V1     V9    9.807   1_444     S
V1     V4    9.807   1_445     S
V1     V4    9.807   .     S
V1     V9    9.807   1_554     S
V1     V4    9.807   1_455     S
V1     V9    9.807   1_544     S
V2     V8    10.193   1_445     S
V2     V4    10.193   1_445     S
V2     V4    10.193   .     S
V2     V8    10.193   .     S
V2     V4    10.193   1_455     S
V2     V8    10.193   1_545     S
V2     V7    9.807   1_445     S
V2     V5    9.807   1_445     S
V2     V5    9.807   .     S
V2     V7    9.807   .     S
V2     V5    9.807   1_455     S
V2     V7    9.807   1_545     S
V3     V9    10.193   1_445     S
V3     V5    10.193   1_445     S
V3     V5    10.193   .     S
V3     V9    10.193   .     S
V3     V5    10.193   1_455     S
V3     V9    10.193   1_545     S
V3     V8    9.807   1_445     S
V3     V6    9.807   1_445     S
V3     V6    9.807   .     S
V3     V8    9.807   .     S
V3     V6    9.807   1_455     S
V3     V8    9.807   1_545     S
V4     V9    10.193   1_554     S
V4     V2    10.193   1_665     S
V4     V9    10.193   1_544     S
V4     V9    10.193   1_654     S
V4     V2    10.193   1_655     S
V4     V7    9.807   .     S
V4     V1    9.807   1_665     S
V4     V7    9.807   1_545     S
V4     V7    9.807   1_655     S
V4     V1    9.807   1_655     S
V5     V7    10.193   .     S
V5     V3    10.193   1_665     S
V5     V7    10.193   1_545     S
V5     V7    10.193   1_655     S
V5     V3    10.193   1_655     S
V5     V8    9.807   .     S
V5     V2    9.807   1_665     S
V5     V8    9.807   1_545     S
V5     V8    9.807   1_655     S
V5     V2    9.807   1_655     S
V6     V8    10.193   .     S
V6     V1    10.193   1_666     S
V6     V1    10.193   1_556     S
V6     V8    10.193   1_545     S
V6     V8    10.193   1_655     S
V6     V1    10.193   1_656     S
V6     V9    9.807   .     S
V6     V3    9.807   1_665     S
V6     V9    9.807   1_545     S
V6     V9    9.807   1_655     S
V6     V3    9.807   1_655     S
V7     V1    10.193   1_665     S
V7     V5    10.193   1_565     S
V7     V5    10.193   1_455     S
V7     V1    10.193   1_565     S
V7     V2    9.807   1_665     S
V7     V4    9.807   1_565     S
V7     V4    9.807   1_455     S
V7     V2    9.807   1_565     S
V8     V2    10.193   1_665     S
V8     V6    10.193   1_565     S
V8     V6    10.193   1_455     S
V8     V2    10.193   1_565     S
V8     V3    9.807   1_665     S
V8     V5    9.807   1_565     S
V8     V5    9.807   1_455     S
V8     V3    9.807   1_565     S
V9     V4    10.193   1_556     S
V9     V3    10.193   1_665     S
V9     V4    10.193   1_566     S
V9     V4    10.193   1_456     S
V9     V3    10.193   1_565     S
V9     V1    9.807   1_666     S
V9     V1    9.807   1_556     S
V9     V6    9.807   1_565     S
V9     V6    9.807   1_455     S
V9     V1    9.807   1_566     S
