data_isa
_audit_creation_date              2020-02-02
_audit_creation_method            'Pymatgen'
_symmetry_space_group_name_H-M    'P1'
_symmetry_Int_Tables_number       1
loop_
_symmetry_equiv_pos_as_xyz
  x,y,z
_cell_length_a                    46.9211
_cell_length_b                    46.9211
_cell_length_c                    39.0813
_cell_angle_alpha                 90.0
_cell_angle_beta                 90.0
_cell_angle_gamma                 90.0
loop_
_atom_site_label
_atom_site_type_symbol
_atom_site_fract_x
_atom_site_fract_y
_atom_site_fract_z
Er1     Er     0.5   0.5   0.75
V2     V     0.895   0.8449   0.1279
V3     V     0.895   0.8449   0.8721
V4     V     0.105   0.1551   0.1279
V5     V     0.105   0.1551   0.8721
V6     V     0.3449   0.395   0.6279
V7     V     0.3449   0.395   0.3721
V8     V     0.6551   0.605   0.3721
V9     V     0.6551   0.605   0.6279
Ti10     Ti     0.4652   0.184   0.1279
Ti11     Ti     0.4652   0.1841   0.8721
Ti12     Ti     0.6841   0.9652   0.3721
Ti13     Ti     0.6841   0.9652   0.6279
Ti14     Ti     0.316   0.0348   0.6279
Ti15     Ti     0.316   0.0348   0.3721
S16     S     0.5   0.0   0.75
S17     S     0.5   0.0   0.25
Ce18     Ce     0.2812   0.2188   0.25
Ce19     Ce     0.2812   0.2188   0.75
Ti20     Ti     0.5348   0.8159   0.1279
Ti21     Ti     0.5348   0.8159   0.8721
Ce22     Ce     0.7188   0.7812   0.25
Ce23     Ce     0.7188   0.7812   0.75
Er24     Er     0.0   0.0   0.25
Er25     Er     0.5   0.5   0.25
Er26     Er     0.0   0.0   0.75
V27     V     0.8449   0.105   0.6279
V28     V     0.8449   0.105   0.3721
V29     V     0.1551   0.895   0.6279
V30     V     0.1551   0.895   0.3721
V31     V     0.395   0.6551   0.1279
V32     V     0.395   0.6551   0.8721
V33     V     0.605   0.3449   0.1279
V34     V     0.605   0.3449   0.8721
Ti35     Ti     0.8159   0.4652   0.6279
Ti36     Ti     0.8159   0.4652   0.3721
Ti37     Ti     0.9652   0.316   0.8721
Ti38     Ti     0.9652   0.316   0.1279
Ti39     Ti     0.0348   0.6841   0.8721
Ti40     Ti     0.0348   0.6841   0.1279
Ti41     Ti     0.184   0.5348   0.6279
Ti42     Ti     0.1841   0.5348   0.3721
Ce43     Ce     0.2188   0.7188   0.25
Ce44     Ce     0.2188   0.7188   0.75
S45     S     0.0   0.5   0.25
S46     S     0.0   0.5   0.75
Ce47     Ce     0.7812   0.2812   0.75
Ce48     Ce     0.7812   0.2812   0.25
loop_
_geom_bond_atom_site_label_1
_geom_bond_atom_site_label_2
_geom_bond_distance
_geom_bond_site_symmetry_2
_ccdc_geom_bond_type
Er1     V6    10.0   .     S
Er1     V9    10.0   .     S
Er1     V34    10.0   .     S
Er1     V32    10.0   .     S
V2     Ce22    10.0   .     S
V2     Ti40    10.0   1_655     S
V2     V3    10.0   1_554     S
V2     Er24    10.0   1_665     S
V3     Ce23    10.0   .     S
V3     Ti39    10.0   1_655     S
V3     V2    10.0   1_556     S
V3     Er26    10.0   1_665     S
V4     Ce18    10.0   .     S
V4     Ti38    10.0   1_455     S
V4     V5    10.0   1_554     S
V4     Er24    10.0   .     S
V5     Ce19    10.0   .     S
V5     Ti37    10.0   1_455     S
V5     V4    10.0   1_556     S
V5     Er26    10.0   .     S
V6     Ce19    10.0   .     S
V6     Ti41    10.0   .     S
V6     V7    10.0   .     S
V7     Ce18    10.0   .     S
V7     Ti42    10.0   .     S
V7     Er25    10.0   .     S
V8     Ce22    10.0   .     S
V8     Ti36    10.0   .     S
V8     V9    10.0   .     S
V8     Er25    10.0   .     S
V9     Ce23    10.0   .     S
V9     Ti35    10.0   .     S
Ti10     S17    10.0   .     S
Ti10     Ce18    10.0   .     S
Ti10     Ti11    10.0   1_554     S
Ti10     V33    10.0   .     S
Ti11     Ce19    10.0   .     S
Ti11     S16    10.0   .     S
Ti11     Ti10    10.0   1_556     S
Ti11     V34    10.0   .     S
Ti12     Ce22    10.0   .     S
Ti12     S17    10.0   1_565     S
Ti12     Ti13    10.0   .     S
Ti12     V28    10.0   1_565     S
Ti13     Ce23    10.0   .     S
Ti13     S16    10.0   1_565     S
Ti13     V27    10.0   1_565     S
Ti14     S16    10.0   .     S
Ti14     Ce19    10.0   .     S
Ti14     Ti15    10.0   .     S
Ti14     V29    10.0   1_545     S
Ti15     S17    10.0   .     S
Ti15     Ce18    10.0   .     S
Ti15     V30    10.0   1_545     S
S16     Ti13    10.0   1_545     S
S16     Ti21    10.0   1_545     S
S17     Ti12    10.0   1_545     S
S17     Ti20    10.0   1_545     S
Ti20     Ce22    10.0   .     S
Ti20     S17    10.0   1_565     S
Ti20     Ti21    10.0   1_554     S
Ti20     V31    10.0   .     S
Ti21     Ce23    10.0   .     S
Ti21     S16    10.0   1_565     S
Ti21     Ti20    10.0   1_556     S
Ti21     V32    10.0   .     S
Er24     V30    10.0   1_545     S
Er24     V28    10.0   1_455     S
Er24     V2    10.0   1_445     S
Er25     V31    10.0   .     S
Er25     V33    10.0   .     S
Er26     V29    10.0   1_545     S
Er26     V27    10.0   1_455     S
Er26     V3    10.0   1_445     S
V27     Er26    10.0   1_655     S
V27     Ce47    10.0   .     S
V27     Ti13    10.0   1_545     S
V27     V28    10.0   .     S
V28     Er24    10.0   1_655     S
V28     Ce48    10.0   .     S
V28     Ti12    10.0   1_545     S
V29     Er26    10.0   1_565     S
V29     Ce44    10.0   .     S
V29     Ti14    10.0   1_565     S
V29     V30    10.0   .     S
V30     Er24    10.0   1_565     S
V30     Ce43    10.0   .     S
V30     Ti15    10.0   1_565     S
V31     Ce43    10.0   .     S
V31     V32    10.0   1_554     S
V32     Ce44    10.0   .     S
V32     V31    10.0   1_556     S
V33     Ce48    10.0   .     S
V33     V34    10.0   1_554     S
V34     Ce47    10.0   .     S
V34     V33    10.0   1_556     S
Ti35     Ce47    10.0   .     S
Ti35     S46    10.0   1_655     S
Ti35     Ti36    10.0   .     S
Ti36     S45    10.0   1_655     S
Ti36     Ce48    10.0   .     S
Ti37     V5    10.0   1_655     S
Ti37     Ce47    10.0   .     S
Ti37     S46    10.0   1_655     S
Ti37     Ti38    10.0   1_556     S
Ti38     V4    10.0   1_655     S
Ti38     S45    10.0   1_655     S
Ti38     Ce48    10.0   .     S
Ti38     Ti37    10.0   1_554     S
Ti39     V3    10.0   1_455     S
Ti39     Ce44    10.0   .     S
Ti39     S46    10.0   .     S
Ti39     Ti40    10.0   1_556     S
Ti40     V2    10.0   1_455     S
Ti40     Ce43    10.0   .     S
Ti40     S45    10.0   .     S
Ti40     Ti39    10.0   1_554     S
Ti41     Ce44    10.0   .     S
Ti41     S46    10.0   .     S
Ti41     Ti42    10.0   .     S
Ti42     Ce43    10.0   .     S
Ti42     S45    10.0   .     S
S45     Ti36    10.0   1_455     S
S45     Ti38    10.0   1_455     S
S46     Ti35    10.0   1_455     S
S46     Ti37    10.0   1_455     S
