data_isf
_audit_creation_date              2020-02-02
_audit_creation_method            'Pymatgen'
_symmetry_space_group_name_H-M    'P1'
_symmetry_Int_Tables_number       1
loop_
_symmetry_equiv_pos_as_xyz
  x,y,z
_cell_length_a                    45.1531
_cell_length_b                    45.1531
_cell_length_c                    161.2456
_cell_angle_alpha                 90.0
_cell_angle_beta                 90.0
_cell_angle_gamma                 90.0
loop_
_atom_site_label
_atom_site_type_symbol
_atom_site_fract_x
_atom_site_fract_y
_atom_site_fract_z
Be1     Be     0.0   0.75   0.875
Be2     Be     0.5   0.75   0.125
Be3     Be     0.0   0.75   0.375
Be4     Be     0.0   0.25   0.125
Be5     Be     0.5   0.25   0.375
Be6     Be     0.0   0.25   0.625
Be7     Be     0.5   0.25   0.875
Be8     Be     0.5   0.75   0.625
Er9     Er     0.1327   0.3754   0.2182
Er10     Er     0.1327   0.6246   0.2818
V11     V     0.9891   0.5   0.25
Er12     Er     0.1327   0.8754   0.7818
V13     V     0.9891   0.0   0.75
Er14     Er     0.1327   0.1246   0.7182
Er15     Er     0.6327   0.3754   0.2818
Er16     Er     0.6327   0.6246   0.2182
V17     V     0.4891   0.5   0.25
Er18     Er     0.6327   0.8754   0.7182
Er19     Er     0.6327   0.1246   0.7818
V20     V     0.4891   0.0   0.75
Er21     Er     0.3746   0.1173   0.4682
Er22     Er     0.1254   0.1173   0.5318
V23     V     0.25   0.2609   0.5
Er24     Er     0.8673   0.6246   0.7818
V25     V     0.0109   0.5   0.75
Er26     Er     0.8673   0.3754   0.7182
Er27     Er     0.6254   0.8827   0.5318
Er28     Er     0.8746   0.8827   0.4682
V29     V     0.75   0.7391   0.5
Er30     Er     0.3746   0.6173   0.5318
Er31     Er     0.1254   0.6173   0.4682
V32     V     0.25   0.7609   0.5
Ce33     Ce     0.5   0.25   0.5033
Ce34     Ce     0.5   0.25   0.7467
Ce35     Ce     0.0   0.75   0.7467
Ce36     Ce     0.0   0.75   0.5033
S37     S     0.4472   0.5796   0.6617
S38     S     0.5528   0.9204   0.6617
S39     S     0.8296   0.3028   0.5882
S40     S     0.0528   0.0796   0.6618
S41     S     0.3296   0.6972   0.5883
S42     S     0.9472   0.4204   0.6618
S43     S     0.1704   0.1972   0.5883
He44     He     0.2768   0.5268   0.625
He45     He     0.7232   0.9732   0.625
H46     H     0.5948   0.4156   0.6565
Ti47     Ti     0.646   0.3744   0.7157
H48     H     0.4052   0.0844   0.6565
Ti49     Ti     0.354   0.1256   0.7157
H50     H     0.6656   0.1552   0.5935
Ti51     Ti     0.6244   0.1039   0.5343
H52     H     0.3344   0.3448   0.5935
Ti53     Ti     0.3756   0.396   0.5343
Li54     Li     0.5   0.25   0.625
He55     He     0.2232   0.0268   0.625
He56     He     0.7768   0.4732   0.625
H57     H     0.0948   0.5844   0.6565
Ti58     Ti     0.1461   0.6256   0.7157
H59     H     0.9052   0.9156   0.6565
Ti60     Ti     0.854   0.8744   0.7157
H61     H     0.1656   0.8448   0.5935
Ti62     Ti     0.1244   0.896   0.5343
Li63     Li     0.0   0.75   0.625
H64     H     0.8344   0.6552   0.5935
Ti65     Ti     0.8756   0.604   0.5343
S66     S     0.6704   0.8028   0.5883
Er67     Er     0.8746   0.3827   0.5318
Er68     Er     0.6254   0.3827   0.4682
V69     V     0.75   0.2391   0.5
Er70     Er     0.3673   0.1246   0.2818
Er71     Er     0.3673   0.8754   0.2182
V72     V     0.5109   0.0   0.25
Ce73     Ce     0.0   0.25   0.4967
Ce74     Ce     0.5   0.75   0.4967
Ce75     Ce     0.5   0.75   0.2533
Ce76     Ce     0.0   0.25   0.2533
S77     S     0.4472   0.0796   0.3383
S78     S     0.9472   0.9204   0.3382
S79     S     0.5528   0.4204   0.3382
S80     S     0.1704   0.6972   0.4118
S81     S     0.8296   0.8028   0.4118
S82     S     0.0528   0.5796   0.3382
S83     S     0.3296   0.1972   0.4118
He84     He     0.7768   0.9732   0.375
He85     He     0.7232   0.4732   0.375
He86     He     0.2768   0.0268   0.375
H87     H     0.4052   0.5844   0.3435
Ti88     Ti     0.354   0.6256   0.2843
H89     H     0.6656   0.6552   0.4065
Ti90     Ti     0.6244   0.604   0.4657
H91     H     0.5948   0.9156   0.3435
Ti92     Ti     0.646   0.8744   0.2843
H93     H     0.3344   0.8448   0.4065
Ti94     Ti     0.3756   0.896   0.4657
Li95     Li     0.5   0.75   0.375
He96     He     0.2232   0.5268   0.375
H97     H     0.9052   0.4156   0.3435
Ti98     Ti     0.854   0.3744   0.2843
H99     H     0.0948   0.0844   0.3435
Ti100     Ti     0.1461   0.1256   0.2843
H101     H     0.1656   0.3448   0.4065
Ti102     Ti     0.1244   0.396   0.4657
Li103     Li     0.0   0.25   0.375
H104     H     0.8344   0.1552   0.4065
Ti105     Ti     0.8756   0.1039   0.4657
S106     S     0.6704   0.3028   0.4117
Er107     Er     0.8673   0.8754   0.2818
Er108     Er     0.8673   0.1246   0.2182
V109     V     0.0109   0.0   0.25
Er110     Er     0.1254   0.8827   0.9682
Er111     Er     0.3746   0.8827   0.0318
V112     V     0.25   0.7391   0.0
Er113     Er     0.6254   0.1173   0.9682
Er114     Er     0.8746   0.1173   0.0318
V115     V     0.75   0.2609   0.0
Er116     Er     0.3673   0.6246   0.7182
Er117     Er     0.3673   0.3754   0.7818
V118     V     0.5109   0.5   0.75
Ce119     Ce     0.5   0.25   0.2467
Ce120     Ce     0.0   0.75   0.0033
Ce121     Ce     0.0   0.75   0.2467
Ce122     Ce     0.5   0.25   0.0033
S123     S     0.8296   0.1972   0.0882
S124     S     0.0528   0.4204   0.1618
S125     S     0.5528   0.5796   0.1618
S126     S     0.6704   0.6972   0.0882
S127     S     0.4472   0.9204   0.1617
S128     S     0.1704   0.3028   0.0882
S129     S     0.3296   0.8028   0.0882
H130     H     0.6656   0.3448   0.0935
Ti131     Ti     0.6244   0.396   0.0343
H132     H     0.5948   0.0844   0.1565
Ti133     Ti     0.646   0.1256   0.2157
H134     H     0.4052   0.4156   0.1565
Ti135     Ti     0.354   0.3744   0.2157
Li136     Li     0.5   0.25   0.125
H137     H     0.3344   0.1552   0.0935
Ti138     Ti     0.3756   0.104   0.0343
He139     He     0.2768   0.9732   0.125
He140     He     0.2232   0.4732   0.125
He141     He     0.7232   0.5268   0.125
He142     He     0.7768   0.0268   0.125
H143     H     0.9052   0.5844   0.1565
Ti144     Ti     0.854   0.6256   0.2157
H145     H     0.1656   0.6552   0.0935
Ti146     Ti     0.1244   0.604   0.0343
H147     H     0.8344   0.8448   0.0935
Ti148     Ti     0.8756   0.896   0.0343
H149     H     0.0948   0.9156   0.1565
Ti150     Ti     0.1461   0.8744   0.2157
Li151     Li     0.0   0.75   0.125
S152     S     0.9472   0.0796   0.1618
Er153     Er     0.3746   0.3827   0.9682
Er154     Er     0.1254   0.3827   0.0318
V155     V     0.25   0.2391   0.0
Er156     Er     0.6254   0.6173   0.0318
Er157     Er     0.8746   0.6173   0.9682
V158     V     0.75   0.7609   0.0
Ce159     Ce     0.0   0.25   0.9967
Ce160     Ce     0.5   0.75   0.7533
Ce161     Ce     0.0   0.25   0.7533
Ce162     Ce     0.5   0.75   0.9967
S163     S     0.4472   0.4204   0.8382
S164     S     0.8296   0.6972   0.9118
S165     S     0.9472   0.5796   0.8382
S166     S     0.6704   0.1972   0.9118
S167     S     0.1704   0.8028   0.9118
S168     S     0.3296   0.3028   0.9118
S169     S     0.5528   0.0796   0.8382
He170     He     0.2768   0.4732   0.875
H171     H     0.5948   0.5844   0.8435
Ti172     Ti     0.646   0.6256   0.7843
H173     H     0.6656   0.8448   0.9065
Ti174     Ti     0.6244   0.896   0.9657
H175     H     0.3344   0.6552   0.9065
Ti176     Ti     0.3756   0.604   0.9657
H177     H     0.4052   0.9156   0.8435
Ti178     Ti     0.354   0.8744   0.7843
Li179     Li     0.5   0.75   0.875
He180     He     0.2232   0.9732   0.875
He181     He     0.7232   0.0268   0.875
He182     He     0.7768   0.5268   0.875
H183     H     0.8344   0.3448   0.9065
Ti184     Ti     0.8756   0.396   0.9657
H185     H     0.0948   0.4156   0.8435
Ti186     Ti     0.1461   0.3744   0.7843
H187     H     0.1656   0.1552   0.9065
Ti188     Ti     0.1244   0.104   0.9657
H189     H     0.9052   0.0844   0.8435
Ti190     Ti     0.854   0.1256   0.7843
Li191     Li     0.0   0.25   0.875
S192     S     0.0528   0.9204   0.8382
loop_
_geom_bond_atom_site_label_1
_geom_bond_atom_site_label_2
_geom_bond_distance
_geom_bond_site_symmetry_2
_ccdc_geom_bond_type
Be1     S167    10.0   .     S
Be1     S164    10.0   1_455     S
Be1     S192    10.0   .     S
Be1     S165    10.0   1_455     S
Be2     S127    10.0   .     S
Be2     S126    10.0   .     S
Be2     S129    10.0   .     S
Be2     S125    10.0   .     S
Be3     S81    10.0   1_455     S
Be3     S80    10.0   .     S
Be3     S78    10.0   1_455     S
Be3     S82    10.0   .     S
Be4     S123    10.0   1_455     S
Be4     S124    10.0   .     S
Be4     S128    10.0   .     S
Be4     S152    10.0   1_455     S
Be5     S106    10.0   .     S
Be5     S83    10.0   .     S
Be5     S79    10.0   .     S
Be5     S77    10.0   .     S
Be6     S39    10.0   1_455     S
Be6     S43    10.0   .     S
Be6     S42    10.0   1_455     S
Be6     S40    10.0   .     S
Be7     S168    10.0   .     S
Be7     S166    10.0   .     S
Be7     S163    10.0   .     S
Be7     S169    10.0   .     S
Be8     S38    10.0   .     S
Be8     S41    10.0   .     S
Be8     S66    10.0   .     S
Be8     S37    10.0   .     S
Er9     S124    9.999   .     S
Er9     Ti135    10.0   .     S
Er9     V11    10.0   1_455     S
Er9     Ce76    10.0   .     S
Er10     S82    9.999   .     S
Er10     Ti88    10.0   .     S
Er10     V11    10.0   1_455     S
Er10     Ce121    10.0   .     S
V11     Er9    10.0   1_655     S
V11     Er10    10.0   1_655     S
V11     Ti98    10.001   .     S
V11     Ti144    10.001   .     S
Er12     S192    9.999   .     S
Er12     Ti178    10.0   .     S
Er12     V13    10.0   1_465     S
Er12     Ce35    10.0   .     S
V13     Er12    10.0   1_645     S
V13     Er14    10.0   1_655     S
V13     Ti60    10.001   1_545     S
V13     Ti190    10.001   .     S
Er14     S40    9.999   .     S
Er14     Ti49    10.0   .     S
Er14     V13    10.0   1_455     S
Er14     Ce161    10.0   .     S
Er15     S79    9.999   .     S
Er15     Ti98    10.0   .     S
Er15     V17    10.0   .     S
Er15     Ce119    10.0   .     S
Er16     S125    9.999   .     S
Er16     Ti144    10.0   .     S
Er16     V17    10.0   .     S
Er16     Ce75    10.0   .     S
V17     Ti88    10.001   .     S
V17     Ti135    10.001   .     S
Er18     S38    9.999   .     S
Er18     Ti60    10.0   .     S
Er18     V20    10.0   1_565     S
Er18     Ce160    10.0   .     S
Er19     S169    9.999   .     S
Er19     Ti190    10.0   .     S
Er19     V20    10.0   .     S
Er19     Ce34    10.0   .     S
V20     Er18    10.0   1_545     S
V20     Ti49    10.001   .     S
V20     Ti178    10.001   1_545     S
Er21     S83    9.999   .     S
Er21     Ti94    10.0   1_545     S
Er21     V23    10.0   .     S
Er21     Ce33    10.0   .     S
Er22     S43    9.999   .     S
Er22     Ti62    10.0   1_545     S
Er22     V23    10.0   .     S
Er22     Ce73    10.0   .     S
V23     Ti53    10.001   .     S
V23     Ti102    10.001   .     S
Er24     S165    9.999   .     S
Er24     Ti172    10.0   .     S
Er24     V25    10.0   1_655     S
Er24     Ce35    10.0   1_655     S
V25     Er24    10.0   1_455     S
V25     Er26    10.0   1_455     S
V25     Ti58    10.001   .     S
V25     Ti186    10.001   .     S
Er26     S42    9.999   .     S
Er26     Ti47    10.0   .     S
Er26     V25    10.0   1_655     S
Er26     Ce161    10.0   1_655     S
Er27     S66    9.999   .     S
Er27     Ti51    10.0   1_565     S
Er27     V29    10.0   .     S
Er27     Ce74    10.0   .     S
Er28     S81    9.999   .     S
Er28     Ti105    10.0   1_565     S
Er28     V29    10.0   .     S
Er28     Ce36    10.0   1_655     S
V29     Ti65    10.001   .     S
V29     Ti90    10.001   .     S
Er30     S41    9.999   .     S
Er30     Ti53    10.0   .     S
Er30     V32    10.0   .     S
Er30     Ce74    10.0   .     S
Er31     S80    9.999   .     S
Er31     Ti102    10.0   .     S
Er31     V32    10.0   .     S
Er31     Ce36    10.0   .     S
V32     Ti62    10.001   .     S
V32     Ti94    10.001   .     S
Ce33     Er68    10.0   .     S
Ce33     Ti53    10.0   .     S
Ce33     Ti51    10.0   .     S
Ce34     Er117    10.0   .     S
Ce34     Ti47    10.0   .     S
Ce34     Ti49    10.0   .     S
Ce35     Er24    10.0   1_455     S
Ce35     Ti60    10.0   1_455     S
Ce35     Ti58    10.0   .     S
Ce36     Er28    10.0   1_455     S
Ce36     Ti62    10.0   .     S
Ce36     Ti65    10.0   1_455     S
S37     H46    10.0   .     S
S37     He44    10.0   .     S
S37     Er116    9.999   .     S
S38     H48    10.0   1_565     S
S38     He45    10.0   .     S
S39     Be6    10.0   1_655     S
S39     H50    10.0   .     S
S39     He56    10.0   .     S
S39     Er67    9.999   .     S
S40     H59    10.0   1_445     S
S40     He55    10.0   .     S
S41     H61    10.0   .     S
S41     He44    10.0   .     S
S42     Be6    10.0   1_655     S
S42     H57    10.0   1_655     S
S42     He56    10.0   .     S
S43     H52    10.0   .     S
S43     He55    10.0   .     S
He44     H52    10.0   .     S
He44     H57    10.0   .     S
He45     S66    10.0   .     S
He45     H50    10.0   1_565     S
He45     H59    10.0   .     S
H46     He56    10.0   .     S
H46     Ti47    10.0   .     S
H46     Li54    10.0   .     S
Ti47     V118    10.001   .     S
H48     S38    10.0   1_545     S
H48     He55    10.0   .     S
H48     Ti49    10.0   .     S
H48     Li54    10.0   .     S
H50     He45    10.0   1_545     S
H50     Ti51    10.0   .     S
H50     Li54    10.0   .     S
Ti51     Er27    10.0   1_545     S
Ti51     V69    10.001   .     S
H52     Ti53    10.0   .     S
H52     Li54    10.0   .     S
He55     H61    10.0   1_545     S
He56     H64    10.0   .     S
H57     S42    10.0   1_455     S
H57     Ti58    10.0   .     S
H57     Li63    10.0   .     S
Ti58     Er116    10.0   .     S
H59     S40    10.0   1_665     S
H59     Ti60    10.0   .     S
H59     Li63    10.0   1_655     S
Ti60     Ce35    10.0   1_655     S
Ti60     V13    10.001   1_565     S
H61     He55    10.0   1_565     S
H61     Ti62    10.0   .     S
H61     Li63    10.0   .     S
Ti62     Er22    10.0   1_565     S
Li63     H59    10.0   1_455     S
Li63     H64    10.0   1_455     S
H64     Ti65    10.0   .     S
H64     Li63    10.0   1_655     S
H64     S66    10.0   .     S
Ti65     Ce36    10.0   1_655     S
Ti65     Er67    10.0   .     S
Er67     V69    10.0   .     S
Er67     Ce73    10.0   1_655     S
Er68     S106    9.999   .     S
Er68     Ti90    10.0   .     S
Er68     V69    10.0   .     S
V69     Ti105    10.001   .     S
Er70     S77    9.999   .     S
Er70     Ti100    10.0   .     S
Er70     V72    10.0   .     S
Er70     Ce119    10.0   .     S
Er71     S127    9.999   .     S
Er71     Ti150    10.0   .     S
Er71     V72    10.0   1_565     S
Er71     Ce75    10.0   .     S
V72     Er71    10.0   1_545     S
V72     Ti92    10.001   1_545     S
V72     Ti133    10.001   .     S
Ce73     Er67    10.0   1_455     S
Ce73     Ti102    10.0   .     S
Ce73     Ti105    10.0   1_455     S
Ce74     Ti94    10.0   .     S
Ce74     Ti90    10.0   .     S
Ce75     Ti92    10.0   .     S
Ce75     Ti88    10.0   .     S
Ce76     Er108    10.0   1_455     S
Ce76     Ti100    10.0   .     S
Ce76     Ti98    10.0   1_455     S
S77     H91    10.0   1_545     S
S77     He86    10.0   .     S
S78     Be3    10.0   1_655     S
S78     H99    10.0   1_665     S
S78     He84    10.0   .     S
S78     Er107    9.999   .     S
S79     H87    10.0   .     S
S79     He85    10.0   .     S
S80     H93    10.0   .     S
S80     He96    10.0   .     S
S81     Be3    10.0   1_655     S
S81     H89    10.0   .     S
S81     He84    10.0   .     S
S82     H97    10.0   1_455     S
S82     He96    10.0   .     S
S83     H101    10.0   .     S
S83     He86    10.0   .     S
He84     H91    10.0   .     S
He84     H104    10.0   1_565     S
He85     S106    10.0   .     S
He85     H89    10.0   .     S
He85     H97    10.0   .     S
He86     H93    10.0   1_545     S
He86     H99    10.0   .     S
H87     He96    10.0   .     S
H87     Ti88    10.0   .     S
H87     Li95    10.0   .     S
H89     Ti90    10.0   .     S
H89     Li95    10.0   .     S
H91     S77    10.0   1_565     S
H91     Ti92    10.0   .     S
H91     Li95    10.0   .     S
Ti92     V72    10.001   1_565     S
Ti92     Er107    10.0   .     S
H93     He86    10.0   1_565     S
H93     Ti94    10.0   .     S
H93     Li95    10.0   .     S
Ti94     Er21    10.0   1_565     S
He96     H101    10.0   .     S
H97     S82    10.0   1_655     S
H97     Ti98    10.0   .     S
H97     Li103    10.0   1_655     S
Ti98     Ce76    10.0   1_655     S
H99     S78    10.0   1_445     S
H99     Ti100    10.0   .     S
H99     Li103    10.0   .     S
Ti100     V109    10.001   .     S
H101     Ti102    10.0   .     S
H101     Li103    10.0   .     S
Li103     H97    10.0   1_455     S
Li103     H104    10.0   1_455     S
H104     He84    10.0   1_545     S
H104     Ti105    10.0   .     S
H104     Li103    10.0   1_655     S
H104     S106    10.0   .     S
Ti105     Er28    10.0   1_545     S
Ti105     Ce73    10.0   1_655     S
Er107     V109    10.0   1_665     S
Er107     Ce121    10.0   1_655     S
Er108     Ce76    10.0   1_655     S
Er108     S152    9.999   .     S
Er108     Ti133    10.0   .     S
Er108     V109    10.0   1_655     S
V109     Er107    10.0   1_445     S
V109     Er108    10.0   1_455     S
V109     Ti150    10.001   1_545     S
Er110     S167    9.999   .     S
Er110     Ti188    10.0   1_565     S
Er110     V112    10.0   1_556     S
Er110     Ce120    10.0   1_556     S
Er111     S129    9.999   .     S
Er111     Ti138    10.0   1_565     S
Er111     V112    10.0   .     S
Er111     Ce162    10.0   1_554     S
V112     Er110    10.0   1_554     S
V112     Ti146    10.001   .     S
V112     Ti176    10.001   1_554     S
Er113     S166    9.999   .     S
Er113     Ti174    10.0   1_545     S
Er113     V115    10.0   1_556     S
Er113     Ce122    10.0   1_556     S
Er114     S123    9.999   .     S
Er114     Ti148    10.0   1_545     S
Er114     V115    10.0   .     S
Er114     Ce159    10.0   1_654     S
V115     Er113    10.0   1_554     S
V115     Ti131    10.001   .     S
V115     Ti184    10.001   1_554     S
Er116     V118    10.0   .     S
Er116     Ce160    10.0   .     S
Er117     S163    9.999   .     S
Er117     Ti186    10.0   .     S
Er117     V118    10.0   .     S
V118     Ti172    10.001   .     S
Ce119     Ti133    10.0   .     S
Ce119     Ti135    10.0   .     S
Ce120     Er110    10.0   1_554     S
Ce120     Er157    10.0   1_454     S
Ce120     Ti146    10.0   .     S
Ce120     Ti148    10.0   1_455     S
Ce121     Er107    10.0   1_455     S
Ce121     Ti150    10.0   .     S
Ce121     Ti144    10.0   1_455     S
Ce122     Er113    10.0   1_554     S
Ce122     Er153    10.0   1_554     S
Ce122     Ti131    10.0   .     S
Ce122     Ti138    10.0   .     S
S123     Be4    10.0   1_655     S
S123     H130    10.0   .     S
S123     He142    10.0   .     S
S124     H143    10.0   1_455     S
S124     He140    10.0   .     S
S125     H134    10.0   .     S
S125     He141    10.0   .     S
S126     H147    10.0   .     S
S126     He141    10.0   .     S
S126     Er156    9.999   .     S
S127     H132    10.0   1_565     S
S127     He139    10.0   .     S
S128     H137    10.0   .     S
S128     He140    10.0   .     S
S128     Er154    9.999   .     S
S129     H145    10.0   .     S
S129     He139    10.0   .     S
H130     He141    10.0   .     S
H130     Ti131    10.0   .     S
H130     Li136    10.0   .     S
Ti131     Er156    10.0   .     S
H132     S127    10.0   1_545     S
H132     He142    10.0   .     S
H132     Ti133    10.0   .     S
H132     Li136    10.0   .     S
H134     He140    10.0   .     S
H134     Ti135    10.0   .     S
H134     Li136    10.0   .     S
Li136     H137    10.0   .     S
H137     He139    10.0   1_545     S
H137     Ti138    10.0   .     S
Ti138     Er111    10.0   1_545     S
Ti138     V155    10.001   .     S
He139     H137    10.0   1_565     S
He139     H149    10.0   .     S
He140     H145    10.0   .     S
He141     H143    10.0   .     S
He142     S152    10.0   .     S
He142     H147    10.0   1_545     S
H143     S124    10.0   1_655     S
H143     Ti144    10.0   .     S
H143     Li151    10.0   1_655     S
Ti144     Ce121    10.0   1_655     S
H145     Ti146    10.0   .     S
H145     Li151    10.0   .     S
Ti146     Er154    10.0   .     S
H147     He142    10.0   1_565     S
H147     Ti148    10.0   .     S
H147     Li151    10.0   1_655     S
Ti148     Er114    10.0   1_565     S
Ti148     Ce120    10.0   1_655     S
Ti148     V158    10.001   .     S
H149     Ti150    10.0   .     S
H149     Li151    10.0   .     S
H149     S152    10.0   1_465     S
Ti150     V109    10.001   1_565     S
Li151     H143    10.0   1_455     S
Li151     H147    10.0   1_455     S
S152     Be4    10.0   1_655     S
S152     H149    10.0   1_645     S
Er153     Ce122    10.0   1_556     S
Er153     S168    9.999   .     S
Er153     Ti176    10.0   .     S
Er153     V155    10.0   1_556     S
Er154     V155    10.0   .     S
Er154     Ce159    10.0   1_554     S
V155     Er153    10.0   1_554     S
V155     Ti188    10.001   1_554     S
Er156     V158    10.0   .     S
Er156     Ce162    10.0   1_554     S
Er157     Ce120    10.0   1_656     S
Er157     S164    9.999   .     S
Er157     Ti184    10.0   .     S
Er157     V158    10.0   1_556     S
V158     Er157    10.0   1_554     S
V158     Ti174    10.001   1_554     S
Ce159     Er154    10.0   1_556     S
Ce159     Er114    10.0   1_456     S
Ce159     Ti184    10.0   1_455     S
Ce159     Ti188    10.0   .     S
Ce160     Ti178    10.0   .     S
Ce160     Ti172    10.0   .     S
Ce161     Er26    10.0   1_455     S
Ce161     Ti186    10.0   .     S
Ce161     Ti190    10.0   1_455     S
Ce162     Er111    10.0   1_556     S
Ce162     Er156    10.0   1_556     S
Ce162     Ti176    10.0   .     S
Ce162     Ti174    10.0   .     S
S163     H171    10.0   .     S
S163     He170    10.0   .     S
S164     Be1    10.0   1_655     S
S164     H173    10.0   .     S
S164     He182    10.0   .     S
S165     Be1    10.0   1_655     S
S165     H185    10.0   1_655     S
S165     He182    10.0   .     S
S166     H183    10.0   .     S
S166     He181    10.0   .     S
S167     H175    10.0   .     S
S167     He180    10.0   .     S
S168     H187    10.0   .     S
S168     He170    10.0   .     S
S169     H177    10.0   1_545     S
S169     He181    10.0   .     S
He170     H175    10.0   .     S
He170     H185    10.0   .     S
H171     He182    10.0   .     S
H171     Ti172    10.0   .     S
H171     Li179    10.0   .     S
H173     He181    10.0   1_565     S
H173     Ti174    10.0   .     S
H173     Li179    10.0   .     S
Ti174     Er113    10.0   1_565     S
Ti174     V158    10.001   1_556     S
H175     Ti176    10.0   .     S
H175     Li179    10.0   .     S
Ti176     V112    10.001   1_556     S
H177     S169    10.0   1_565     S
H177     He180    10.0   .     S
H177     Ti178    10.0   .     S
H177     Li179    10.0   .     S
Ti178     V20    10.001   1_565     S
He180     S192    10.0   .     S
He180     H187    10.0   1_565     S
He181     H173    10.0   1_545     S
He181     H189    10.0   .     S
He182     H183    10.0   .     S
H183     Ti184    10.0   .     S
H183     Li191    10.0   1_655     S
Ti184     Ce159    10.0   1_655     S
Ti184     V115    10.001   1_556     S
H185     S165    10.0   1_455     S
H185     Ti186    10.0   .     S
H185     Li191    10.0   .     S
H187     He180    10.0   1_545     S
H187     Ti188    10.0   .     S
H187     Li191    10.0   .     S
Ti188     Er110    10.0   1_545     S
Ti188     V155    10.001   1_556     S
H189     Ti190    10.0   .     S
H189     Li191    10.0   1_655     S
H189     S192    10.0   1_645     S
Ti190     Ce161    10.0   1_655     S
Li191     H189    10.0   1_455     S
Li191     H183    10.0   1_455     S
S192     H189    10.0   1_465     S
