data_isg
_audit_creation_date              2020-02-02
_audit_creation_method            'Pymatgen'
_symmetry_space_group_name_H-M    'P1'
_symmetry_Int_Tables_number       1
loop_
_symmetry_equiv_pos_as_xyz
  x,y,z
_cell_length_a                    50.679
_cell_length_b                    50.679
_cell_length_c                    65.5122
_cell_angle_alpha                 90.0
_cell_angle_beta                 90.0
_cell_angle_gamma                 90.0
loop_
_atom_site_label
_atom_site_type_symbol
_atom_site_fract_x
_atom_site_fract_y
_atom_site_fract_z
Er1     Er     0.0   0.75   0.375
Er2     Er     0.5   0.75   0.125
Er3     Er     0.0   0.25   0.625
Er4     Er     0.5   0.25   0.875
V5     V     0.8701   0.7531   0.2601
V6     V     0.1299   0.7469   0.2601
Ce7     Ce     0.0   0.75   0.1452
V8     V     0.5031   0.8799   0.0101
V9     V     0.4969   0.6201   0.0101
Ce10     Ce     0.5   0.75   0.8952
V11     V     0.0031   0.8799   0.4899
V12     V     0.9969   0.6201   0.4899
Ce13     Ce     0.0   0.75   0.6048
V14     V     0.0031   0.3799   0.5101
V15     V     0.9969   0.1201   0.5101
Ce16     Ce     0.0   0.25   0.3952
V17     V     0.1299   0.2469   0.7399
V18     V     0.8701   0.2531   0.7399
Ce19     Ce     0.0   0.25   0.8548
V20     V     0.5031   0.3799   0.9899
V21     V     0.4969   0.1201   0.9899
Ce22     Ce     0.5   0.25   0.1048
V23     V     0.3701   0.7531   0.2399
V24     V     0.6299   0.7469   0.2399
Ce25     Ce     0.5   0.75   0.3548
V26     V     0.3701   0.2531   0.7601
V27     V     0.6299   0.2469   0.7601
Ce28     Ce     0.5   0.25   0.6452
Ti29     Ti     0.7531   0.5943   0.2561
Ti30     Ti     0.3443   0.4969   0.9939
Ti31     Ti     0.2469   0.9057   0.2561
Ti32     Ti     0.6557   0.0031   0.9939
H33     H     0.8294   0.3013   0.3296
S34     S     0.7794   0.4967   0.125
He35     He     0.8276   0.3179   0.1776
H36     H     0.9487   0.0794   0.9204
S37     S     0.7533   0.0294   0.125
He38     He     0.9321   0.0776   0.0724
H39     H     0.1706   0.1987   0.3296
S40     S     0.2206   0.0033   0.125
He41     He     0.1724   0.1821   0.1776
H42     H     0.0513   0.4206   0.9204
S43     S     0.2467   0.4706   0.125
He44     He     0.0679   0.4224   0.0725
Li45     Li     0.0   0.25   0.125
Ti46     Ti     0.1557   0.0031   0.5061
Ti47     Ti     0.2531   0.5943   0.2439
Ti48     Ti     0.7469   0.9057   0.2439
Ti49     Ti     0.8443   0.4969   0.5061
H50     H     0.4487   0.0794   0.5796
S51     S     0.2533   0.0294   0.375
He52     He     0.4321   0.0776   0.4276
H53     H     0.3294   0.3013   0.1704
S54     S     0.2794   0.4967   0.375
He55     He     0.3276   0.3179   0.3224
H56     H     0.5513   0.4206   0.5796
S57     S     0.7467   0.4706   0.375
He58     He     0.5679   0.4224   0.4276
H59     H     0.6706   0.1987   0.1704
S60     S     0.7206   0.0033   0.375
He61     He     0.6724   0.1821   0.3224
Li62     Li     0.5   0.25   0.375
Ti63     Ti     0.7531   0.0943   0.7439
Ti64     Ti     0.2469   0.4057   0.7439
Ti65     Ti     0.6557   0.5031   0.0061
Ti66     Ti     0.3443   0.9969   0.0061
H67     H     0.9487   0.5794   0.0796
S68     S     0.7533   0.5294   0.875
He69     He     0.9321   0.5776   0.9276
H70     H     0.0513   0.9206   0.0796
S71     S     0.2467   0.9706   0.875
He72     He     0.0679   0.9224   0.9276
H73     H     0.8294   0.8013   0.6704
S74     S     0.7794   0.9967   0.875
He75     He     0.8276   0.8179   0.8224
H76     H     0.1706   0.6987   0.6704
S77     S     0.2206   0.5033   0.875
He78     He     0.1724   0.6821   0.8224
Li79     Li     0.0   0.75   0.875
Ti80     Ti     0.1557   0.5031   0.4939
Ti81     Ti     0.2531   0.0943   0.7561
Ti82     Ti     0.7469   0.4057   0.7561
Ti83     Ti     0.8443   0.9969   0.4939
H84     H     0.5513   0.9206   0.4204
S85     S     0.7467   0.9706   0.625
He86     He     0.5679   0.9224   0.5724
H87     H     0.4487   0.5794   0.4204
S88     S     0.2533   0.5294   0.625
He89     He     0.4321   0.5776   0.5724
H90     H     0.6706   0.6987   0.8296
S91     S     0.7206   0.5033   0.625
He92     He     0.6724   0.6821   0.6776
H93     H     0.3294   0.8013   0.8296
S94     S     0.2794   0.9967   0.625
He95     He     0.3276   0.8179   0.6776
Li96     Li     0.5   0.75   0.625
loop_
_geom_bond_atom_site_label_1
_geom_bond_atom_site_label_2
_geom_bond_distance
_geom_bond_site_symmetry_2
_ccdc_geom_bond_type
Er1     V6    10.0   .     S
Er1     V5    10.0   1_455     S
Er1     V12    10.0   1_455     S
Er1     V11    10.0   .     S
Er2     V9    10.0   .     S
Er2     V8    10.0   .     S
Er2     V24    10.0   .     S
Er2     V23    10.0   .     S
Er3     V17    10.0   .     S
Er3     V15    10.0   1_455     S
Er3     V18    10.0   1_455     S
Er3     V14    10.0   .     S
Er4     V20    10.0   .     S
Er4     V27    10.0   .     S
Er4     V21    10.0   .     S
Er4     V26    10.0   .     S
V5     Er1    10.0   1_655     S
V5     Ce7    10.0   1_655     S
V5     Ti29    10.0   .     S
V5     Ti48    10.0   .     S
V6     Ce7    10.0   .     S
V6     Ti31    10.0   .     S
V6     Ti47    10.0   .     S
Ce7     V5    10.0   1_455     S
Ce7     H67    10.0   1_455     S
Ce7     H70    10.0   .     S
V8     Ce10    10.0   1_554     S
V8     Ti66    10.0   .     S
V8     Ti32    10.0   1_564     S
V9     Ce10    10.0   1_554     S
V9     Ti65    10.0   .     S
V9     Ti30    10.0   1_554     S
Ce10     V8    10.0   1_556     S
Ce10     V9    10.0   1_556     S
Ce10     H90    10.0   .     S
Ce10     H93    10.0   .     S
V11     Ce13    10.0   .     S
V11     Ti83    10.0   1_455     S
V11     Ti46    10.0   1_565     S
V12     Er1    10.0   1_655     S
V12     Ce13    10.0   1_655     S
V12     Ti80    10.0   1_655     S
V12     Ti49    10.0   .     S
Ce13     V12    10.0   1_455     S
Ce13     H76    10.0   .     S
Ce13     H73    10.0   1_455     S
V14     Ce16    10.0   .     S
V14     Ti49    10.0   1_455     S
V14     Ti80    10.0   .     S
V15     Er3    10.0   1_655     S
V15     Ce16    10.0   1_655     S
V15     Ti46    10.0   1_655     S
V15     Ti83    10.0   1_545     S
Ce16     V15    10.0   1_455     S
Ce16     H33    10.0   1_455     S
Ce16     H39    10.0   .     S
V17     Ce19    10.0   .     S
V17     Ti64    10.0   .     S
V17     Ti81    10.0   .     S
V18     Er3    10.0   1_655     S
V18     Ce19    10.0   1_655     S
V18     Ti63    10.0   .     S
V18     Ti82    10.0   .     S
Ce19     V18    10.0   1_455     S
Ce19     H42    10.0   .     S
Ce19     H36    10.0   1_455     S
V20     Ce22    10.0   1_556     S
V20     Ti30    10.0   .     S
V20     Ti65    10.0   1_556     S
V21     Ce22    10.0   1_556     S
V21     Ti32    10.0   .     S
V21     Ti66    10.0   1_546     S
Ce22     V20    10.0   1_554     S
Ce22     V21    10.0   1_554     S
Ce22     H53    10.0   .     S
Ce22     H59    10.0   .     S
V23     Ce25    10.0   .     S
V23     Ti47    10.0   .     S
V23     Ti31    10.0   .     S
V24     Ce25    10.0   .     S
V24     Ti48    10.0   .     S
V24     Ti29    10.0   .     S
Ce25     H87    10.0   .     S
Ce25     H84    10.0   .     S
V26     Ce28    10.0   .     S
V26     Ti81    10.0   .     S
V26     Ti64    10.0   .     S
V27     Ce28    10.0   .     S
V27     Ti82    10.0   .     S
V27     Ti63    10.0   .     S
Ce28     H50    10.0   .     S
Ce28     H56    10.0   .     S
Ti29     S57    10.0   .     S
Ti29     S34    10.0   .     S
Ti30     V9    10.0   1_556     S
Ti30     S77    10.0   .     S
Ti30     S43    10.0   1_556     S
Ti31     S51    10.0   1_565     S
Ti31     S40    10.0   1_565     S
Ti32     V8    10.0   1_546     S
Ti32     S74    10.0   1_545     S
Ti32     S37    10.0   1_556     S
H33     Ce16    10.0   1_655     S
H33     S57    10.0   .     S
H33     He35    10.0   .     S
H33     He61    10.0   .     S
S34     He35    10.0   .     S
S34     Ti65    10.0   .     S
S34     H67    10.0   .     S
He35     H59    10.0   .     S
He35     Li45    10.0   1_655     S
H36     Ce19    10.0   1_655     S
H36     S74    10.0   1_545     S
H36     He38    10.0   1_556     S
H36     He72    10.0   1_645     S
S37     Ti32    10.0   1_554     S
S37     He38    10.0   .     S
S37     Ti48    10.0   1_545     S
S37     H59    10.0   .     S
He38     H36    10.0   1_554     S
He38     H70    10.0   1_645     S
He38     Li45    10.0   1_655     S
H39     S51    10.0   .     S
H39     He41    10.0   .     S
H39     He55    10.0   .     S
S40     Ti31    10.0   1_545     S
S40     He41    10.0   .     S
S40     Ti66    10.0   1_545     S
S40     H70    10.0   1_545     S
He41     H53    10.0   .     S
He41     Li45    10.0   .     S
H42     S77    10.0   .     S
H42     He44    10.0   1_556     S
H42     He69    10.0   1_455     S
S43     Ti30    10.0   1_554     S
S43     He44    10.0   .     S
S43     Ti47    10.0   .     S
S43     H53    10.0   .     S
He44     H42    10.0   1_554     S
He44     H67    10.0   1_455     S
He44     Li45    10.0   .     S
Li45     He35    10.0   1_455     S
Li45     He38    10.0   1_455     S
Ti46     V11    10.0   1_545     S
Ti46     V15    10.0   1_455     S
Ti46     S94    10.0   1_545     S
Ti46     S51    10.0   .     S
Ti47     S54    10.0   .     S
Ti48     S37    10.0   1_565     S
Ti48     S60    10.0   1_565     S
Ti49     V14    10.0   1_655     S
Ti49     S91    10.0   .     S
Ti49     S57    10.0   .     S
H50     S94    10.0   1_545     S
H50     He52    10.0   .     S
H50     He86    10.0   1_545     S
S51     Ti31    10.0   1_545     S
S51     He52    10.0   .     S
He52     H84    10.0   1_545     S
He52     Li62    10.0   .     S
H53     He55    10.0   .     S
S54     He55    10.0   .     S
S54     Ti80    10.0   .     S
S54     H87    10.0   .     S
He55     Li62    10.0   .     S
H56     S91    10.0   .     S
H56     He58    10.0   .     S
H56     He89    10.0   .     S
S57     He58    10.0   .     S
He58     H87    10.0   .     S
He58     Li62    10.0   .     S
H59     He61    10.0   .     S
S60     Ti48    10.0   1_545     S
S60     He61    10.0   .     S
S60     Ti83    10.0   1_545     S
S60     H84    10.0   1_545     S
He61     Li62    10.0   .     S
Ti63     S85    10.0   1_545     S
Ti63     S74    10.0   1_545     S
Ti64     S88    10.0   .     S
Ti64     S77    10.0   .     S
Ti65     V20    10.0   1_554     S
Ti65     S68    10.0   1_554     S
Ti66     V21    10.0   1_564     S
Ti66     S40    10.0   1_565     S
Ti66     S71    10.0   1_554     S
H67     Ce7    10.0   1_655     S
H67     He44    10.0   1_655     S
H67     He69    10.0   1_554     S
S68     Ti65    10.0   1_556     S
S68     He69    10.0   .     S
S68     Ti82    10.0   .     S
S68     H90    10.0   .     S
He69     H67    10.0   1_556     S
He69     H42    10.0   1_655     S
He69     Li79    10.0   1_655     S
H70     He38    10.0   1_465     S
H70     S40    10.0   1_565     S
H70     He72    10.0   1_554     S
S71     Ti66    10.0   1_556     S
S71     He72    10.0   .     S
S71     Ti81    10.0   1_565     S
S71     H93    10.0   .     S
He72     H70    10.0   1_556     S
He72     H36    10.0   1_465     S
He72     Li79    10.0   .     S
H73     S85    10.0   .     S
H73     He75    10.0   .     S
H73     He92    10.0   .     S
H73     Ce13    10.0   1_655     S
S74     Ti32    10.0   1_565     S
S74     H36    10.0   1_565     S
S74     Ti63    10.0   1_565     S
S74     He75    10.0   .     S
He75     H90    10.0   .     S
He75     Li79    10.0   1_655     S
H76     S88    10.0   .     S
H76     He78    10.0   .     S
H76     He95    10.0   .     S
S77     He78    10.0   .     S
He78     H93    10.0   .     S
He78     Li79    10.0   .     S
Li79     He69    10.0   1_455     S
Li79     He75    10.0   1_455     S
Ti80     V12    10.0   1_455     S
Ti80     S88    10.0   .     S
Ti81     S71    10.0   1_545     S
Ti81     S94    10.0   1_545     S
Ti82     S91    10.0   .     S
Ti83     V11    10.0   1_655     S
Ti83     V15    10.0   1_565     S
Ti83     S60    10.0   1_565     S
Ti83     S85    10.0   .     S
H84     He52    10.0   1_565     S
H84     S60    10.0   1_565     S
H84     He86    10.0   .     S
S85     Ti63    10.0   1_565     S
S85     He86    10.0   .     S
He86     H50    10.0   1_565     S
He86     Li96    10.0   .     S
H87     He89    10.0   .     S
S88     He89    10.0   .     S
He89     Li96    10.0   .     S
H90     He92    10.0   .     S
S91     He92    10.0   .     S
He92     Li96    10.0   .     S
H93     He95    10.0   .     S
S94     Ti46    10.0   1_565     S
S94     H50    10.0   1_565     S
S94     Ti81    10.0   1_565     S
S94     He95    10.0   .     S
He95     Li96    10.0   .     S
