data_isk
_audit_creation_date              2020-02-02
_audit_creation_method            'Pymatgen'
_symmetry_space_group_name_H-M    'P1'
_symmetry_Int_Tables_number       1
loop_
_symmetry_equiv_pos_as_xyz
  x,y,z
_cell_length_a                    41.4399
_cell_length_b                    25.0948
_cell_length_c                    41.799
_cell_angle_alpha                 90.0
_cell_angle_beta                 103.9465
_cell_angle_gamma                 90.0
loop_
_atom_site_label
_atom_site_type_symbol
_atom_site_fract_x
_atom_site_fract_y
_atom_site_fract_z
H1     H     0.4871   0.25   0.5016
H2     H     0.5129   0.75   0.9984
V3     V     0.3638   0.5249   0.5984
Ce4     Ce     0.1344   0.6346   0.4789
S5     S     0.9842   0.8116   0.1308
Ti6     Ti     0.1223   0.9628   0.3408
Er7     Er     0.3622   0.9885   0.3371
V8     V     0.6362   0.0249   0.9016
Ce9     Ce     0.8656   0.1346   0.0211
S10     S     0.0158   0.3116   0.3692
Ti11     Ti     0.8777   0.4628   0.1592
Er12     Er     0.6378   0.4885   0.1629
H13     H     0.4871   0.25   0.0016
H14     H     0.5129   0.75   0.4984
V15     V     0.3638   0.9751   0.0984
Ce16     Ce     0.1344   0.8654   0.9789
S17     S     0.9842   0.6884   0.6308
Ti18     Ti     0.1223   0.5372   0.8408
Er19     Er     0.3622   0.5115   0.8371
Ce20     Ce     0.8656   0.3654   0.5211
V21     V     0.6362   0.4751   0.4016
S22     S     0.0158   0.1884   0.8692
Ti23     Ti     0.8777   0.0372   0.6592
Er24     Er     0.6378   0.0115   0.6629
loop_
_geom_bond_atom_site_label_1
_geom_bond_atom_site_label_2
_geom_bond_distance
_geom_bond_site_symmetry_2
_ccdc_geom_bond_type
H1     V21    10.0   .     S
H1     Er24    10.0   .     S
H1     V3    10.0   .     S
H1     Er7    10.0   1_545     S
H2     V15    10.0   1_556     S
H2     Er19    10.0   .     S
H2     V8    10.0   1_565     S
H2     Er12    10.0   1_556     S
V3     Er19    10.0   .     S
V3     Ce4    10.0   .     S
V3     H14    10.0   .     S
Ce4     Ti6    10.0   .     S
Ce4     S10    10.0   .     S
Ce4     S17    10.0   1_455     S
S5     Ce16    10.0   1_654     S
S5     Ti6    10.0   1_655     S
S5     Ce9    10.0   1_565     S
S5     Ti11    10.0   .     S
Ti6     S5    10.0   1_455     S
Ti6     Er7    10.0   .     S
Ti6     S10    10.0   1_565     S
Er7     H1    10.0   1_565     S
Er7     H14    10.0   .     S
Er7     V15    10.0   .     S
V8     Er24    10.0   .     S
V8     Ce9    10.0   1_556     S
V8     H2    10.0   1_545     S
V8     H13    10.0   1_556     S
Ce9     S5    10.0   1_545     S
Ce9     Ti11    10.0   .     S
Ce9     V8    10.0   1_554     S
Ce9     S22    10.0   1_654     S
S10     Ce20    10.0   1_455     S
S10     Ti11    10.0   1_455     S
S10     Ti6    10.0   1_545     S
Ti11     S10    10.0   1_655     S
Ti11     Er12    10.0   .     S
Er12     H2    10.0   1_554     S
Er12     H13    10.0   .     S
Er12     V21    10.0   .     S
H13     V8    10.0   1_554     S
H13     V15    10.0   1_545     S
H13     Er19    10.0   1_554     S
H14     V21    10.0   .     S
H14     Er24    10.0   1_565     S
V15     H2    10.0   1_554     S
V15     Ce16    10.0   1_554     S
V15     H13    10.0   1_565     S
Ce16     S5    10.0   1_456     S
Ce16     Ti18    10.0   .     S
Ce16     V15    10.0   1_556     S
Ce16     S22    10.0   1_565     S
S17     Ce4    10.0   1_655     S
S17     Ti18    10.0   1_655     S
S17     Ce20    10.0   .     S
S17     Ti23    10.0   1_565     S
Ti18     S17    10.0   1_455     S
Ti18     Er19    10.0   .     S
Ti18     S22    10.0   .     S
Er19     H13    10.0   1_556     S
Ce20     S10    10.0   1_655     S
Ce20     Ti23    10.0   .     S
Ce20     V21    10.0   .     S
S22     Ce9    10.0   1_456     S
S22     Ti23    10.0   1_455     S
S22     Ce16    10.0   1_545     S
Ti23     S22    10.0   1_655     S
Ti23     Er24    10.0   .     S
Ti23     S17    10.0   1_545     S
Er24     H14    10.0   1_545     S
