data_ism
_audit_creation_date              2020-02-02
_audit_creation_method            'Pymatgen'
_symmetry_space_group_name_H-M    'P1'
_symmetry_Int_Tables_number       1
loop_
_symmetry_equiv_pos_as_xyz
  x,y,z
_cell_length_a                    57.7745
_cell_length_b                    57.7745
_cell_length_c                    24.5921
_cell_angle_alpha                 90.0
_cell_angle_beta                 90.0
_cell_angle_gamma                 90.0
loop_
_atom_site_label
_atom_site_type_symbol
_atom_site_fract_x
_atom_site_fract_y
_atom_site_fract_z
V1     V     0.7085   0.831   0.5534
V2     V     0.7085   0.669   0.6966
Ti3     Ti     0.75   0.9284   0.875
V4     V     0.7915   0.831   0.1966
V5     V     0.7915   0.669   0.0534
Ti6     Ti     0.75   0.5716   0.375
Er7     Er     0.8699   0.0413   0.75
Er8     Er     0.9587   0.8699   0.25
Er9     Er     0.0413   0.1301   0.25
Er10     Er     0.1301   0.9587   0.75
Ce11     Ce     0.0   0.0   0.5
S12     S     0.0   0.0   0.0
V13     V     0.169   0.7085   0.4466
V14     V     0.331   0.7085   0.3034
V15     V     0.169   0.7915   0.8034
V16     V     0.331   0.7915   0.9466
Ti17     Ti     0.0716   0.75   0.125
Ti18     Ti     0.4284   0.75   0.625
Er19     Er     0.5413   0.8699   0.5
Er20     Er     0.3699   0.9587   0.0
Ce21     Ce     0.5   0.0   0.25
Er22     Er     0.6301   0.0413   0.0
S23     S     0.5   0.0   0.75
Er24     Er     0.4587   0.1301   0.5
Er25     Er     0.1301   0.5413   0.5
Er26     Er     0.8699   0.4587   0.5
Er27     Er     0.9587   0.6301   0.0
Er28     Er     0.0413   0.3699   0.0
Ce29     Ce     0.0   0.5   0.75
S30     S     0.0   0.5   0.25
V31     V     0.831   0.2085   0.8034
V32     V     0.669   0.2085   0.9466
Ti33     Ti     0.5716   0.25   0.625
V34     V     0.831   0.2915   0.4466
V35     V     0.669   0.2915   0.3034
Ti36     Ti     0.9284   0.25   0.125
Er37     Er     0.6301   0.4587   0.25
Er38     Er     0.5413   0.6301   0.75
Er39     Er     0.3699   0.5413   0.25
Er40     Er     0.4587   0.3699   0.75
Ce41     Ce     0.5   0.5   0.0
S42     S     0.5   0.5   0.5
V43     V     0.2915   0.169   0.5534
V44     V     0.2915   0.331   0.6966
Ti45     Ti     0.25   0.0716   0.875
V46     V     0.2085   0.169   0.1966
V47     V     0.2085   0.331   0.0534
Ti48     Ti     0.25   0.4284   0.375
loop_
_geom_bond_atom_site_label_1
_geom_bond_atom_site_label_2
_geom_bond_distance
_geom_bond_site_symmetry_2
_ccdc_geom_bond_type
V1     V2    10.0   .     S
V1     Ti3    10.0   .     S
V1     Er19    10.0   .     S
V1     V4    10.0   .     S
V2     Ti6    10.0   .     S
V2     Er38    10.0   .     S
V2     V5    10.0   1_556     S
Ti3     V4    10.0   1_556     S
Ti3     Er7    10.0   1_565     S
Ti3     Er22    10.0   1_566     S
V4     V5    10.0   .     S
V4     Ti3    10.0   1_554     S
V4     Er8    10.0   .     S
V5     Ti6    10.0   .     S
V5     Er27    10.0   .     S
V5     V2    10.0   1_554     S
Ti6     Er26    10.0   .     S
Ti6     Er37    10.0   .     S
Er7     Ti3    10.0   1_545     S
Er7     V31    10.0   .     S
Er7     S12    10.0   1_656     S
Er7     Ce11    10.0   1_655     S
Er8     Ti17    10.0   1_655     S
Er8     Ce11    10.0   1_665     S
Er8     S12    10.0   1_665     S
Er9     Ti36    10.0   1_455     S
Er9     V46    10.0   .     S
Er9     S12    10.0   .     S
Er9     Ce11    10.0   .     S
Er10     Ti45    10.0   1_565     S
Er10     V15    10.0   .     S
Er10     S12    10.0   1_566     S
Er10     Ce11    10.0   1_565     S
Ce11     Er7    10.0   1_455     S
Ce11     Er8    10.0   1_445     S
Ce11     Er10    10.0   1_545     S
S12     Er7    10.0   1_454     S
S12     Er8    10.0   1_445     S
S12     Er10    10.0   1_544     S
V13     V14    10.0   .     S
V13     Ti17    10.0   .     S
V13     Er25    10.0   .     S
V13     V15    10.0   .     S
V14     Ti18    10.0   .     S
V14     Er39    10.0   .     S
V14     V16    10.0   1_554     S
V15     V16    10.0   .     S
V15     Ti17    10.0   1_556     S
V16     Ti18    10.0   .     S
V16     Er20    10.0   1_556     S
V16     V14    10.0   1_556     S
Ti17     Er8    10.0   1_455     S
Ti17     V15    10.0   1_554     S
Ti17     Er27    10.0   1_455     S
Ti18     Er19    10.0   .     S
Ti18     Er38    10.0   .     S
Er19     Ce21    10.0   1_565     S
Er19     S23    10.0   1_565     S
Er20     Ti45    10.0   1_564     S
Er20     V16    10.0   1_554     S
Er20     S23    10.0   1_564     S
Er20     Ce21    10.0   1_565     S
Ce21     Er19    10.0   1_545     S
Ce21     Er20    10.0   1_545     S
Ce21     Er22    10.0   .     S
Ce21     Er24    10.0   .     S
Er22     Ti3    10.0   1_544     S
Er22     V32    10.0   1_554     S
Er22     S23    10.0   1_554     S
S23     Er19    10.0   1_545     S
S23     Er20    10.0   1_546     S
S23     Er22    10.0   1_556     S
S23     Er24    10.0   .     S
Er24     Ti33    10.0   .     S
Er24     V43    10.0   .     S
Er25     Ti48    10.0   .     S
Er25     Ce29    10.0   .     S
Er25     S30    10.0   .     S
Er26     V34    10.0   .     S
Er26     Ce29    10.0   1_655     S
Er26     S30    10.0   1_655     S
Er27     Ti17    10.0   1_655     S
Er27     S30    10.0   1_655     S
Er27     Ce29    10.0   1_654     S
Er28     Ti36    10.0   1_455     S
Er28     V47    10.0   .     S
Er28     S30    10.0   .     S
Er28     Ce29    10.0   1_554     S
Ce29     Er26    10.0   1_455     S
Ce29     Er27    10.0   1_456     S
Ce29     Er28    10.0   1_556     S
S30     Er26    10.0   1_455     S
S30     Er27    10.0   1_455     S
V31     V32    10.0   .     S
V31     Ti36    10.0   1_556     S
V31     V34    10.0   .     S
V32     Er22    10.0   1_556     S
V32     Ti33    10.0   .     S
V32     V35    10.0   1_556     S
Ti33     V35    10.0   .     S
Ti33     Er40    10.0   .     S
V34     V35    10.0   .     S
V34     Ti36    10.0   .     S
V35     Er37    10.0   .     S
V35     V32    10.0   1_554     S
Ti36     Er9    10.0   1_655     S
Ti36     Er28    10.0   1_655     S
Ti36     V31    10.0   1_554     S
Er37     Ce41    10.0   .     S
Er37     S42    10.0   .     S
Er38     Ce41    10.0   1_556     S
Er38     S42    10.0   .     S
Er39     Ti48    10.0   .     S
Er39     S42    10.0   .     S
Er39     Ce41    10.0   .     S
Er40     V44    10.0   .     S
Er40     S42    10.0   .     S
Er40     Ce41    10.0   1_556     S
Ce41     Er38    10.0   1_554     S
Ce41     Er40    10.0   1_554     S
V43     V44    10.0   .     S
V43     Ti45    10.0   .     S
V43     V46    10.0   .     S
V44     Ti48    10.0   .     S
V44     V47    10.0   1_556     S
Ti45     Er10    10.0   1_545     S
Ti45     Er20    10.0   1_546     S
Ti45     V46    10.0   1_556     S
V46     V47    10.0   .     S
V46     Ti45    10.0   1_554     S
V47     Ti48    10.0   .     S
V47     V44    10.0   1_554     S
