data_isn
_audit_creation_date              2020-02-02
_audit_creation_method            'Pymatgen'
_symmetry_space_group_name_H-M    'P1'
_symmetry_Int_Tables_number       1
loop_
_symmetry_equiv_pos_as_xyz
  x,y,z
_cell_length_a                    57.8723
_cell_length_b                    57.8723
_cell_length_c                    24.8803
_cell_angle_alpha                 90.0
_cell_angle_beta                 90.0
_cell_angle_gamma                 90.0
loop_
_atom_site_label
_atom_site_type_symbol
_atom_site_fract_x
_atom_site_fract_y
_atom_site_fract_z
Li1     Li     0.25   0.25   0.75
He2     He     0.25   0.25   0.25
Li3     Li     0.75   0.75   0.25
He4     He     0.75   0.75   0.75
V5     V     0.25   0.75   0.3697
V6     V     0.75   0.25   0.6304
V7     V     0.25   0.75   0.8696
V8     V     0.75   0.25   0.1304
Er9     Er     0.3797   0.7884   0.1196
Er10     Er     0.7884   0.1203   0.3803
Er11     Er     0.1203   0.7116   0.1196
Er12     Er     0.7116   0.3797   0.3803
Er13     Er     0.8797   0.2884   0.8804
Er14     Er     0.2884   0.6203   0.6196
Er15     Er     0.6203   0.2116   0.8804
Er16     Er     0.2116   0.8797   0.6196
Ti17     Ti     1.0   0.8302   0.0354
Ce18     Ce     0.0457   0.9137   0.6999
S19     S     0.0497   0.0842   0.6352
H20     H     0.2081   0.1214   0.5
Ti21     Ti     0.1698   0.5   0.5354
Ce22     Ce     0.0863   0.5457   0.1999
S23     S     0.9158   0.5497   0.1352
H24     H     0.8786   0.7081   0.0
Ti25     Ti     0.5   0.6698   0.0354
Ce26     Ce     0.4543   0.5863   0.6999
S27     S     0.4503   0.4158   0.6352
H28     H     0.2919   0.3787   0.5
Ti29     Ti     0.3302   0.0   0.5354
Ce30     Ce     0.4137   0.9543   0.1999
S31     S     0.5841   0.9503   0.1352
H32     H     0.6214   0.7919   0.0
Ti33     Ti     0.6698   1.0   0.4646
Ce34     Ce     0.5863   0.0457   0.8001
S35     S     0.4159   0.0497   0.8648
H36     H     0.3787   0.2081   0.0
Ti37     Ti     0.5   0.3302   0.9646
Ce38     Ce     0.5457   0.4137   0.3001
S39     S     0.5497   0.5841   0.3648
H40     H     0.7081   0.6214   0.5
Ti41     Ti     0.8302   0.5   0.4646
Ce42     Ce     0.9137   0.4543   0.8001
S43     S     0.0842   0.4503   0.8648
H44     H     0.1214   0.2919   0.0
Ti45     Ti     0.0   0.1698   0.9646
Ce46     Ce     0.9543   0.0863   0.3001
S47     S     0.9503   0.9158   0.3648
H48     H     0.7919   0.8786   0.5
loop_
_geom_bond_atom_site_label_1
_geom_bond_atom_site_label_2
_geom_bond_distance
_geom_bond_site_symmetry_2
_ccdc_geom_bond_type
Li1     H20    10.0   .     S
Li1     H44    10.0   1_556     S
Li1     H28    10.0   .     S
Li1     H36    10.0   1_556     S
He2     H20    10.0   .     S
He2     H44    10.0   .     S
He2     H28    10.0   .     S
He2     H36    10.0   .     S
Li3     H48    10.0   .     S
Li3     H24    10.0   .     S
Li3     H32    10.0   .     S
Li3     H40    10.0   .     S
He4     H48    10.0   .     S
He4     H24    10.0   1_556     S
He4     H40    10.0   .     S
He4     H32    10.0   1_556     S
V5     Er14    10.0   .     S
V5     Er16    10.0   .     S
V5     Er11    10.0   .     S
V5     Er9    10.0   .     S
V6     Er13    10.0   .     S
V6     Er15    10.0   .     S
V6     Er12    10.0   .     S
V6     Er10    10.0   .     S
V7     Er14    10.0   .     S
V7     Er11    10.0   1_556     S
V7     Er9    10.0   1_556     S
V7     Er16    10.0   .     S
V8     Er13    10.0   1_554     S
V8     Er15    10.0   1_554     S
V8     Er12    10.0   .     S
V8     Er10    10.0   .     S
Er9     V7    10.0   1_554     S
Er9     Ce30    10.0   .     S
Er9     Ti25    10.0   .     S
Er10     Ce46    10.0   .     S
Er10     Ti33    10.0   1_545     S
Er11     V7    10.0   1_554     S
Er11     Ce22    10.0   .     S
Er11     Ti17    10.0   1_455     S
Er12     Ce38    10.0   .     S
Er12     Ti41    10.0   .     S
Er13     V8    10.0   1_556     S
Er13     Ce42    10.0   .     S
Er13     Ti45    10.0   1_655     S
Er14     Ce26    10.0   .     S
Er14     Ti21    10.0   .     S
Er15     V8    10.0   1_556     S
Er15     Ce34    10.0   .     S
Er15     Ti37    10.0   .     S
Er16     Ce18    10.0   .     S
Er16     Ti29    10.0   1_565     S
Ti17     Er11    10.0   1_655     S
Ti17     Ce18    10.0   1_654     S
Ti17     H24    10.0   .     S
Ti17     S47    10.0   .     S
Ce18     Ti17    10.0   1_456     S
Ce18     S19    9.999   1_565     S
Ce18     S47    10.0   1_455     S
S19     Ce18    9.999   1_545     S
S19     Ce46    10.0   1_455     S
S19     H20    10.0   .     S
S19     Ti45    10.0   .     S
H20     Ti29    10.0   .     S
Ti21     Ce22    10.0   .     S
Ti21     H28    10.0   .     S
Ti21     S43    10.0   .     S
Ce22     S23    9.999   1_455     S
Ce22     S43    10.0   1_554     S
S23     Ce22    9.999   1_655     S
S23     Ce42    10.0   1_554     S
S23     H24    10.0   .     S
S23     Ti41    10.0   .     S
H24     He4    10.0   1_554     S
Ti25     Ce26    10.0   1_554     S
Ti25     H32    10.0   .     S
Ti25     S39    10.0   .     S
Ce26     Ti25    10.0   1_556     S
Ce26     S27    9.999   .     S
Ce26     S39    10.0   .     S
S27     Ce38    10.0   .     S
S27     H28    10.0   .     S
S27     Ti37    10.0   .     S
Ti29     Er16    10.0   1_545     S
Ti29     Ce30    10.0   1_545     S
Ti29     S35    10.0   .     S
Ce30     Ti29    10.0   1_565     S
Ce30     S31    9.999   .     S
Ce30     S35    10.0   1_564     S
S31     Ce34    10.0   1_564     S
S31     H32    10.0   .     S
S31     Ti33    10.0   .     S
H32     He4    10.0   1_554     S
Ti33     Er10    10.0   1_565     S
Ti33     Ce34    10.0   1_565     S
Ti33     H48    10.0   .     S
Ce34     S31    10.0   1_546     S
Ce34     Ti33    10.0   1_545     S
Ce34     S35    9.999   .     S
S35     Ce30    10.0   1_546     S
S35     H36    10.0   1_556     S
H36     Li1    10.0   1_554     S
H36     S35    10.0   1_554     S
H36     Ti37    10.0   1_554     S
Ti37     H36    10.0   1_556     S
Ti37     Ce38    10.0   1_556     S
Ce38     Ti37    10.0   1_554     S
Ce38     S39    9.999   .     S
S39     H40    10.0   .     S
H40     Ti41    10.0   .     S
Ti41     Ce42    10.0   .     S
Ce42     S23    10.0   1_556     S
Ce42     S43    9.999   1_655     S
S43     Ce42    9.999   1_455     S
S43     Ce22    10.0   1_556     S
S43     H44    10.0   1_556     S
H44     Li1    10.0   1_554     S
H44     S43    10.0   1_554     S
H44     Ti45    10.0   1_554     S
Ti45     Er13    10.0   1_455     S
Ti45     Ce46    10.0   1_456     S
Ti45     H44    10.0   1_556     S
Ce46     S19    10.0   1_655     S
Ce46     Ti45    10.0   1_654     S
Ce46     S47    9.999   1_545     S
S47     Ce46    9.999   1_565     S
S47     Ce18    10.0   1_655     S
S47     H48    10.0   .     S
