data_iso
_audit_creation_date              2020-02-02
_audit_creation_method            'Pymatgen'
_symmetry_space_group_name_H-M    'P1'
_symmetry_Int_Tables_number       1
loop_
_symmetry_equiv_pos_as_xyz
  x,y,z
_cell_length_a                    45.0253
_cell_length_b                    45.6767
_cell_length_c                    41.2357
_cell_angle_alpha                 90.0
_cell_angle_beta                 90.0
_cell_angle_gamma                 90.0
loop_
_atom_site_label
_atom_site_type_symbol
_atom_site_fract_x
_atom_site_fract_y
_atom_site_fract_z
H1     H     0.5516   0.139   0.9904
Ti2     Ti     0.3644   0.4466   0.5802
Er3     Er     0.6826   0.2091   0.1702
V4     V     0.6836   0.3996   0.0506
S5     S     0.5583   0.3274   0.867
Ce6     Ce     0.3616   0.4202   0.8209
H7     H     0.4484   0.861   0.0096
Ti8     Ti     0.6356   0.5534   0.4198
Er9     Er     0.3174   0.7909   0.8298
V10     V     0.3164   0.6004   0.9494
S11     S     0.4417   0.6726   0.133
Ce12     Ce     0.6384   0.5798   0.1791
H13     H     0.5516   0.361   0.4904
Ti14     Ti     0.3644   0.0534   0.0802
Er15     Er     0.6826   0.2909   0.6702
V16     V     0.6836   0.1004   0.5506
S17     S     0.5583   0.1726   0.367
Ce18     Ce     0.3616   0.0798   0.3209
H19     H     0.4484   0.639   0.5096
Ti20     Ti     0.6356   0.9466   0.9198
Er21     Er     0.3174   0.7091   0.3298
V22     V     0.3164   0.8996   0.4494
S23     S     0.4417   0.8274   0.633
Ce24     Ce     0.6384   0.9202   0.6791
H25     H     0.0516   0.139   0.5096
Ti26     Ti     0.8644   0.4466   0.9198
Er27     Er     0.1826   0.2091   0.3298
V28     V     0.1836   0.3996   0.4494
S29     S     0.0583   0.3274   0.633
Ce30     Ce     0.8616   0.4202   0.6791
H31     H     0.9484   0.861   0.4904
Ti32     Ti     0.1355   0.5534   0.0802
Er33     Er     0.8174   0.7909   0.6702
V34     V     0.8164   0.6004   0.5506
S35     S     0.9417   0.6726   0.367
Ce36     Ce     0.1384   0.5798   0.3209
H37     H     0.9484   0.639   0.9904
Ti38     Ti     0.1356   0.9466   0.5802
Er39     Er     0.8174   0.7091   0.1702
V40     V     0.8164   0.8996   0.0506
S41     S     0.9417   0.8274   0.867
Ce42     Ce     0.1384   0.9202   0.8209
H43     H     0.0516   0.361   0.0096
Ti44     Ti     0.8644   0.0534   0.4198
Er45     Er     0.1826   0.2909   0.8298
V46     V     0.1836   0.1004   0.9494
S47     S     0.0583   0.1726   0.133
Ce48     Ce     0.8616   0.0798   0.1791
loop_
_geom_bond_atom_site_label_1
_geom_bond_atom_site_label_2
_geom_bond_distance
_geom_bond_site_symmetry_2
_ccdc_geom_bond_type
H1     Er3    10.0   1_556     S
H1     Ti20    10.0   1_545     S
H1     Ti14    10.0   1_556     S
H1     S5    10.0   .     S
Ti2     V28    10.0   .     S
Ti2     Ce6    10.0   .     S
Ti2     H13    10.0   .     S
Ti2     H19    10.0   .     S
Er3     H1    10.0   1_554     S
Er3     V4    10.0   .     S
Er3     S17    10.0   .     S
Er3     Ce48    10.0   .     S
V4     Ce12    10.0   .     S
V4     S5    10.0   1_554     S
V4     Ti26    10.0   1_554     S
S5     V4    10.0   1_556     S
S5     Ce6    10.0   .     S
S5     Er15    10.0   .     S
Ce6     V10    10.0   .     S
Ce6     Er45    10.0   .     S
H7     Er9    10.0   1_554     S
H7     Ti14    10.0   1_565     S
H7     Ti20    10.0   1_554     S
H7     S11    10.0   .     S
Ti8     V34    10.0   .     S
Ti8     Ce12    10.0   .     S
Ti8     H13    10.0   .     S
Ti8     H19    10.0   .     S
Er9     H7    10.0   1_556     S
Er9     V10    10.0   .     S
Er9     S23    10.0   .     S
Er9     Ce42    10.0   .     S
V10     S11    10.0   1_556     S
V10     Ti32    10.0   1_556     S
S11     V10    10.0   1_554     S
S11     Ce12    10.0   .     S
S11     Er21    10.0   .     S
Ce12     Er39    10.0   .     S
H13     Er15    10.0   .     S
H13     S17    10.0   .     S
Ti14     H1    10.0   1_554     S
Ti14     H7    10.0   1_545     S
Ti14     V46    10.0   1_554     S
Ti14     Ce18    10.0   .     S
Er15     V16    10.0   .     S
Er15     Ce30    10.0   .     S
V16     Ce24    10.0   1_545     S
V16     S17    10.0   .     S
V16     Ti44    10.0   .     S
S17     Ce18    10.0   .     S
Ce18     V22    10.0   1_545     S
Ce18     Er27    10.0   .     S
H19     Er21    10.0   .     S
H19     S23    10.0   .     S
Ti20     H1    10.0   1_565     S
Ti20     H7    10.0   1_556     S
Ti20     V40    10.0   1_556     S
Ti20     Ce24    10.0   .     S
Er21     V22    10.0   .     S
Er21     Ce36    10.0   .     S
V22     Ce18    10.0   1_565     S
V22     S23    10.0   .     S
V22     Ti38    10.0   .     S
S23     Ce24    10.0   .     S
Ce24     V16    10.0   1_565     S
Ce24     Er33    10.0   .     S
H25     Er27    10.0   .     S
H25     Ti38    10.0   1_545     S
H25     Ti44    10.0   1_455     S
H25     S29    10.0   .     S
Ti26     V4    10.0   1_556     S
Ti26     Ce30    10.0   .     S
Ti26     H37    10.0   .     S
Ti26     H43    10.0   1_656     S
Er27     V28    10.0   .     S
Er27     S47    10.0   .     S
V28     Ce36    10.0   .     S
V28     S29    10.0   .     S
S29     Ce30    10.0   1_455     S
S29     Er45    10.0   .     S
Ce30     S29    10.0   1_655     S
Ce30     V34    10.0   .     S
H31     Er33    10.0   .     S
H31     Ti44    10.0   1_565     S
H31     Ti38    10.0   1_655     S
H31     S35    10.0   .     S
Ti32     V10    10.0   1_554     S
Ti32     Ce36    10.0   .     S
Ti32     H37    10.0   1_454     S
Ti32     H43    10.0   .     S
Er33     V34    10.0   .     S
Er33     S41    10.0   .     S
V34     S35    10.0   .     S
S35     Ce36    10.0   1_655     S
S35     Er39    10.0   .     S
Ce36     S35    10.0   1_455     S
H37     Er39    10.0   1_556     S
H37     Ti32    10.0   1_656     S
H37     S41    10.0   .     S
Ti38     H25    10.0   1_565     S
Ti38     H31    10.0   1_455     S
Ti38     Ce42    10.0   .     S
Er39     H37    10.0   1_554     S
Er39     V40    10.0   .     S
V40     Ti20    10.0   1_554     S
V40     Ce48    10.0   1_565     S
V40     S41    10.0   1_554     S
S41     V40    10.0   1_556     S
S41     Ce42    10.0   1_655     S
Ce42     S41    10.0   1_455     S
Ce42     V46    10.0   1_565     S
H43     Er45    10.0   1_554     S
H43     Ti26    10.0   1_454     S
H43     S47    10.0   .     S
Ti44     H25    10.0   1_655     S
Ti44     H31    10.0   1_545     S
Ti44     Ce48    10.0   .     S
Er45     H43    10.0   1_556     S
Er45     V46    10.0   .     S
V46     Ti14    10.0   1_556     S
V46     Ce42    10.0   1_545     S
V46     S47    10.0   1_556     S
S47     V46    10.0   1_554     S
S47     Ce48    10.0   1_455     S
Ce48     V40    10.0   1_545     S
Ce48     S47    10.0   1_655     S
