data_isq
_audit_creation_date              2020-02-02
_audit_creation_method            'Pymatgen'
_symmetry_space_group_name_H-M    'P1'
_symmetry_Int_Tables_number       1
loop_
_symmetry_equiv_pos_as_xyz
  x,y,z
_cell_length_a                    23.1617
_cell_length_b                    23.1617
_cell_length_c                    39.0885
_cell_angle_alpha                 90.0
_cell_angle_beta                 90.0
_cell_angle_gamma                 90.0
loop_
_atom_site_label
_atom_site_type_symbol
_atom_site_fract_x
_atom_site_fract_y
_atom_site_fract_z
V1     V     0.8474   0.8474   0.8721
V2     V     0.1526   0.1526   0.8721
V3     V     0.3474   0.6526   0.6279
V4     V     0.6526   0.3474   0.6279
Er5     Er     0.0   0.5   0.75
Er6     Er     0.5   0.0   0.75
V7     V     0.8474   0.8474   0.1279
V8     V     0.1526   0.1526   0.1279
V9     V     0.6526   0.3474   0.3721
V10     V     0.3474   0.6526   0.3721
Er11     Er     0.5   0.0   0.25
Er12     Er     0.0   0.5   0.25
loop_
_geom_bond_atom_site_label_1
_geom_bond_atom_site_label_2
_geom_bond_distance
_geom_bond_site_symmetry_2
_ccdc_geom_bond_type
V1     Er6    10.0   1_565     S
V1     Er5    10.0   1_655     S
V1     V2    10.0   1_665     S
V1     V7    10.0   1_556     S
V2     Er6    10.0   .     S
V2     Er5    10.0   .     S
V2     V1    10.0   1_445     S
V2     V8    10.0   1_556     S
V3     Er5    10.0   .     S
V3     Er6    10.0   1_565     S
V3     V4    10.0   .     S
V3     V10    10.0   .     S
V4     Er6    10.0   .     S
V4     Er5    10.0   1_655     S
V4     V9    10.0   .     S
Er5     V1    10.0   1_455     S
Er5     V4    10.0   1_455     S
Er6     V1    10.0   1_545     S
Er6     V3    10.0   1_545     S
V7     Er12    10.0   1_655     S
V7     Er11    10.0   1_565     S
V7     V8    10.0   1_665     S
V7     V1    10.0   1_554     S
V8     Er12    10.0   .     S
V8     Er11    10.0   .     S
V8     V7    10.0   1_445     S
V8     V2    10.0   1_554     S
V9     Er11    10.0   .     S
V9     Er12    10.0   1_655     S
V9     V10    10.0   .     S
V10     Er12    10.0   .     S
V10     Er11    10.0   1_565     S
Er11     V7    10.0   1_545     S
Er11     V10    10.0   1_545     S
Er12     V7    10.0   1_455     S
Er12     V9    10.0   1_455     S
