data_isw
_audit_creation_date              2020-02-02
_audit_creation_method            'Pymatgen'
_symmetry_space_group_name_H-M    'P1'
_symmetry_Int_Tables_number       1
loop_
_symmetry_equiv_pos_as_xyz
  x,y,z
_cell_length_a                    41.8036
_cell_length_b                    25.3774
_cell_length_c                    160.9891
_cell_angle_alpha                 90.0
_cell_angle_beta                 90.0
_cell_angle_gamma                 90.0
loop_
_atom_site_label
_atom_site_type_symbol
_atom_site_fract_x
_atom_site_fract_y
_atom_site_fract_z
S1     S     0.625   0.125   0.5032
Ce2     Ce     0.8133   0.0438   0.4672
Ce3     Ce     0.9367   0.7062   0.4672
S4     S     0.125   0.625   0.5032
Ce5     Ce     0.3133   0.5438   0.4672
Ce6     Ce     0.4367   0.2062   0.4672
Ce7     Ce     0.5633   0.7938   0.5329
Ce8     Ce     0.6867   0.4562   0.5329
S9     S     0.875   0.375   0.4968
S10     S     0.375   0.875   0.4968
Ce11     Ce     0.1867   0.9562   0.5329
Ce12     Ce     0.0633   0.2938   0.5329
V13     V     0.0054   0.625   0.409
V14     V     0.0054   0.125   0.341
V15     V     0.7446   0.625   0.341
V16     V     0.7446   0.125   0.409
Er17     Er     0.875   0.875   0.375
Ti18     Ti     0.875   0.375   0.375
V19     V     0.2446   0.625   0.409
V20     V     0.2446   0.125   0.341
V21     V     0.5054   0.625   0.341
V22     V     0.5054   0.125   0.409
Er23     Er     0.375   0.375   0.375
Ti24     Ti     0.375   0.875   0.375
S25     S     0.875   0.375   0.2532
Ce26     Ce     0.5633   0.9562   0.2172
Ce27     Ce     0.6867   0.2938   0.2172
S28     S     0.375   0.875   0.2532
Ce29     Ce     0.1867   0.7938   0.2172
Ce30     Ce     0.0633   0.4562   0.2172
S31     S     0.625   0.625   0.2468
Ce32     Ce     0.8133   0.7062   0.2828
Ce33     Ce     0.9367   0.0438   0.2828
S34     S     0.125   0.125   0.2468
Ce35     Ce     0.3133   0.2062   0.2828
Ce36     Ce     0.4367   0.5438   0.2828
V37     V     0.2554   0.875   0.159
V38     V     0.9946   0.375   0.159
V39     V     0.9946   0.875   0.091
V40     V     0.2554   0.375   0.091
Er41     Er     0.125   0.625   0.125
Ti42     Ti     0.125   0.125   0.125
V43     V     0.4946   0.875   0.159
V44     V     0.4946   0.375   0.091
V45     V     0.7554   0.375   0.159
V46     V     0.7554   0.875   0.091
Er47     Er     0.625   0.125   0.125
Ti48     Ti     0.625   0.625   0.125
V49     V     0.2554   0.875   0.591
V50     V     0.2554   0.375   0.659
V51     V     0.9946   0.375   0.591
V52     V     0.9946   0.875   0.659
Er53     Er     0.125   0.125   0.625
Ti54     Ti     0.125   0.625   0.625
V55     V     0.4946   0.375   0.659
V56     V     0.4946   0.875   0.591
V57     V     0.7554   0.875   0.659
V58     V     0.7554   0.375   0.591
Er59     Er     0.625   0.625   0.625
Ti60     Ti     0.625   0.125   0.625
S61     S     0.875   0.875   0.7532
Ce62     Ce     0.0633   0.9562   0.7171
Ce63     Ce     0.1867   0.2938   0.7171
S64     S     0.375   0.375   0.7532
Ce65     Ce     0.6867   0.7938   0.7171
Ce66     Ce     0.5633   0.4562   0.7171
S67     S     0.625   0.125   0.7468
Ce68     Ce     0.8133   0.2062   0.7829
Ce69     Ce     0.9367   0.5438   0.7829
S70     S     0.125   0.625   0.7468
Ce71     Ce     0.3133   0.7062   0.7829
Ce72     Ce     0.4367   0.0438   0.7829
V73     V     0.0054   0.625   0.841
V74     V     0.0054   0.125   0.909
V75     V     0.7446   0.625   0.909
V76     V     0.7446   0.125   0.841
Er77     Er     0.875   0.375   0.875
Ti78     Ti     0.875   0.875   0.875
V79     V     0.2446   0.625   0.841
V80     V     0.2446   0.125   0.909
V81     V     0.5054   0.625   0.909
V82     V     0.5054   0.125   0.841
Er83     Er     0.375   0.875   0.875
Ti84     Ti     0.375   0.375   0.875
S85     S     0.625   0.625   0.0032
Ce86     Ce     0.8133   0.5438   0.9672
Ce87     Ce     0.9367   0.2062   0.9672
S88     S     0.125   0.125   0.0032
Ce89     Ce     0.4367   0.7062   0.9672
Ce90     Ce     0.3133   0.0438   0.9672
S91     S     0.875   0.875   0.9968
Ce92     Ce     0.5633   0.2938   0.0328
Ce93     Ce     0.6867   0.9562   0.0328
S94     S     0.375   0.375   0.9968
Ce95     Ce     0.0633   0.7938   0.0328
Ce96     Ce     0.1867   0.4562   0.0328
loop_
_geom_bond_atom_site_label_1
_geom_bond_atom_site_label_2
_geom_bond_distance
_geom_bond_site_symmetry_2
_ccdc_geom_bond_type
S1     Ce2    10.0   .     S
S1     Ce6    10.0   .     S
S1     Ce7    10.0   1_545     S
S1     Ce8    10.0   .     S
Ce2     V16    10.001   .     S
Ce2     Ce3    10.0   1_545     S
Ce2     S9    10.0   .     S
Ce3     V13    10.001   1_655     S
Ce3     Ce2    10.0   1_565     S
Ce3     S4    10.0   1_655     S
Ce3     S9    10.0   .     S
S4     Ce5    10.0   .     S
S4     Ce3    10.0   1_455     S
S4     Ce12    10.0   .     S
S4     Ce11    10.0   .     S
Ce5     V19    10.001   .     S
Ce5     Ce6    10.0   .     S
Ce5     S10    10.0   .     S
Ce6     V22    10.001   .     S
Ce6     S10    10.0   1_545     S
Ce7     S1    10.0   1_565     S
Ce7     V56    10.001   .     S
Ce7     Ce8    10.0   .     S
Ce7     S10    10.0   .     S
Ce8     V58    10.001   .     S
Ce8     S9    10.0   .     S
S9     Ce12    10.0   1_655     S
S10     Ce11    10.0   .     S
S10     Ce6    10.0   1_565     S
Ce11     V49    10.001   .     S
Ce11     Ce12    10.0   1_565     S
Ce12     S9    10.0   1_455     S
Ce12     V51    10.001   1_455     S
Ce12     Ce11    10.0   1_545     S
V13     Ce3    10.001   1_455     S
V13     Ti18    10.0   1_455     S
V13     Er17    10.0   1_455     S
V13     V19    10.0   .     S
V14     Ti18    10.0   1_455     S
V14     Er17    10.0   1_445     S
V14     V20    10.0   .     S
V14     Ce33    10.001   1_455     S
V15     Ti18    10.0   .     S
V15     Er17    10.0   .     S
V15     V21    10.0   .     S
V15     Ce32    10.001   .     S
V16     Er17    10.0   1_545     S
V16     Ti18    10.0   .     S
V16     V22    10.0   .     S
Er17     V13    10.0   1_655     S
Er17     V14    10.0   1_665     S
Er17     V16    10.0   1_565     S
Ti18     V13    10.0   1_655     S
Ti18     V14    10.0   1_655     S
V19     Er23    10.0   .     S
V19     Ti24    10.0   .     S
V20     Ti24    10.0   1_545     S
V20     Er23    10.0   .     S
V20     Ce35    10.001   .     S
V21     Er23    10.0   .     S
V21     Ti24    10.0   .     S
V21     Ce36    10.001   .     S
V22     Er23    10.0   .     S
V22     Ti24    10.0   1_545     S
Ti24     V20    10.0   1_565     S
Ti24     V22    10.0   1_565     S
S25     Ce27    10.0   .     S
S25     Ce30    10.0   1_655     S
S25     Ce32    10.0   .     S
S25     Ce33    10.0   .     S
Ce26     V43    10.001   .     S
Ce26     Ce27    10.0   1_565     S
Ce26     S28    10.0   .     S
Ce26     S31    10.0   .     S
Ce27     V45    10.001   .     S
Ce27     Ce26    10.0   1_545     S
Ce27     S31    10.0   .     S
S28     Ce29    10.0   .     S
S28     Ce36    10.0   .     S
S28     Ce35    10.0   1_565     S
Ce29     V37    10.001   .     S
Ce29     Ce30    10.0   .     S
Ce29     S34    10.0   1_565     S
Ce30     S25    10.0   1_455     S
Ce30     V38    10.001   1_455     S
Ce30     S34    10.0   .     S
S31     Ce32    10.0   .     S
S31     Ce36    10.0   .     S
Ce32     Ce33    10.0   1_565     S
Ce33     V14    10.001   1_655     S
Ce33     Ce32    10.0   1_545     S
Ce33     S34    10.0   1_655     S
S34     Ce35    10.0   .     S
S34     Ce33    10.0   1_455     S
S34     Ce29    10.0   1_545     S
Ce35     S28    10.0   1_545     S
Ce35     Ce36    10.0   .     S
V37     Ti42    10.0   1_565     S
V37     Er41    10.0   .     S
V37     V43    10.0   .     S
V38     Ce30    10.001   1_655     S
V38     Er41    10.0   1_655     S
V38     Ti42    10.0   1_655     S
V38     V45    10.0   .     S
V39     Ti42    10.0   1_665     S
V39     Er41    10.0   1_655     S
V39     V46    10.0   .     S
V39     Ce95    10.001   1_655     S
V40     Er41    10.0   .     S
V40     Ti42    10.0   .     S
V40     V44    10.0   .     S
V40     Ce96    10.001   .     S
Er41     V38    10.0   1_455     S
Er41     V39    10.0   1_455     S
Ti42     V37    10.0   1_545     S
Ti42     V38    10.0   1_455     S
Ti42     V39    10.0   1_445     S
V43     Ti48    10.0   .     S
V43     Er47    10.0   1_565     S
V44     Ti48    10.0   .     S
V44     Er47    10.0   .     S
V44     Ce92    10.001   .     S
V45     Ti48    10.0   .     S
V45     Er47    10.0   .     S
V46     Ti48    10.0   .     S
V46     Er47    10.0   1_565     S
V46     Ce93    10.001   .     S
Er47     V43    10.0   1_545     S
Er47     V46    10.0   1_545     S
V49     Er53    10.0   1_565     S
V49     Ti54    10.0   .     S
V49     V56    10.0   .     S
V50     Ti54    10.0   .     S
V50     Er53    10.0   .     S
V50     V55    10.0   .     S
V50     Ce63    10.001   .     S
V51     Ce12    10.001   1_655     S
V51     Ti54    10.0   1_655     S
V51     Er53    10.0   1_655     S
V51     V58    10.0   .     S
V52     Ti54    10.0   1_655     S
V52     Er53    10.0   1_665     S
V52     V57    10.0   .     S
V52     Ce62    10.001   1_655     S
Er53     V49    10.0   1_545     S
Er53     V51    10.0   1_455     S
Er53     V52    10.0   1_445     S
Ti54     V51    10.0   1_455     S
Ti54     V52    10.0   1_455     S
V55     Er59    10.0   .     S
V55     Ti60    10.0   .     S
V55     Ce66    10.001   .     S
V56     Ti60    10.0   1_565     S
V56     Er59    10.0   .     S
V57     Ti60    10.0   1_565     S
V57     Er59    10.0   .     S
V57     Ce65    10.001   .     S
V58     Ti60    10.0   .     S
V58     Er59    10.0   .     S
Ti60     V56    10.0   1_545     S
Ti60     V57    10.0   1_545     S
S61     Ce65    10.0   .     S
S61     Ce62    10.0   1_655     S
S61     Ce69    10.0   .     S
S61     Ce68    10.0   1_565     S
Ce62     S61    10.0   1_455     S
Ce62     V52    10.001   1_455     S
Ce62     Ce63    10.0   1_565     S
Ce62     S70    10.0   .     S
Ce63     Ce62    10.0   1_545     S
Ce63     S64    10.0   .     S
Ce63     S70    10.0   .     S
S64     Ce66    10.0   .     S
S64     Ce71    10.0   .     S
S64     Ce72    10.0   .     S
Ce65     Ce66    10.0   .     S
Ce65     S67    10.0   1_565     S
Ce66     S67    10.0   .     S
S67     Ce68    10.0   .     S
S67     Ce72    10.0   .     S
S67     Ce65    10.0   1_545     S
Ce68     S61    10.0   1_545     S
Ce68     V76    10.001   .     S
Ce68     Ce69    10.0   .     S
Ce69     V73    10.001   1_655     S
Ce69     S70    10.0   1_655     S
S70     Ce69    10.0   1_455     S
S70     Ce71    10.0   .     S
Ce71     V79    10.001   .     S
Ce71     Ce72    10.0   1_565     S
Ce72     V82    10.001   .     S
Ce72     Ce71    10.0   1_545     S
V73     Ce69    10.001   1_455     S
V73     Er77    10.0   1_455     S
V73     Ti78    10.0   1_455     S
V73     V79    10.0   .     S
V74     Ti78    10.0   1_445     S
V74     Er77    10.0   1_455     S
V74     V80    10.0   .     S
V74     Ce87    10.001   1_455     S
V75     Er77    10.0   .     S
V75     Ti78    10.0   .     S
V75     V81    10.0   .     S
V75     Ce86    10.001   .     S
V76     Er77    10.0   .     S
V76     Ti78    10.0   1_545     S
V76     V82    10.0   .     S
Er77     V73    10.0   1_655     S
Er77     V74    10.0   1_655     S
Ti78     V73    10.0   1_655     S
Ti78     V74    10.0   1_665     S
Ti78     V76    10.0   1_565     S
V79     Ti84    10.0   .     S
V79     Er83    10.0   .     S
V80     Ti84    10.0   .     S
V80     Er83    10.0   1_545     S
V80     Ce90    10.001   .     S
V81     Ti84    10.0   .     S
V81     Er83    10.0   .     S
V81     Ce89    10.001   .     S
V82     Er83    10.0   1_545     S
V82     Ti84    10.0   .     S
Er83     V80    10.0   1_565     S
Er83     V82    10.0   1_565     S
S85     Ce86    10.0   1_554     S
S85     Ce89    10.0   1_554     S
S85     Ce93    10.0   .     S
S85     Ce92    10.0   .     S
Ce86     S85    10.0   1_556     S
Ce86     Ce87    10.0   .     S
Ce86     S91    10.0   .     S
Ce87     V74    10.001   1_655     S
Ce87     S88    10.0   1_656     S
Ce87     S91    10.0   1_545     S
S88     Ce87    10.0   1_454     S
S88     Ce90    10.0   1_554     S
S88     Ce95    10.0   1_545     S
S88     Ce96    10.0   .     S
Ce89     S85    10.0   1_556     S
Ce89     Ce90    10.0   1_565     S
Ce89     S94    10.0   .     S
Ce90     S88    10.0   1_556     S
Ce90     Ce89    10.0   1_545     S
Ce90     S94    10.0   .     S
S91     Ce93    10.0   1_556     S
S91     Ce95    10.0   1_656     S
S91     Ce87    10.0   1_565     S
Ce92     Ce93    10.0   1_545     S
Ce92     S94    10.0   1_554     S
Ce93     S91    10.0   1_554     S
Ce93     Ce92    10.0   1_565     S
S94     Ce92    10.0   1_556     S
S94     Ce96    10.0   1_556     S
Ce95     S88    10.0   1_565     S
Ce95     S91    10.0   1_454     S
Ce95     V39    10.001   1_455     S
Ce95     Ce96    10.0   .     S
Ce96     S94    10.0   1_554     S
