data_isy
_audit_creation_date              2020-02-02
_audit_creation_method            'Pymatgen'
_symmetry_space_group_name_H-M    'P1'
_symmetry_Int_Tables_number       1
loop_
_symmetry_equiv_pos_as_xyz
  x,y,z
_cell_length_a                    46.123
_cell_length_b                    39.5398
_cell_length_c                    23.8779
_cell_angle_alpha                 90.0
_cell_angle_beta                 90.0
_cell_angle_gamma                 90.0
loop_
_atom_site_label
_atom_site_type_symbol
_atom_site_fract_x
_atom_site_fract_y
_atom_site_fract_z
V1     V     0.5538   0.6235   0.6653
V2     V     0.9462   0.3765   0.1653
Er3     Er     0.3645   0.5003   0.664
Ti4     Ti     0.3078   0.3765   0.0124
Er5     Er     0.1355   0.4997   0.164
Ti6     Ti     0.1922   0.6235   0.5124
V7     V     0.4462   0.3765   0.3347
V8     V     0.0538   0.6235   0.8347
Er9     Er     0.8645   0.5003   0.836
Ti10     Ti     0.8078   0.3765   0.4876
Er11     Er     0.6355   0.4997   0.336
Ti12     Ti     0.6922   0.6235   0.9876
V13     V     0.0538   0.8765   0.8347
V14     V     0.4462   0.1235   0.3347
Er15     Er     0.8645   0.9997   0.836
Ti16     Ti     0.8078   0.1235   0.4876
Er17     Er     0.6355   0.0003   0.336
Ti18     Ti     0.6922   0.8765   0.9876
V19     V     0.5538   0.8765   0.6653
V20     V     0.9462   0.1235   0.1653
Er21     Er     0.1355   0.0003   0.164
Ti22     Ti     0.1922   0.8765   0.5124
Er23     Er     0.3645   0.9997   0.664
Ti24     Ti     0.3078   0.1235   0.0124
loop_
_geom_bond_atom_site_label_1
_geom_bond_atom_site_label_2
_geom_bond_distance
_geom_bond_site_symmetry_2
_ccdc_geom_bond_type
V1     Er3    10.0   .     S
V1     Er11    10.0   .     S
V1     Ti12    10.0   .     S
V1     V19    10.0   .     S
V2     Er5    10.0   1_655     S
V2     Er9    10.0   1_554     S
V2     Ti10    10.0   .     S
V2     V20    10.0   .     S
Er3     Ti6    10.0   .     S
Er3     Ti4    10.0   1_556     S
Er3     V7    10.0   .     S
Ti4     Er3    10.0   1_554     S
Ti4     V7    10.0   .     S
Ti4     Er5    10.0   .     S
Ti4     Ti24    10.0   .     S
Er5     V2    10.0   1_455     S
Er5     Ti6    10.0   .     S
Er5     V8    10.0   1_554     S
Ti6     V8    10.0   .     S
Ti6     Ti22    10.0   .     S
V7     Er11    10.0   .     S
V7     V14    10.0   .     S
V8     Er9    10.0   1_455     S
V8     Er5    10.0   1_556     S
V8     V13    10.0   .     S
Er9     V2    10.0   1_556     S
Er9     V8    10.0   1_655     S
Er9     Ti12    10.0   .     S
Er9     Ti10    10.0   .     S
Ti10     Er11    10.0   .     S
Ti10     Ti16    10.0   .     S
Er11     Ti12    10.0   1_554     S
Ti12     Er11    10.0   1_556     S
Ti12     Ti18    10.0   .     S
V13     Er15    10.0   1_455     S
V13     Er21    10.0   1_566     S
V13     Ti22    10.0   .     S
V14     Er17    10.0   .     S
V14     Er23    10.0   1_545     S
V14     Ti24    10.0   .     S
Er15     V13    10.0   1_655     S
Er15     Ti18    10.0   .     S
Er15     Ti16    10.0   1_565     S
Er15     V20    10.0   1_566     S
Ti16     Er15    10.0   1_545     S
Ti16     V20    10.0   .     S
Ti16     Er17    10.0   .     S
Er17     Ti18    10.0   1_544     S
Er17     V19    10.0   1_545     S
Ti18     Er17    10.0   1_566     S
Ti18     V19    10.0   .     S
V19     Er23    10.0   .     S
V19     Er17    10.0   1_565     S
V20     Er21    10.0   1_655     S
V20     Er15    10.0   1_544     S
Er21     V13    10.0   1_544     S
Er21     V20    10.0   1_455     S
Er21     Ti24    10.0   .     S
Er21     Ti22    10.0   1_545     S
Ti22     Er21    10.0   1_565     S
Ti22     Er23    10.0   .     S
Er23     V14    10.0   1_565     S
Er23     Ti24    10.0   1_566     S
Ti24     Er23    10.0   1_544     S
