data_itha
_audit_creation_date              2020-02-02
_audit_creation_method            'Pymatgen'
_symmetry_space_group_name_H-M    'P1'
_symmetry_Int_Tables_number       1
loop_
_symmetry_equiv_pos_as_xyz
  x,y,z
_cell_length_a                    45.3755
_cell_length_b                    45.3755
_cell_length_c                    45.3755
_cell_angle_alpha                 90.0
_cell_angle_beta                 90.0
_cell_angle_gamma                 90.0
loop_
_atom_site_label
_atom_site_type_symbol
_atom_site_fract_x
_atom_site_fract_y
_atom_site_fract_z
V1     V     0.5   0.3898   0.6783
V2     V     0.3898   0.3217   0.5
V3     V     0.3217   0.5   0.6102
V4     V     0.6102   0.6783   0.5
V5     V     0.5   0.6102   0.6783
V6     V     0.6783   0.5   0.6102
V7     V     0.3898   0.6783   0.5
V8     V     0.3217   0.5   0.3898
V9     V     0.5   0.6102   0.3217
V10     V     0.6783   0.5   0.3898
V11     V     0.5   0.3898   0.3217
V12     V     0.6102   0.3217   0.5
Er13     Er     0.5   0.6721   0.8898
Er14     Er     0.5   0.6721   0.1102
Er15     Er     0.6102   0.8279   0.0
Er16     Er     0.3898   0.8279   0.0
Er17     Er     0.8279   0.0   0.6102
Er18     Er     0.8279   0.0   0.3898
Er19     Er     0.6721   0.8898   0.5
Er20     Er     0.6721   0.1102   0.5
Er21     Er     0.8898   0.5   0.6721
Er22     Er     0.1102   0.5   0.6721
Er23     Er     0.0   0.6102   0.8279
Er24     Er     0.0   0.3898   0.8279
Er25     Er     0.6102   0.1721   0.0
Er26     Er     0.3898   0.1721   0.0
Er27     Er     0.5   0.3279   0.8898
Er28     Er     0.5   0.3279   0.1102
Er29     Er     0.1721   0.0   0.6102
Er30     Er     0.1721   0.0   0.3898
Er31     Er     0.3279   0.8898   0.5
Er32     Er     0.3279   0.1102   0.5
V33     V     0.0   0.1783   0.1102
V34     V     0.1102   0.0   0.1783
V35     V     0.1783   0.1102   0.0
V36     V     0.8898   0.0   0.1783
V37     V     0.1783   0.8898   0.0
V38     V     0.0   0.1783   0.8898
V39     V     0.0   0.8217   0.1102
V40     V     0.0   0.8217   0.8898
V41     V     0.1102   0.0   0.8217
V42     V     0.8898   0.0   0.8217
V43     V     0.8217   0.1102   0.0
V44     V     0.8217   0.8898   0.0
Er45     Er     0.0   0.6102   0.1721
Er46     Er     0.0   0.3898   0.1721
Er47     Er     0.8898   0.5   0.3279
Er48     Er     0.1102   0.5   0.3279
loop_
_geom_bond_atom_site_label_1
_geom_bond_atom_site_label_2
_geom_bond_distance
_geom_bond_site_symmetry_2
_ccdc_geom_bond_type
V1     V3    10.0   .     S
V1     V2    10.0   .     S
V1     V6    10.0   .     S
V1     V12    10.0   .     S
V1     V5    10.0   .     S
V1     Er27    10.0   .     S
V2     V11    10.0   .     S
V2     V8    10.0   .     S
V2     V3    10.0   .     S
V2     V12    10.0   .     S
V2     Er32    10.0   .     S
V3     V5    10.0   .     S
V3     V7    10.0   .     S
V3     V8    10.0   .     S
V3     Er22    10.0   .     S
V4     V6    10.0   .     S
V4     V5    10.0   .     S
V4     V9    10.0   .     S
V4     V10    10.0   .     S
V4     V7    10.0   .     S
V4     Er19    10.0   .     S
V5     V7    10.0   .     S
V5     V6    10.0   .     S
V5     Er13    10.0   .     S
V6     V12    10.0   .     S
V6     V10    10.0   .     S
V6     Er21    10.0   .     S
V7     V9    10.0   .     S
V7     V8    10.0   .     S
V7     Er31    10.0   .     S
V8     V11    10.0   .     S
V8     V9    10.0   .     S
V8     Er48    10.0   .     S
V9     V10    10.0   .     S
V9     V11    10.0   .     S
V9     Er14    10.0   .     S
V10     V11    10.0   .     S
V10     V12    10.0   .     S
V10     Er47    10.0   .     S
V11     V12    10.0   .     S
V11     Er28    10.0   .     S
V12     Er20    10.0   .     S
Er13     Er14    10.0   1_556     S
Er13     Er15    10.0   1_556     S
Er13     Er16    10.0   1_556     S
Er14     Er13    10.0   1_554     S
Er14     Er15    10.0   .     S
Er14     Er16    10.0   .     S
Er15     Er13    10.0   1_554     S
Er15     Er16    10.0   .     S
Er15     V44    10.0   .     S
Er16     Er13    10.0   1_554     S
Er16     V37    10.0   .     S
Er17     Er18    10.0   .     S
Er17     Er19    10.0   1_545     S
Er17     Er20    10.0   .     S
Er17     V42    10.0   .     S
Er18     Er19    10.0   1_545     S
Er18     Er20    10.0   .     S
Er18     V36    10.0   .     S
Er19     Er18    10.0   1_565     S
Er19     Er20    10.0   1_565     S
Er19     Er17    10.0   1_565     S
Er20     Er19    10.0   1_545     S
Er21     Er22    10.0   1_655     S
Er21     Er23    10.0   1_655     S
Er21     Er24    10.0   1_655     S
Er22     Er21    10.0   1_455     S
Er22     Er23    10.0   .     S
Er22     Er24    10.0   .     S
Er23     Er21    10.0   1_455     S
Er23     Er24    10.0   .     S
Er23     V40    10.0   .     S
Er24     Er21    10.0   1_455     S
Er24     V38    10.0   .     S
Er25     Er26    10.0   .     S
Er25     Er28    10.0   .     S
Er25     Er27    10.0   1_554     S
Er25     V43    10.0   .     S
Er26     Er27    10.0   1_554     S
Er26     Er28    10.0   .     S
Er26     V35    10.0   .     S
Er27     Er28    10.0   1_556     S
Er27     Er25    10.0   1_556     S
Er27     Er26    10.0   1_556     S
Er28     Er27    10.0   1_554     S
Er29     Er30    10.0   .     S
Er29     Er31    10.0   1_545     S
Er29     Er32    10.0   .     S
Er29     V41    10.0   .     S
Er30     Er31    10.0   1_545     S
Er30     Er32    10.0   .     S
Er30     V34    10.0   .     S
Er31     Er32    10.0   1_565     S
Er31     Er29    10.0   1_565     S
Er31     Er30    10.0   1_565     S
Er32     Er31    10.0   1_545     S
V33     V36    10.0   1_455     S
V33     V43    10.0   1_455     S
V33     V34    10.0   .     S
V33     V35    10.0   .     S
V33     V38    10.0   1_554     S
V33     Er46    10.0   .     S
V34     V39    10.0   1_545     S
V34     V37    10.0   1_545     S
V34     V35    10.0   .     S
V34     V36    10.0   1_455     S
V35     V41    10.0   1_554     S
V35     V38    10.0   1_554     S
V35     V37    10.0   1_545     S
V36     V39    10.0   1_645     S
V36     V44    10.0   1_545     S
V36     V33    10.0   1_655     S
V36     V43    10.0   .     S
V36     V34    10.0   1_655     S
V37     V41    10.0   1_564     S
V37     V40    10.0   1_554     S
V37     V34    10.0   1_565     S
V37     V39    10.0   .     S
V37     V35    10.0   1_565     S
V38     V42    10.0   1_455     S
V38     V43    10.0   1_456     S
V38     V35    10.0   1_556     S
V38     V41    10.0   .     S
V38     V33    10.0   1_556     S
V39     V36    10.0   1_465     S
V39     V44    10.0   1_455     S
V39     V34    10.0   1_565     S
V39     V40    10.0   1_554     S
V39     Er45    10.0   .     S
V40     V42    10.0   1_465     S
V40     V44    10.0   1_456     S
V40     V37    10.0   1_556     S
V40     V41    10.0   1_565     S
V40     V39    10.0   1_556     S
V41     V37    10.0   1_546     S
V41     V40    10.0   1_545     S
V41     V35    10.0   1_556     S
V41     V42    10.0   1_455     S
V42     V40    10.0   1_645     S
V42     V44    10.0   1_546     S
V42     V38    10.0   1_655     S
V42     V43    10.0   1_556     S
V42     V41    10.0   1_655     S
V43     V38    10.0   1_654     S
V43     V42    10.0   1_554     S
V43     V33    10.0   1_655     S
V43     V44    10.0   1_545     S
V44     V42    10.0   1_564     S
V44     V40    10.0   1_654     S
V44     V36    10.0   1_565     S
V44     V39    10.0   1_655     S
V44     V43    10.0   1_565     S
Er45     Er46    10.0   .     S
Er45     Er47    10.0   1_455     S
Er45     Er48    10.0   .     S
Er46     Er47    10.0   1_455     S
Er46     Er48    10.0   .     S
Er47     Er48    10.0   1_655     S
Er47     Er45    10.0   1_655     S
Er47     Er46    10.0   1_655     S
Er48     Er47    10.0   1_455     S
