data_ithd
_audit_creation_date              2020-02-02
_audit_creation_method            'Pymatgen'
_symmetry_space_group_name_H-M    'P1'
_symmetry_Int_Tables_number       1
loop_
_symmetry_equiv_pos_as_xyz
  x,y,z
_cell_length_a                    26.1204
_cell_length_b                    26.1204
_cell_length_c                    26.1204
_cell_angle_alpha                 90.0
_cell_angle_beta                 90.0
_cell_angle_gamma                 90.0
loop_
_atom_site_label
_atom_site_type_symbol
_atom_site_fract_x
_atom_site_fract_y
_atom_site_fract_z
V1     V     0.75   0.25   0.25
V2     V     0.25   0.75   0.25
V3     V     0.25   0.25   0.75
Er4     Er     0.75   0.0   0.5
V5     V     0.75   0.25   0.75
Er6     Er     0.5   0.25   0.0
Er7     Er     0.5   0.75   0.0
Er8     Er     0.0   0.5   0.75
V9     V     0.25   0.75   0.75
Er10     Er     0.25   0.0   0.5
V11     V     0.75   0.75   0.25
V12     V     0.25   0.25   0.25
Er13     Er     0.0   0.5   0.25
V14     V     0.75   0.75   0.75
loop_
_geom_bond_atom_site_label_1
_geom_bond_atom_site_label_2
_geom_bond_distance
_geom_bond_site_symmetry_2
_ccdc_geom_bond_type
V1     Er6    9.235   .     S
V1     Er4    9.235   .     S
V1     Er13    9.235   1_655     S
V2     Er13    9.235   .     S
V2     Er7    9.235   .     S
V2     Er10    9.235   1_565     S
V3     Er10    9.235   .     S
V3     Er8    9.235   .     S
V3     Er6    9.235   1_556     S
Er4     Er10    13.06   .     S
Er4     Er10    13.06   1_655     S
Er4     V11    9.235   1_545     S
Er4     V14    9.235   1_545     S
Er4     V5    9.235   .     S
V5     Er6    9.235   1_556     S
V5     Er8    9.235   1_655     S
Er6     Er7    13.06   .     S
Er6     Er7    13.06   1_545     S
Er6     V5    9.235   1_554     S
Er6     V3    9.235   1_554     S
Er6     V12    9.235   .     S
Er7     Er6    13.06   1_565     S
Er7     V9    9.235   1_554     S
Er7     V14    9.235   1_554     S
Er7     V11    9.235   .     S
Er8     Er13    13.06   .     S
Er8     Er13    13.06   1_556     S
Er8     V5    9.235   1_455     S
Er8     V14    9.235   1_455     S
Er8     V9    9.235   .     S
V9     Er7    9.235   1_556     S
V9     Er10    9.235   1_565     S
Er10     Er4    13.06   1_455     S
Er10     V9    9.235   1_545     S
Er10     V2    9.235   1_545     S
Er10     V12    9.235   .     S
V11     Er4    9.235   1_565     S
V11     Er13    9.235   1_655     S
V12     Er13    9.235   .     S
Er13     Er8    13.06   1_554     S
Er13     V11    9.235   1_455     S
Er13     V1    9.235   1_455     S
V14     Er4    9.235   1_565     S
V14     Er7    9.235   1_556     S
V14     Er8    9.235   1_655     S
