data_ithe
_audit_creation_date              2020-02-02
_audit_creation_method            'Pymatgen'
_symmetry_space_group_name_H-M    'P1'
_symmetry_Int_Tables_number       1
loop_
_symmetry_equiv_pos_as_xyz
  x,y,z
_cell_length_a                    27.9543
_cell_length_b                    27.9543
_cell_length_c                    27.9543
_cell_angle_alpha                 90.0
_cell_angle_beta                 90.0
_cell_angle_gamma                 90.0
loop_
_atom_site_label
_atom_site_type_symbol
_atom_site_fract_x
_atom_site_fract_y
_atom_site_fract_z
V1     V     0.8356   0.0   0.7006
V2     V     0.1644   0.0   0.7006
V3     V     0.8356   0.0   0.2994
V4     V     0.1644   0.0   0.2994
V5     V     0.3356   0.7994   0.5
V6     V     0.6644   0.7994   0.5
V7     V     0.3356   0.2006   0.5
V8     V     0.6644   0.2006   0.5
V9     V     0.0   0.7006   0.8356
V10     V     0.0   0.7006   0.1644
V11     V     0.0   0.2994   0.8356
V12     V     0.0   0.2994   0.1644
V13     V     0.2006   0.5   0.3356
V14     V     0.2006   0.5   0.6644
V15     V     0.7994   0.5   0.3356
V16     V     0.7994   0.5   0.6644
V17     V     0.7006   0.8356   0.0
V18     V     0.7006   0.1644   0.0
V19     V     0.2994   0.8356   0.0
V20     V     0.2994   0.1644   0.0
V21     V     0.5   0.3356   0.2006
V22     V     0.5   0.6644   0.2006
V23     V     0.5   0.6644   0.7994
V24     V     0.5   0.3356   0.7994
loop_
_geom_bond_atom_site_label_1
_geom_bond_atom_site_label_2
_geom_bond_distance
_geom_bond_site_symmetry_2
_ccdc_geom_bond_type
V1     V3    11.214   .     S
V1     V2    9.193   1_655     S
V1     V9    10.268   1_645     S
V1     V11    10.268   1_655     S
V1     V18    10.268   1_556     S
V1     V17    10.268   1_546     S
V1     V6    9.261   1_545     S
V1     V8    9.261   .     S
V2     V4    11.214   .     S
V2     V1    9.193   1_455     S
V2     V9    10.268   1_545     S
V2     V11    10.268   .     S
V2     V19    10.268   1_546     S
V2     V20    10.268   1_556     S
V2     V5    9.261   1_545     S
V2     V7    9.261   .     S
V3     V4    9.193   1_655     S
V3     V10    10.268   1_645     S
V3     V12    10.268   1_655     S
V3     V17    10.268   1_545     S
V3     V18    10.268   .     S
V3     V6    9.261   1_545     S
V3     V8    9.261   .     S
V4     V3    9.193   1_455     S
V4     V10    10.268   1_545     S
V4     V12    10.268   .     S
V4     V20    10.268   .     S
V4     V19    10.268   1_545     S
V4     V5    9.261   1_545     S
V4     V7    9.261   .     S
V5     V7    11.214   1_565     S
V5     V6    9.193   .     S
V5     V23    10.268   .     S
V5     V22    10.268   .     S
V5     V14    10.268   .     S
V5     V13    10.268   .     S
V5     V2    9.261   1_565     S
V5     V4    9.261   1_565     S
V6     V8    11.214   1_565     S
V6     V23    10.268   .     S
V6     V22    10.268   .     S
V6     V15    10.268   .     S
V6     V16    10.268   .     S
V6     V3    9.261   1_565     S
V6     V1    9.261   1_565     S
V7     V5    11.214   1_545     S
V7     V8    9.193   .     S
V7     V21    10.268   .     S
V7     V24    10.268   .     S
V7     V13    10.268   .     S
V7     V14    10.268   .     S
V8     V6    11.214   1_545     S
V8     V21    10.268   .     S
V8     V24    10.268   .     S
V8     V16    10.268   .     S
V8     V15    10.268   .     S
V9     V11    11.214   .     S
V9     V10    9.193   1_556     S
V9     V2    10.268   1_565     S
V9     V1    10.268   1_465     S
V9     V17    10.268   1_456     S
V9     V19    10.268   1_556     S
V9     V16    9.261   1_455     S
V9     V14    9.261   .     S
V10     V12    11.214   .     S
V10     V9    9.193   1_554     S
V10     V3    10.268   1_465     S
V10     V4    10.268   1_565     S
V10     V17    10.268   1_455     S
V10     V19    10.268   .     S
V10     V15    9.261   1_455     S
V10     V13    9.261   .     S
V11     V12    9.193   1_556     S
V11     V1    10.268   1_455     S
V11     V18    10.268   1_456     S
V11     V20    10.268   1_556     S
V11     V16    9.261   1_455     S
V11     V14    9.261   .     S
V12     V11    9.193   1_554     S
V12     V3    10.268   1_455     S
V12     V18    10.268   1_455     S
V12     V20    10.268   .     S
V12     V15    9.261   1_455     S
V12     V13    9.261   .     S
V13     V15    11.214   1_455     S
V13     V14    9.193   .     S
V13     V21    10.268   .     S
V13     V22    10.268   .     S
V14     V16    11.214   1_455     S
V14     V23    10.268   .     S
V14     V24    10.268   .     S
V15     V13    11.214   1_655     S
V15     V16    9.193   .     S
V15     V22    10.268   .     S
V15     V21    10.268   .     S
V15     V10    9.261   1_655     S
V15     V12    9.261   1_655     S
V16     V14    11.214   1_655     S
V16     V24    10.268   .     S
V16     V23    10.268   .     S
V16     V11    9.261   1_655     S
V16     V9    9.261   1_655     S
V17     V19    11.214   .     S
V17     V18    9.193   1_565     S
V17     V10    10.268   1_655     S
V17     V9    10.268   1_654     S
V17     V1    10.268   1_564     S
V17     V3    10.268   1_565     S
V17     V23    9.261   1_554     S
V17     V22    9.261   .     S
V18     V20    11.214   .     S
V18     V17    9.193   1_545     S
V18     V11    10.268   1_654     S
V18     V12    10.268   1_655     S
V18     V1    10.268   1_554     S
V18     V24    9.261   1_554     S
V18     V21    9.261   .     S
V19     V20    9.193   1_565     S
V19     V9    10.268   1_554     S
V19     V2    10.268   1_564     S
V19     V4    10.268   1_565     S
V19     V23    9.261   1_554     S
V19     V22    9.261   .     S
V20     V19    9.193   1_545     S
V20     V11    10.268   1_554     S
V20     V2    10.268   1_554     S
V20     V24    9.261   1_554     S
V20     V21    9.261   .     S
V21     V24    11.214   1_554     S
V21     V22    9.193   .     S
V22     V23    11.214   1_554     S
V23     V22    11.214   1_556     S
V23     V24    9.193   .     S
V23     V19    9.261   1_556     S
V23     V17    9.261   1_556     S
V24     V21    11.214   1_556     S
V24     V18    9.261   1_556     S
V24     V20    9.261   1_556     S
