data_jea
_audit_creation_date              2020-02-02
_audit_creation_method            'Pymatgen'
_symmetry_space_group_name_H-M    'P1'
_symmetry_Int_Tables_number       1
loop_
_symmetry_equiv_pos_as_xyz
  x,y,z
_cell_length_a                    38.2854
_cell_length_b                    16.0449
_cell_length_c                    26.1878
_cell_angle_alpha                 90.0
_cell_angle_beta                 90.0
_cell_angle_gamma                 90.0
loop_
_atom_site_label
_atom_site_type_symbol
_atom_site_fract_x
_atom_site_fract_y
_atom_site_fract_z
Er1     Er     0.78   0.0   0.8132
V2     V     0.6306   0.0   0.5
Er3     Er     0.72   0.5   0.3132
V4     V     0.8694   0.5   0.0
Er5     Er     0.28   0.5   0.3132
V6     V     0.1306   0.5   0.0
Er7     Er     0.22   0.0   0.8132
V8     V     0.3694   0.0   0.5
loop_
_geom_bond_atom_site_label_1
_geom_bond_atom_site_label_2
_geom_bond_distance
_geom_bond_site_symmetry_2
_ccdc_geom_bond_type
Er1     V2    10.0   .     S
Er1     V4    10.0   1_546     S
Er1     V4    10.0   1_556     S
V2     Er3    10.0   1_545     S
V2     Er3    10.0   .     S
V2     V8    10.0   .     S
Er3     V2    10.0   1_565     S
Er3     V4    10.0   .     S
V4     Er1    10.0   1_564     S
V4     Er1    10.0   1_554     S
V4     V6    10.0   1_655     S
Er5     V6    10.0   .     S
Er5     V8    10.0   .     S
Er5     V8    10.0   1_565     S
V6     Er7    10.0   1_554     S
V6     Er7    10.0   1_564     S
V6     V4    10.0   1_455     S
Er7     V6    10.0   1_556     S
Er7     V6    10.0   1_546     S
Er7     V8    10.0   .     S
V8     Er5    10.0   1_545     S
