data_jsd
_audit_creation_date              2020-02-02
_audit_creation_method            'Pymatgen'
_symmetry_space_group_name_H-M    'P1'
_symmetry_Int_Tables_number       1
loop_
_symmetry_equiv_pos_as_xyz
  x,y,z
_cell_length_a                    21.5341
_cell_length_b                    56.7753
_cell_length_c                    18.1231
_cell_angle_alpha                 90.0
_cell_angle_beta                 90.0
_cell_angle_gamma                 90.0
loop_
_atom_site_label
_atom_site_type_symbol
_atom_site_fract_x
_atom_site_fract_y
_atom_site_fract_z
Er1     Er     0.75   0.9519   0.0
Ti2     Ti     0.365   0.899   0.2603
Ti3     Ti     0.135   0.899   0.7397
V4     V     0.25   0.75   0.0
Er5     Er     0.75   0.5481   0.0
Ti6     Ti     0.135   0.601   0.2603
Ti7     Ti     0.365   0.601   0.7397
Er8     Er     0.25   0.0481   0.0
Ti9     Ti     0.865   0.101   0.2603
Ti10     Ti     0.635   0.101   0.7397
V11     V     0.75   0.25   0.0
Er12     Er     0.25   0.4519   0.0
Ti13     Ti     0.635   0.399   0.2603
Ti14     Ti     0.865   0.399   0.7397
loop_
_geom_bond_atom_site_label_1
_geom_bond_atom_site_label_2
_geom_bond_distance
_geom_bond_site_symmetry_2
_ccdc_geom_bond_type
Er1     Ti3    10.0   1_654     S
Er1     Ti2    10.0   .     S
Er1     Ti9    10.0   1_565     S
Er1     Ti10    10.0   1_564     S
Ti2     Er8    10.0   1_565     S
Ti2     Ti3    10.0   .     S
Ti2     V4    10.0   .     S
Ti3     Er1    10.0   1_456     S
Ti3     Er8    10.0   1_566     S
Ti3     V4    10.0   1_556     S
V4     Ti6    10.0   .     S
V4     Ti7    10.0   1_554     S
V4     Ti3    10.0   1_554     S
Er5     Ti6    10.0   1_655     S
Er5     Ti7    10.0   1_554     S
Er5     Ti13    10.0   .     S
Er5     Ti14    10.0   1_554     S
Ti6     Er5    10.0   1_455     S
Ti6     Er12    10.0   .     S
Ti6     Ti7    10.0   .     S
Ti7     V4    10.0   1_556     S
Ti7     Er5    10.0   1_556     S
Ti7     Er12    10.0   1_556     S
Er8     Ti2    10.0   1_545     S
Er8     Ti3    10.0   1_544     S
Er8     Ti9    10.0   1_455     S
Er8     Ti10    10.0   1_554     S
Ti9     Er8    10.0   1_655     S
Ti9     Er1    10.0   1_545     S
Ti9     Ti10    10.0   .     S
Ti9     V11    10.0   .     S
Ti10     Er8    10.0   1_556     S
Ti10     Er1    10.0   1_546     S
Ti10     V11    10.0   1_556     S
V11     Ti10    10.0   1_554     S
V11     Ti14    10.0   1_554     S
V11     Ti13    10.0   .     S
Er12     Ti7    10.0   1_554     S
Er12     Ti13    10.0   .     S
Er12     Ti14    10.0   1_454     S
Ti13     Ti14    10.0   .     S
Ti14     V11    10.0   1_556     S
Ti14     Er12    10.0   1_656     S
Ti14     Er5    10.0   1_556     S
