data_jst
_audit_creation_date              2020-02-02
_audit_creation_method            'Pymatgen'
_symmetry_space_group_name_H-M    'P1'
_symmetry_Int_Tables_number       1
loop_
_symmetry_equiv_pos_as_xyz
  x,y,z
_cell_length_a                    52.9574
_cell_length_b                    52.9574
_cell_length_c                    52.9574
_cell_angle_alpha                 90.0
_cell_angle_beta                 90.0
_cell_angle_gamma                 90.0
loop_
_atom_site_label
_atom_site_type_symbol
_atom_site_fract_x
_atom_site_fract_y
_atom_site_fract_z
V1     V     0.647   0.4668   0.3862
Er2     Er     0.6687   0.2801   0.368
V3     V     0.5332   0.6138   0.353
Er4     Er     0.7199   0.632   0.3313
V5     V     0.3862   0.647   0.4668
Er6     Er     0.368   0.6687   0.2801
V7     V     0.353   0.5332   0.6138
Er8     Er     0.3313   0.7199   0.632
V9     V     0.6138   0.353   0.5332
Er10     Er     0.632   0.3313   0.7199
V11     V     0.4668   0.3862   0.647
Er12     Er     0.2801   0.368   0.6687
V13     V     0.8862   0.647   0.0332
Er14     Er     0.868   0.6687   0.2199
V15     V     0.9668   0.3862   0.853
Er16     Er     0.7801   0.368   0.8313
V17     V     0.853   0.5332   0.8862
Er18     Er     0.8313   0.7199   0.868
V19     V     0.1138   0.353   0.9668
Er20     Er     0.132   0.3313   0.7801
V21     V     0.0332   0.6138   0.147
Er22     Er     0.2199   0.632   0.1687
V23     V     0.147   0.4668   0.1138
Er24     Er     0.1687   0.2801   0.132
V25     V     0.647   0.0332   0.8862
Er26     Er     0.6687   0.2199   0.868
V27     V     0.3862   0.853   0.9668
Er28     Er     0.368   0.8313   0.7801
V29     V     0.5332   0.8862   0.853
Er30     Er     0.7199   0.868   0.8313
V31     V     0.353   0.9668   0.1138
Er32     Er     0.3313   0.7801   0.132
V33     V     0.6138   0.147   0.0332
Er34     Er     0.632   0.1687   0.2199
V35     V     0.4668   0.1138   0.147
Er36     Er     0.2801   0.132   0.1687
V37     V     0.0332   0.8862   0.647
Er38     Er     0.2199   0.868   0.6687
V39     V     0.853   0.9668   0.3862
Er40     Er     0.8313   0.7801   0.368
V41     V     0.8862   0.853   0.5332
Er42     Er     0.868   0.8313   0.7199
V43     V     0.9668   0.1138   0.353
Er44     Er     0.7801   0.132   0.3313
V45     V     0.147   0.0332   0.6138
Er46     Er     0.1687   0.2199   0.632
V47     V     0.1138   0.147   0.4668
Er48     Er     0.132   0.1687   0.2801
loop_
_geom_bond_atom_site_label_1
_geom_bond_atom_site_label_2
_geom_bond_distance
_geom_bond_site_symmetry_2
_ccdc_geom_bond_type
V1     V9    10.0   .     S
V1     Er2    10.0   .     S
V1     V3    10.0   .     S
V1     Er4    10.0   .     S
Er2     Er34    10.0   .     S
Er2     Er44    10.0   .     S
Er2     V9    10.0   .     S
V3     Er4    10.0   .     S
V3     V5    10.0   .     S
V3     Er6    10.0   .     S
Er4     Er14    10.0   .     S
Er4     Er40    10.0   .     S
V5     Er6    10.0   .     S
V5     V7    10.0   .     S
V5     Er8    10.0   .     S
Er6     Er32    10.0   .     S
Er6     Er22    10.0   .     S
V7     Er8    10.0   .     S
V7     V11    10.0   .     S
V7     Er12    10.0   .     S
Er8     Er28    10.0   .     S
Er8     Er38    10.0   .     S
V9     V11    10.0   .     S
V9     Er10    10.0   .     S
Er10     Er26    10.0   .     S
Er10     Er16    10.0   .     S
Er10     V11    10.0   .     S
V11     Er12    10.0   .     S
Er12     Er20    10.0   .     S
Er12     Er46    10.0   .     S
V13     V21    10.0   1_655     S
V13     Er14    10.0   .     S
V13     V17    10.0   1_554     S
V13     Er18    10.0   1_554     S
Er14     Er40    10.0   .     S
Er14     V21    10.0   1_655     S
V15     V17    10.0   .     S
V15     Er16    10.0   .     S
V15     V19    10.0   1_655     S
V15     Er20    10.0   1_655     S
Er16     Er26    10.0   .     S
Er16     V17    10.0   .     S
V17     V13    10.0   1_556     S
V17     Er18    10.0   .     S
Er18     Er42    10.0   .     S
Er18     Er30    10.0   .     S
Er18     V13    10.0   1_556     S
V19     V15    10.0   1_455     S
V19     Er20    10.0   .     S
V19     V23    10.0   1_556     S
V19     Er24    10.0   1_556     S
Er20     Er46    10.0   .     S
Er20     V15    10.0   1_455     S
V21     V13    10.0   1_455     S
V21     Er14    10.0   1_455     S
V21     V23    10.0   .     S
V21     Er22    10.0   .     S
Er22     Er32    10.0   .     S
Er22     V23    10.0   .     S
V23     V19    10.0   1_554     S
V23     Er24    10.0   .     S
Er24     V19    10.0   1_554     S
Er24     Er48    10.0   .     S
Er24     Er36    10.0   .     S
V25     V33    10.0   1_556     S
V25     Er26    10.0   .     S
V25     V29    10.0   1_545     S
V25     Er30    10.0   1_545     S
Er26     V33    10.0   1_556     S
V27     V29    10.0   .     S
V27     Er28    10.0   .     S
V27     V31    10.0   1_556     S
V27     Er32    10.0   1_556     S
Er28     Er38    10.0   .     S
Er28     V29    10.0   .     S
V29     V25    10.0   1_565     S
V29     Er30    10.0   .     S
Er30     Er42    10.0   .     S
Er30     V25    10.0   1_565     S
V31     V27    10.0   1_554     S
V31     Er32    10.0   .     S
V31     V35    10.0   1_565     S
V31     Er36    10.0   1_565     S
Er32     V27    10.0   1_554     S
V33     V25    10.0   1_554     S
V33     Er26    10.0   1_554     S
V33     V35    10.0   .     S
V33     Er34    10.0   .     S
Er34     Er44    10.0   .     S
Er34     V35    10.0   .     S
V35     V31    10.0   1_545     S
V35     Er36    10.0   .     S
Er36     V31    10.0   1_545     S
Er36     Er48    10.0   .     S
V37     V45    10.0   1_565     S
V37     Er38    10.0   .     S
V37     V41    10.0   1_455     S
V37     Er42    10.0   1_455     S
Er38     V45    10.0   1_565     S
V39     V41    10.0   .     S
V39     Er40    10.0   .     S
V39     V43    10.0   1_565     S
V39     Er44    10.0   1_565     S
Er40     V41    10.0   .     S
V41     V37    10.0   1_655     S
V41     Er42    10.0   .     S
Er42     V37    10.0   1_655     S
V43     V39    10.0   1_545     S
V43     Er44    10.0   .     S
V43     V47    10.0   1_655     S
V43     Er48    10.0   1_655     S
Er44     V39    10.0   1_545     S
V45     V37    10.0   1_545     S
V45     Er38    10.0   1_545     S
V45     V47    10.0   .     S
V45     Er46    10.0   .     S
Er46     V47    10.0   .     S
V47     V43    10.0   1_455     S
V47     Er48    10.0   .     S
Er48     V43    10.0   1_455     S
