data_jusa
_audit_creation_date              2020-02-02
_audit_creation_method            'Pymatgen'
_symmetry_space_group_name_H-M    'P1'
_symmetry_Int_Tables_number       1
loop_
_symmetry_equiv_pos_as_xyz
  x,y,z
_cell_length_a                    59.0855
_cell_length_b                    74.5776
_cell_length_c                    42.4916
_cell_angle_alpha                 90.0
_cell_angle_beta                 90.0
_cell_angle_gamma                 90.0
loop_
_atom_site_label
_atom_site_type_symbol
_atom_site_fract_x
_atom_site_fract_y
_atom_site_fract_z
V1     V     0.8683   0.3379   0.3677
V2     V     0.8683   0.3379   0.1323
Ti3     Ti     0.8196   0.4471   0.25
Er4     Er     0.7219   0.3374   0.25
V5     V     0.1317   0.3379   0.3677
V6     V     0.1317   0.3379   0.1323
Ti7     Ti     0.1804   0.4471   0.25
Er8     Er     0.2781   0.3374   0.25
H9     H     0.9154   0.4421   0.75
H10     H     0.0846   0.4421   0.75
S11     S     0.9155   0.3419   0.5937
S12     S     0.0845   0.3419   0.5937
Ce13     Ce     0.0847   0.2416   0.75
Ce14     Ce     0.9153   0.2416   0.75
S15     S     0.9155   0.3419   0.9063
S16     S     0.0845   0.3419   0.9063
V17     V     0.1317   0.6621   0.6323
V18     V     0.1317   0.6621   0.8677
Ti19     Ti     0.1804   0.5529   0.75
Er20     Er     0.2781   0.6626   0.75
V21     V     0.8683   0.6621   0.8677
V22     V     0.8683   0.6621   0.6323
Ti23     Ti     0.8196   0.5529   0.75
Er24     Er     0.7219   0.6626   0.75
H25     H     0.9154   0.5579   0.25
H26     H     0.0846   0.5579   0.25
S27     S     0.9155   0.6581   0.0937
S28     S     0.0845   0.6581   0.0937
S29     S     0.9155   0.6581   0.4063
S30     S     0.0845   0.6581   0.4063
Ce31     Ce     0.0847   0.7584   0.25
Ce32     Ce     0.9153   0.7584   0.25
V33     V     0.6317   0.1621   0.6323
V34     V     0.6317   0.1621   0.8677
Ti35     Ti     0.6804   0.0529   0.75
Er36     Er     0.7781   0.1626   0.75
V37     V     0.3683   0.1621   0.8677
V38     V     0.3683   0.1621   0.6323
Ti39     Ti     0.3196   0.0529   0.75
Er40     Er     0.2219   0.1626   0.75
H41     H     0.5846   0.0579   0.25
H42     H     0.4154   0.0579   0.25
S43     S     0.5845   0.1581   0.4063
S44     S     0.4155   0.1581   0.4063
Ce45     Ce     0.5847   0.2584   0.25
S46     S     0.5845   0.1581   0.0937
S47     S     0.4155   0.1581   0.0937
Ce48     Ce     0.4153   0.2584   0.25
V49     V     0.3683   0.8379   0.3677
V50     V     0.3683   0.8379   0.1323
Ti51     Ti     0.3196   0.9471   0.25
Er52     Er     0.2219   0.8374   0.25
V53     V     0.6317   0.8379   0.1323
V54     V     0.6317   0.8379   0.3677
Ti55     Ti     0.6804   0.9471   0.25
Er56     Er     0.7781   0.8374   0.25
H57     H     0.5846   0.9421   0.75
H58     H     0.4154   0.9421   0.75
S59     S     0.5845   0.8419   0.9063
S60     S     0.4155   0.8419   0.9063
S61     S     0.5845   0.8419   0.5937
S62     S     0.4155   0.8419   0.5937
Ce63     Ce     0.5847   0.7416   0.75
Ce64     Ce     0.4153   0.7416   0.75
loop_
_geom_bond_atom_site_label_1
_geom_bond_atom_site_label_2
_geom_bond_distance
_geom_bond_site_symmetry_2
_ccdc_geom_bond_type
V1     Er4    9.991   .     S
V1     Ti3    9.983   .     S
V1     V2    10.0   .     S
V1     S11    10.006   .     S
V2     Er4    9.991   .     S
V2     Ti3    9.983   .     S
V2     S15    10.006   1_554     S
Ti3     Er4    10.012   .     S
Ti3     H25    10.013   .     S
Er4     Ce45    10.024   .     S
V5     Er8    9.991   .     S
V5     Ti7    9.983   .     S
V5     V6    10.0   .     S
V5     S12    10.006   .     S
V6     Er8    9.991   .     S
V6     Ti7    9.983   .     S
V6     S16    10.006   1_554     S
Ti7     Er8    10.012   .     S
Ti7     H26    10.013   .     S
Er8     Ce48    10.024   .     S
H9     H10    10.0   1_655     S
H9     S15    10.0   .     S
H9     S11    10.0   .     S
H9     Ti23    10.013   .     S
H10     H9    10.0   1_455     S
H10     S12    10.0   .     S
H10     S16    10.0   .     S
H10     Ti19    10.013   .     S
S11     S12    9.989   1_655     S
S11     Ce14    9.999   .     S
S12     S11    9.989   1_455     S
S12     Ce13    9.999   .     S
Ce13     S16    9.999   .     S
Ce13     Ce14    10.01   1_455     S
Ce13     Er40    10.024   .     S
Ce14     S15    9.999   .     S
Ce14     Ce13    10.01   1_655     S
Ce14     Er36    10.024   .     S
S15     S16    9.989   1_655     S
S15     V2    10.006   1_556     S
S16     S15    9.989   1_455     S
S16     V6    10.006   1_556     S
V17     Er20    9.991   .     S
V17     Ti19    9.983   .     S
V17     V18    10.0   .     S
V17     S30    10.006   .     S
V18     Er20    9.991   .     S
V18     Ti19    9.983   .     S
V18     S28    10.006   1_556     S
Ti19     Er20    10.012   .     S
Er20     Ce64    10.024   .     S
V21     Er24    9.991   .     S
V21     Ti23    9.983   .     S
V21     V22    10.0   .     S
V21     S27    10.006   1_556     S
V22     Er24    9.991   .     S
V22     Ti23    9.983   .     S
V22     S29    10.006   .     S
Ti23     Er24    10.012   .     S
Er24     Ce63    10.024   .     S
H25     H26    10.0   1_655     S
H25     S29    10.0   .     S
H25     S27    10.0   .     S
H26     H25    10.0   1_455     S
H26     S28    10.0   .     S
H26     S30    10.0   .     S
S27     S28    9.989   1_655     S
S27     Ce32    9.999   .     S
S27     V21    10.006   1_554     S
S28     S27    9.989   1_455     S
S28     Ce31    9.999   .     S
S28     V18    10.006   1_554     S
S29     S30    9.989   1_655     S
S29     Ce32    9.999   .     S
S30     S29    9.989   1_455     S
S30     Ce31    9.999   .     S
Ce31     Ce32    10.01   1_455     S
Ce31     Er52    10.024   .     S
Ce32     Ce31    10.01   1_655     S
Ce32     Er56    10.024   .     S
V33     Er36    9.991   .     S
V33     Ti35    9.983   .     S
V33     V34    10.0   .     S
V33     S43    10.006   .     S
V34     Er36    9.991   .     S
V34     Ti35    9.983   .     S
V34     S46    10.006   1_556     S
Ti35     Er36    10.012   .     S
Ti35     H57    10.013   1_545     S
V37     Er40    9.991   .     S
V37     Ti39    9.983   .     S
V37     V38    10.0   .     S
V37     S47    10.006   1_556     S
V38     Er40    9.991   .     S
V38     Ti39    9.983   .     S
V38     S44    10.006   .     S
Ti39     Er40    10.012   .     S
Ti39     H58    10.013   1_545     S
H41     H42    10.0   .     S
H41     S46    10.0   .     S
H41     S43    10.0   .     S
H41     Ti55    10.013   1_545     S
H42     S44    10.0   .     S
H42     S47    10.0   .     S
H42     Ti51    10.013   1_545     S
S43     S44    9.989   .     S
S43     Ce45    9.999   .     S
S44     Ce48    9.999   .     S
Ce45     S46    9.999   .     S
Ce45     Ce48    10.01   .     S
S46     S47    9.989   .     S
S46     V34    10.006   1_554     S
S47     Ce48    9.999   .     S
S47     V37    10.006   1_554     S
V49     Er52    9.991   .     S
V49     Ti51    9.983   .     S
V49     V50    10.0   .     S
V49     S62    10.006   .     S
V50     Er52    9.991   .     S
V50     Ti51    9.983   .     S
V50     S60    10.006   1_554     S
Ti51     H42    10.013   1_565     S
Ti51     Er52    10.012   .     S
V53     Er56    9.991   .     S
V53     Ti55    9.983   .     S
V53     V54    10.0   .     S
V53     S59    10.006   1_554     S
V54     Er56    9.991   .     S
V54     Ti55    9.983   .     S
V54     S61    10.006   .     S
Ti55     Er56    10.012   .     S
Ti55     H41    10.013   1_565     S
H57     Ti35    10.013   1_565     S
H57     H58    10.0   .     S
H57     S61    10.0   .     S
H57     S59    10.0   .     S
H58     Ti39    10.013   1_565     S
H58     S60    10.0   .     S
H58     S62    10.0   .     S
S59     S60    9.989   .     S
S59     Ce63    9.999   .     S
S59     V53    10.006   1_556     S
S60     Ce64    9.999   .     S
S60     V50    10.006   1_556     S
S61     S62    9.989   .     S
S61     Ce63    9.999   .     S
S62     Ce64    9.999   .     S
Ce63     Ce64    10.01   .     S
