data_jwj
_audit_creation_date              2020-02-02
_audit_creation_method            'Pymatgen'
_symmetry_space_group_name_H-M    'P1'
_symmetry_Int_Tables_number       1
loop_
_symmetry_equiv_pos_as_xyz
  x,y,z
_cell_length_a                    43.8196
_cell_length_b                    20.0001
_cell_length_c                    42.4723
_cell_angle_alpha                 90.0
_cell_angle_beta                 90.0
_cell_angle_gamma                 90.0
loop_
_atom_site_label
_atom_site_type_symbol
_atom_site_fract_x
_atom_site_fract_y
_atom_site_fract_z
V1     V     0.75   0.375   0.25
V2     V     0.25   0.375   0.25
Er3     Er     0.8859   0.375   0.602
Er4     Er     0.8859   0.625   0.398
Er5     Er     0.1141   0.625   0.398
Er6     Er     0.1141   0.375   0.602
Ti7     Ti     0.8859   0.125   0.398
Ti8     Ti     0.1141   0.125   0.398
Ti9     Ti     0.8859   0.875   0.602
Ti10     Ti     0.1141   0.875   0.602
V11     V     0.75   0.625   0.75
V12     V     0.25   0.625   0.75
Er13     Er     0.6141   0.625   0.102
Er14     Er     0.6141   0.375   0.898
Er15     Er     0.3859   0.375   0.898
Er16     Er     0.3859   0.625   0.1019
Ti17     Ti     0.3859   0.125   0.102
Ti18     Ti     0.6141   0.125   0.102
Ti19     Ti     0.3859   0.875   0.898
Ti20     Ti     0.6141   0.875   0.898
loop_
_geom_bond_atom_site_label_1
_geom_bond_atom_site_label_2
_geom_bond_distance
_geom_bond_site_symmetry_2
_ccdc_geom_bond_type
V1     Ti18    10.0   .     S
V1     Ti7    10.0   .     S
V1     Er4    10.0   .     S
V1     Er13    10.0   .     S
V2     Ti8    10.0   .     S
V2     Ti17    10.0   .     S
V2     Er5    10.0   .     S
V2     Er16    10.0   .     S
Er3     V11    10.0   .     S
Er3     Er4    10.0   .     S
Er3     Ti9    10.0   .     S
Er3     Ti7    10.0   .     S
Er3     Ti9    10.0   1_545     S
Er3     Er6    10.001   1_655     S
Er4     Ti9    10.0   .     S
Er4     Ti7    10.0   .     S
Er4     Ti7    10.0   1_565     S
Er4     Er5    10.001   1_655     S
Er5     Er6    10.0   .     S
Er5     Ti8    10.0   .     S
Er5     Ti10    10.0   .     S
Er5     Ti8    10.0   1_565     S
Er5     Er4    10.001   1_455     S
Er6     V12    10.0   .     S
Er6     Ti8    10.0   .     S
Er6     Ti10    10.0   .     S
Er6     Ti10    10.0   1_545     S
Er6     Er3    10.001   1_455     S
Ti7     Ti8    10.0   1_655     S
Ti7     Ti9    10.0   1_545     S
Ti7     Er4    10.0   1_545     S
Ti8     Ti7    10.0   1_455     S
Ti8     Er5    10.0   1_545     S
Ti8     Ti10    10.0   1_545     S
Ti9     Ti10    10.0   1_655     S
Ti9     Ti7    10.0   1_565     S
Ti9     Er3    10.0   1_565     S
Ti9     V11    10.0   .     S
Ti10     Ti9    10.0   1_455     S
Ti10     Ti8    10.0   1_565     S
Ti10     Er6    10.0   1_565     S
Ti10     V12    10.0   .     S
V11     Ti20    10.0   .     S
V11     Er14    10.0   .     S
V12     Ti19    10.0   .     S
V12     Er15    10.0   .     S
Er13     Er14    10.0   1_554     S
Er13     Ti20    10.0   1_554     S
Er13     Ti18    10.0   .     S
Er13     Ti18    10.0   1_565     S
Er13     Er16    10.001   .     S
Er14     Er13    10.0   1_556     S
Er14     Ti20    10.0   .     S
Er14     Ti20    10.0   1_545     S
Er14     Ti18    10.0   1_556     S
Er14     Er15    10.001   .     S
Er15     Er16    10.0   1_556     S
Er15     Ti19    10.0   .     S
Er15     Ti19    10.0   1_545     S
Er15     Ti17    10.0   1_556     S
Er16     Er15    10.0   1_554     S
Er16     Ti19    10.0   1_554     S
Er16     Ti17    10.0   .     S
Er16     Ti17    10.0   1_565     S
Ti17     Ti18    10.0   .     S
Ti17     Ti19    10.0   1_544     S
Ti17     Er15    10.0   1_554     S
Ti17     Er16    10.0   1_545     S
Ti18     Ti20    10.0   1_544     S
Ti18     Er14    10.0   1_554     S
Ti18     Er13    10.0   1_545     S
Ti19     Ti20    10.0   .     S
Ti19     Er16    10.0   1_556     S
Ti19     Ti17    10.0   1_566     S
Ti19     Er15    10.0   1_565     S
Ti20     Er13    10.0   1_556     S
Ti20     Ti18    10.0   1_566     S
Ti20     Er14    10.0   1_565     S
