data_kcza
_audit_creation_date              2020-02-02
_audit_creation_method            'Pymatgen'
_symmetry_space_group_name_H-M    'P1'
_symmetry_Int_Tables_number       1
loop_
_symmetry_equiv_pos_as_xyz
  x,y,z
_cell_length_a                    69.1849
_cell_length_b                    32.5231
_cell_length_c                    67.3916
_cell_angle_alpha                 90.0
_cell_angle_beta                 90.0
_cell_angle_gamma                 90.0
loop_
_atom_site_label
_atom_site_type_symbol
_atom_site_fract_x
_atom_site_fract_y
_atom_site_fract_z
V1     V     0.7037   0.6589   0.1862
V2     V     0.7037   0.3411   0.1862
V3     V     0.7963   0.6589   0.3138
V4     V     0.7963   0.3411   0.3138
V5     V     0.2037   0.6589   0.3138
V6     V     0.2037   0.3411   0.3138
V7     V     0.2963   0.6589   0.1862
V8     V     0.2963   0.3411   0.1862
V9     V     0.7037   0.8411   0.3138
V10     V     0.7037   0.1589   0.3138
V11     V     0.7963   0.8411   0.1862
V12     V     0.7963   0.1589   0.1862
V13     V     0.2037   0.8411   0.1862
V14     V     0.2037   0.1589   0.1862
V15     V     0.2963   0.8411   0.3138
V16     V     0.2963   0.1589   0.3138
H17     H     0.3738   0.3447   0.5771
H18     H     0.3738   0.3447   0.4229
H19     H     0.3738   0.8447   0.0771
H20     H     0.3738   0.1553   0.9229
H21     H     0.3738   0.8447   0.9229
H22     H     0.3738   0.1553   0.0771
H23     H     0.3738   0.6553   0.4229
Ce24     Ce     0.5   0.0   0.1816
S25     S     0.5   0.0   0.0492
Er26     Er     0.5   0.2163   0.4311
Ti27     Ti     0.5   0.1479   0.2983
Er28     Er     0.5   0.7837   0.4311
Ti29     Ti     0.5   0.8521   0.2983
Ce30     Ce     0.5   0.0   0.8184
S31     S     0.5   0.0   0.9508
Er32     Er     0.5   0.2163   0.5689
Ti33     Ti     0.5   0.1479   0.7017
Er34     Er     0.5   0.7837   0.5689
Ti35     Ti     0.5   0.8521   0.7017
Ce36     Ce     0.5   0.5   0.3184
S37     S     0.5   0.5   0.4508
Er38     Er     0.5   0.7163   0.0689
Ti39     Ti     0.5   0.6479   0.2017
Er40     Er     0.5   0.2837   0.0689
Ti41     Ti     0.5   0.3521   0.2017
Ce42     Ce     0.5   0.5   0.6816
S43     S     0.5   0.5   0.5492
Er44     Er     0.5   0.7163   0.9311
Ti45     Ti     0.5   0.6479   0.7983
Er46     Er     0.5   0.2837   0.9311
Ti47     Ti     0.5   0.3521   0.7983
H48     H     0.3738   0.6553   0.5771
H49     H     0.6262   0.3447   0.4229
H50     H     0.6262   0.1553   0.9229
H51     H     0.6262   0.1553   0.0771
H52     H     0.6262   0.3447   0.5771
H53     H     0.6262   0.6553   0.4229
H54     H     0.6262   0.6553   0.5771
H55     H     0.6262   0.8447   0.0771
H56     H     0.6262   0.8447   0.9229
V57     V     0.7963   0.6589   0.6862
V58     V     0.7963   0.3411   0.6862
V59     V     0.7037   0.6589   0.8138
V60     V     0.7037   0.3411   0.8138
V61     V     0.7037   0.8411   0.6862
V62     V     0.7037   0.1589   0.6862
V63     V     0.7963   0.8411   0.8138
V64     V     0.7963   0.1589   0.8138
V65     V     0.2037   0.6589   0.6862
V66     V     0.2037   0.3411   0.6862
V67     V     0.2963   0.6589   0.8138
V68     V     0.2963   0.3411   0.8138
V69     V     0.2963   0.8411   0.6862
V70     V     0.2963   0.1589   0.6862
V71     V     0.2037   0.8411   0.8138
V72     V     0.2037   0.1589   0.8138
Ce73     Ce     0.0   0.0   0.3184
S74     S     0.0   0.0   0.4508
Er75     Er     0.0   0.7837   0.0689
Ti76     Ti     0.0   0.8521   0.2017
Er77     Er     0.0   0.2163   0.0689
Ti78     Ti     0.0   0.1479   0.2017
Ce79     Ce     0.0   0.0   0.6816
S80     S     0.0   0.0   0.5492
Er81     Er     0.0   0.2163   0.9311
Ti82     Ti     0.0   0.1479   0.7983
Er83     Er     0.0   0.7837   0.9311
Ti84     Ti     0.0   0.8521   0.7983
Ce85     Ce     0.0   0.5   0.1816
S86     S     0.0   0.5   0.0492
Er87     Er     0.0   0.7163   0.4311
Ti88     Ti     0.0   0.6479   0.2983
Er89     Er     0.0   0.2837   0.4311
Ti90     Ti     0.0   0.3521   0.2983
Ce91     Ce     0.0   0.5   0.8184
S92     S     0.0   0.5   0.9508
Er93     Er     0.0   0.7163   0.5689
Ti94     Ti     0.0   0.6479   0.7017
Er95     Er     0.0   0.2837   0.5689
Ti96     Ti     0.0   0.3521   0.7017
H97     H     0.1262   0.3447   0.0771
H98     H     0.1262   0.1553   0.4229
H99     H     0.1262   0.1553   0.5771
H100     H     0.1262   0.3447   0.9229
H101     H     0.1262   0.6553   0.9229
H102     H     0.1262   0.6553   0.0771
H103     H     0.1262   0.8447   0.5771
H104     H     0.1262   0.8447   0.4229
H105     H     0.8738   0.1553   0.5771
H106     H     0.8738   0.1553   0.4229
H107     H     0.8738   0.3447   0.9229
H108     H     0.8738   0.3447   0.0771
H109     H     0.8738   0.8447   0.4229
H110     H     0.8738   0.6553   0.0771
H111     H     0.8738   0.6553   0.9229
H112     H     0.8738   0.8447   0.5771
loop_
_geom_bond_atom_site_label_1
_geom_bond_atom_site_label_2
_geom_bond_distance
_geom_bond_site_symmetry_2
_ccdc_geom_bond_type
V1     V2    10.337   .     S
V1     V3    10.726   .     S
V1     H55    10.92   .     S
V2     V4    10.726   .     S
V2     H51    10.92   .     S
V3     V4    10.337   .     S
V3     H109    10.92   .     S
V4     H106    10.92   .     S
V5     V6    10.337   .     S
V5     V7    10.726   .     S
V5     H104    10.92   .     S
V6     V8    10.726   .     S
V6     H98    10.92   .     S
V7     V8    10.337   .     S
V7     H19    10.92   .     S
V8     H22    10.92   .     S
V9     V10    10.337   1_565     S
V9     V11    10.726   .     S
V9     H53    10.92   .     S
V10     V9    10.337   1_545     S
V10     V12    10.726   .     S
V10     H49    10.92   .     S
V11     V12    10.337   1_565     S
V11     H110    10.92   .     S
V12     V11    10.337   1_545     S
V12     H108    10.92   .     S
V13     V14    10.337   1_565     S
V13     V15    10.726   .     S
V13     H102    10.92   .     S
V14     V13    10.337   1_545     S
V14     V16    10.726   .     S
V14     H97    10.92   .     S
V15     V16    10.337   1_565     S
V15     H23    10.92   .     S
V16     V15    10.337   1_545     S
V16     H18    10.92   .     S
H17     Er32    9.697   .     S
H17     H48    10.1   .     S
H17     S43    10.263   .     S
H17     H18    10.396   .     S
H17     V70    10.92   .     S
H18     Er26    9.697   .     S
H18     H23    10.1   .     S
H18     S37    10.263   .     S
H19     Er38    9.697   .     S
H19     H22    10.1   1_565     S
H19     S25    10.263   1_565     S
H19     H21    10.396   1_554     S
H20     Er46    9.697   .     S
H20     H21    10.1   1_545     S
H20     S31    10.263   .     S
H20     H22    10.396   1_556     S
H20     V68    10.92   .     S
H21     Er44    9.697   .     S
H21     H20    10.1   1_565     S
H21     S31    10.263   1_565     S
H21     H19    10.396   1_556     S
H21     V67    10.92   .     S
H22     Er40    9.697   .     S
H22     H19    10.1   1_545     S
H22     S25    10.263   .     S
H22     H20    10.396   1_554     S
H23     Er28    9.697   .     S
H23     S37    10.263   .     S
H23     H48    10.396   .     S
Ce24     S25    8.922   .     S
Ce24     Ti27    9.224   .     S
Ce24     Ti29    9.224   1_545     S
S25     H19    10.263   1_545     S
S25     H51    10.263   .     S
S25     H55    10.263   1_545     S
S25     Er38    9.321   1_545     S
S25     Er40    9.321   .     S
Er26     H49    9.697   .     S
Er26     Ti27    9.223   .     S
Er26     Er32    9.283   .     S
Er26     S37    9.321   .     S
Ti27     Ti29    9.622   1_545     S
Er28     H53    9.697   .     S
Er28     Ti29    9.223   .     S
Er28     Er34    9.283   .     S
Er28     S37    9.321   .     S
Ti29     Ce24    9.224   1_565     S
Ti29     Ti27    9.622   1_565     S
Ce30     S31    8.922   .     S
Ce30     Ti33    9.224   .     S
Ce30     Ti35    9.224   1_545     S
S31     H21    10.263   1_545     S
S31     H56    10.263   1_545     S
S31     H50    10.263   .     S
S31     Er44    9.321   1_545     S
S31     Er46    9.321   .     S
Er32     H52    9.697   .     S
Er32     Ti33    9.223   .     S
Er32     S43    9.321   .     S
Ti33     Ti35    9.622   1_545     S
Er34     H54    9.697   .     S
Er34     H48    9.697   .     S
Er34     Ti35    9.223   .     S
Er34     S43    9.321   .     S
Ti35     Ce30    9.224   1_565     S
Ti35     Ti33    9.622   1_565     S
Ce36     S37    8.922   .     S
Ce36     Ti39    9.224   .     S
Ce36     Ti41    9.224   .     S
S37     H49    10.263   .     S
S37     H53    10.263   .     S
Er38     H55    9.697   .     S
Er38     Ti39    9.223   .     S
Er38     Er44    9.283   1_554     S
Er38     S25    9.321   1_565     S
Ti39     Ti41    9.622   .     S
Er40     H51    9.697   .     S
Er40     Ti41    9.223   .     S
Er40     Er46    9.283   1_554     S
Ce42     S43    8.922   .     S
Ce42     Ti47    9.224   .     S
Ce42     Ti45    9.224   .     S
S43     H52    10.263   .     S
S43     H54    10.263   .     S
S43     H48    10.263   .     S
Er44     H56    9.697   .     S
Er44     Ti45    9.223   .     S
Er44     Er38    9.283   1_556     S
Er44     S31    9.321   1_565     S
Ti45     Ti47    9.622   .     S
Er46     H50    9.697   .     S
Er46     Ti47    9.223   .     S
Er46     Er40    9.283   1_556     S
H48     V69    10.92   .     S
H49     H53    10.1   .     S
H49     H52    10.396   .     S
H50     H56    10.1   1_545     S
H50     H51    10.396   1_556     S
H50     V60    10.92   .     S
H51     H55    10.1   1_545     S
H51     H50    10.396   1_554     S
H52     H54    10.1   .     S
H52     V62    10.92   .     S
H53     H54    10.396   .     S
H54     V61    10.92   .     S
H55     H51    10.1   1_565     S
H55     S25    10.263   1_565     S
H55     H56    10.396   1_554     S
H56     H50    10.1   1_565     S
H56     S31    10.263   1_565     S
H56     H55    10.396   1_556     S
H56     V59    10.92   .     S
V57     V58    10.337   .     S
V57     V59    10.726   .     S
V57     H112    10.92   .     S
V58     V60    10.726   .     S
V58     H105    10.92   .     S
V59     V60    10.337   .     S
V61     V62    10.337   1_565     S
V61     V63    10.726   .     S
V62     V61    10.337   1_545     S
V62     V64    10.726   .     S
V63     V64    10.337   1_565     S
V63     H111    10.92   .     S
V64     V63    10.337   1_545     S
V64     H107    10.92   .     S
V65     V66    10.337   .     S
V65     V67    10.726   .     S
V65     H103    10.92   .     S
V66     V68    10.726   .     S
V66     H99    10.92   .     S
V67     V68    10.337   .     S
V69     V70    10.337   1_565     S
V69     V71    10.726   .     S
V70     V69    10.337   1_545     S
V70     V72    10.726   .     S
V71     V72    10.337   1_565     S
V71     H101    10.92   .     S
V72     V71    10.337   1_545     S
V72     H100    10.92   .     S
Ce73     S74    8.922   .     S
Ce73     Ti78    9.224   .     S
Ce73     Ti76    9.224   1_545     S
S74     H104    10.263   1_545     S
S74     H98    10.263   .     S
S74     H109    10.263   1_445     S
S74     H106    10.263   1_455     S
S74     Er87    9.321   1_545     S
S74     Er89    9.321   .     S
Er75     H102    9.697   .     S
Er75     H110    9.697   1_455     S
Er75     Ti76    9.223   .     S
Er75     Er83    9.283   1_554     S
Er75     S86    9.321   .     S
Ti76     Ce73    9.224   1_565     S
Ti76     Ti78    9.622   1_565     S
Er77     H108    9.697   1_455     S
Er77     H97    9.697   .     S
Er77     Ti78    9.223   .     S
Er77     Er81    9.283   1_554     S
Er77     S86    9.321   .     S
Ti78     Ti76    9.622   1_545     S
Ce79     S80    8.922   .     S
Ce79     Ti82    9.224   .     S
Ce79     Ti84    9.224   1_545     S
S80     H103    10.263   1_545     S
S80     H99    10.263   .     S
S80     H112    10.263   1_445     S
S80     H105    10.263   1_455     S
S80     Er93    9.321   1_545     S
S80     Er95    9.321   .     S
Er81     H100    9.697   .     S
Er81     H107    9.697   1_455     S
Er81     Ti82    9.223   .     S
Er81     Er77    9.283   1_556     S
Er81     S92    9.321   .     S
Ti82     Ti84    9.622   1_545     S
Er83     H101    9.697   .     S
Er83     H111    9.697   1_455     S
Er83     Ti84    9.223   .     S
Er83     Er75    9.283   1_556     S
Er83     S92    9.321   .     S
Ti84     Ce79    9.224   1_565     S
Ti84     Ti82    9.622   1_565     S
Ce85     S86    8.922   .     S
Ce85     Ti90    9.224   .     S
Ce85     Ti88    9.224   .     S
S86     H102    10.263   .     S
S86     H108    10.263   1_455     S
S86     H110    10.263   1_455     S
S86     H97    10.263   .     S
Er87     H104    9.697   .     S
Er87     H109    9.697   1_455     S
Er87     Ti88    9.223   .     S
Er87     Er93    9.283   .     S
Er87     S74    9.321   1_565     S
Ti88     Ti90    9.622   .     S
Er89     H98    9.697   .     S
Er89     H106    9.697   1_455     S
Er89     Ti90    9.223   .     S
Er89     Er95    9.283   .     S
Ce91     S92    8.922   .     S
Ce91     Ti94    9.224   .     S
Ce91     Ti96    9.224   .     S
S92     H100    10.263   .     S
S92     H101    10.263   .     S
S92     H107    10.263   1_455     S
S92     H111    10.263   1_455     S
Er93     H103    9.697   .     S
Er93     H112    9.697   1_455     S
Er93     Ti94    9.223   .     S
Er93     S80    9.321   1_565     S
Ti94     Ti96    9.622   .     S
Er95     H99    9.697   .     S
Er95     H105    9.697   1_455     S
Er95     Ti96    9.223   .     S
H97     H102    10.1   .     S
H97     H100    10.396   1_554     S
H98     H104    10.1   1_545     S
H98     H99    10.396   .     S
H99     H103    10.1   1_545     S
H100     H101    10.1   .     S
H100     H97    10.396   1_556     S
H101     H102    10.396   1_556     S
H102     H101    10.396   1_554     S
H103     H99    10.1   1_565     S
H103     S80    10.263   1_565     S
H103     H104    10.396   .     S
H104     H98    10.1   1_565     S
H104     S74    10.263   1_565     S
H105     Er95    9.697   1_655     S
H105     H112    10.1   1_545     S
H105     S80    10.263   1_655     S
H105     H106    10.396   .     S
H106     Er89    9.697   1_655     S
H106     H109    10.1   1_545     S
H106     S74    10.263   1_655     S
H107     Er81    9.697   1_655     S
H107     H111    10.1   .     S
H107     S92    10.263   1_655     S
H107     H108    10.396   1_556     S
H108     Er77    9.697   1_655     S
H108     H110    10.1   .     S
H108     S86    10.263   1_655     S
H108     H107    10.396   1_554     S
H109     Er87    9.697   1_655     S
H109     H106    10.1   1_565     S
H109     S74    10.263   1_665     S
H109     H112    10.396   .     S
H110     Er75    9.697   1_655     S
H110     S86    10.263   1_655     S
H110     H111    10.396   1_554     S
H111     Er83    9.697   1_655     S
H111     S92    10.263   1_655     S
H111     H110    10.396   1_556     S
H112     Er93    9.697   1_655     S
H112     H105    10.1   1_565     S
H112     S80    10.263   1_665     S
