data_kea
_audit_creation_date              2020-02-02
_audit_creation_method            'Pymatgen'
_symmetry_space_group_name_H-M    'P1'
_symmetry_Int_Tables_number       1
loop_
_symmetry_equiv_pos_as_xyz
  x,y,z
_cell_length_a                    23.7894
_cell_length_b                    23.7894
_cell_length_c                    31.7513
_cell_angle_alpha                 90.0
_cell_angle_beta                 90.0
_cell_angle_gamma                 90.0
loop_
_atom_site_label
_atom_site_type_symbol
_atom_site_fract_x
_atom_site_fract_y
_atom_site_fract_z
V1     V     0.9556   0.9556   0.0
V2     V     0.5444   0.4555   0.75
Er3     Er     0.3481   0.9019   0.1052
Er4     Er     0.4019   0.1519   0.3552
Er5     Er     0.5981   0.8481   0.8552
Er6     Er     0.6519   0.0981   0.6052
V7     V     0.0444   0.0444   0.5
V8     V     0.4555   0.5444   0.25
Er9     Er     0.1519   0.4019   0.6448
Er10     Er     0.9019   0.3481   0.8948
Er11     Er     0.0981   0.6519   0.3948
Er12     Er     0.8481   0.5981   0.1448
loop_
_geom_bond_atom_site_label_1
_geom_bond_atom_site_label_2
_geom_bond_distance
_geom_bond_site_symmetry_2
_ccdc_geom_bond_type
V1     Er10    10.0   1_564     S
V1     Er3    10.0   1_655     S
V1     Er5    10.0   1_554     S
V1     Er12    10.0   .     S
V2     Er9    10.0   .     S
V2     Er5    10.0   .     S
V2     Er6    10.0   .     S
V2     Er10    10.0   .     S
Er3     V1    10.0   1_455     S
Er3     V8    10.0   .     S
Er3     Er4    10.0   1_565     S
Er3     Er5    10.0   1_554     S
Er4     Er3    10.0   1_545     S
Er4     V7    10.0   .     S
Er4     Er6    10.0   .     S
Er4     V8    10.0   .     S
Er5     V1    10.0   1_556     S
Er5     Er6    10.0   1_565     S
Er5     Er3    10.0   1_556     S
Er6     Er5    10.0   1_545     S
Er6     V7    10.0   1_655     S
V7     Er6    10.0   1_455     S
V7     Er11    10.0   1_545     S
V7     Er9    10.0   .     S
V8     Er12    10.0   .     S
V8     Er11    10.0   .     S
Er9     Er11    10.0   .     S
Er9     Er10    10.0   1_455     S
Er10     V1    10.0   1_546     S
Er10     Er12    10.0   1_556     S
Er10     Er9    10.0   1_655     S
Er11     V7    10.0   1_565     S
Er11     Er12    10.0   1_455     S
Er12     Er10    10.0   1_554     S
Er12     Er11    10.0   1_655     S
