data_keb
_audit_creation_date              2020-02-02
_audit_creation_method            'Pymatgen'
_symmetry_space_group_name_H-M    'P1'
_symmetry_Int_Tables_number       1
loop_
_symmetry_equiv_pos_as_xyz
  x,y,z
_cell_length_a                    20.0
_cell_length_b                    20.0
_cell_length_c                    34.142
_cell_angle_alpha                 90.0
_cell_angle_beta                 90.0
_cell_angle_gamma                 90.0
loop_
_atom_site_label
_atom_site_type_symbol
_atom_site_fract_x
_atom_site_fract_y
_atom_site_fract_z
Er1     Er     0.0   0.0   0.7071
Er2     Er     0.0   0.5   0.7071
Er3     Er     0.5   0.0   0.7071
Er4     Er     0.5   0.5   0.7071
Er5     Er     0.0   0.0   0.2929
Er6     Er     0.0   0.5   0.2929
Er7     Er     0.5   0.0   0.2929
Er8     Er     0.5   0.5   0.2929
V9     V     0.0   0.0   0.0
V10     V     0.0   0.5   0.0
V11     V     0.5   0.0   0.0
V12     V     0.5   0.5   0.0
Er13     Er     0.25   0.25   0.7929
Er14     Er     0.25   0.75   0.7929
Er15     Er     0.75   0.25   0.7929
Er16     Er     0.75   0.75   0.7929
Er17     Er     0.25   0.25   0.2071
Er18     Er     0.25   0.75   0.2071
Er19     Er     0.75   0.25   0.2071
Er20     Er     0.75   0.75   0.2071
V21     V     0.25   0.25   0.5
V22     V     0.25   0.75   0.5
V23     V     0.75   0.25   0.5
V24     V     0.75   0.75   0.5
loop_
_geom_bond_atom_site_label_1
_geom_bond_atom_site_label_2
_geom_bond_distance
_geom_bond_site_symmetry_2
_ccdc_geom_bond_type
Er1     V9    10.0   1_556     S
Er1     V24    10.0   1_445     S
Er1     V22    10.0   1_545     S
Er1     V21    10.0   .     S
Er1     V23    10.0   1_455     S
Er2     V10    10.0   1_556     S
Er2     V23    10.0   1_455     S
Er2     V21    10.0   .     S
Er2     V22    10.0   .     S
Er2     V24    10.0   1_455     S
Er3     V11    10.0   1_556     S
Er3     V22    10.0   1_545     S
Er3     V24    10.0   1_545     S
Er3     V23    10.0   .     S
Er3     V21    10.0   .     S
Er4     V12    10.0   1_556     S
Er4     V21    10.0   .     S
Er4     V23    10.0   .     S
Er4     V24    10.0   .     S
Er4     V22    10.0   .     S
Er5     V9    10.0   .     S
Er5     V23    10.0   1_455     S
Er5     V24    10.0   1_445     S
Er5     V22    10.0   1_545     S
Er5     V21    10.0   .     S
Er6     V10    10.0   .     S
Er6     V24    10.0   1_455     S
Er6     V23    10.0   1_455     S
Er6     V21    10.0   .     S
Er6     V22    10.0   .     S
Er7     V11    10.0   .     S
Er7     V21    10.0   .     S
Er7     V22    10.0   1_545     S
Er7     V24    10.0   1_545     S
Er7     V23    10.0   .     S
Er8     V12    10.0   .     S
Er8     V22    10.0   .     S
Er8     V21    10.0   .     S
Er8     V23    10.0   .     S
Er8     V24    10.0   .     S
V9     Er14    10.0   1_544     S
V9     Er1    10.0   1_554     S
V9     Er13    10.0   1_554     S
V9     Er15    10.0   1_454     S
V9     Er16    10.0   1_444     S
V9     Er17    10.0   .     S
V9     Er19    10.0   1_455     S
V9     Er20    10.0   1_445     S
V9     Er18    10.0   1_545     S
V9     V10    10.0   .     S
V9     V10    10.0   1_545     S
V9     V11    10.0   .     S
V9     V11    10.0   1_455     S
V10     Er13    10.0   1_554     S
V10     Er2    10.0   1_554     S
V10     Er14    10.0   1_554     S
V10     Er16    10.0   1_454     S
V10     Er15    10.0   1_454     S
V10     Er18    10.0   .     S
V10     Er20    10.0   1_455     S
V10     Er19    10.0   1_455     S
V10     Er17    10.0   .     S
V10     V9    10.0   1_565     S
V10     V12    10.0   .     S
V10     V12    10.0   1_455     S
V11     Er16    10.0   1_544     S
V11     Er3    10.0   1_554     S
V11     Er15    10.0   1_554     S
V11     Er13    10.0   1_554     S
V11     Er14    10.0   1_544     S
V11     Er19    10.0   .     S
V11     Er17    10.0   .     S
V11     Er18    10.0   1_545     S
V11     Er20    10.0   1_545     S
V11     V12    10.0   .     S
V11     V12    10.0   1_545     S
V11     V9    10.0   1_655     S
V12     Er15    10.0   1_554     S
V12     Er4    10.0   1_554     S
V12     Er16    10.0   1_554     S
V12     Er14    10.0   1_554     S
V12     Er13    10.0   1_554     S
V12     Er20    10.0   .     S
V12     Er18    10.0   .     S
V12     Er17    10.0   .     S
V12     Er19    10.0   .     S
V12     V11    10.0   1_565     S
V12     V10    10.0   1_655     S
Er13     V10    10.0   1_556     S
Er13     V9    10.0   1_556     S
Er13     V11    10.0   1_556     S
Er13     V12    10.0   1_556     S
Er13     V21    10.0   .     S
Er14     V9    10.0   1_566     S
Er14     V10    10.0   1_556     S
Er14     V12    10.0   1_556     S
Er14     V11    10.0   1_566     S
Er14     V22    10.0   .     S
Er15     V12    10.0   1_556     S
Er15     V11    10.0   1_556     S
Er15     V9    10.0   1_656     S
Er15     V10    10.0   1_656     S
Er15     V23    10.0   .     S
Er16     V11    10.0   1_566     S
Er16     V12    10.0   1_556     S
Er16     V10    10.0   1_656     S
Er16     V9    10.0   1_666     S
Er16     V24    10.0   .     S
Er17     V21    10.0   .     S
Er18     V11    10.0   1_565     S
Er18     V9    10.0   1_565     S
Er18     V22    10.0   .     S
Er19     V9    10.0   1_655     S
Er19     V10    10.0   1_655     S
Er19     V23    10.0   .     S
Er20     V10    10.0   1_655     S
Er20     V9    10.0   1_665     S
Er20     V11    10.0   1_565     S
Er20     V24    10.0   .     S
V21     V22    10.0   1_545     S
V21     V22    10.0   .     S
V21     V23    10.0   1_455     S
V21     V23    10.0   .     S
V22     Er3    10.0   1_565     S
V22     Er1    10.0   1_565     S
V22     Er7    10.0   1_565     S
V22     Er5    10.0   1_565     S
V22     V21    10.0   1_565     S
V22     V24    10.0   1_455     S
V22     V24    10.0   .     S
V23     Er2    10.0   1_655     S
V23     Er1    10.0   1_655     S
V23     Er5    10.0   1_655     S
V23     Er6    10.0   1_655     S
V23     V24    10.0   1_545     S
V23     V24    10.0   .     S
V23     V21    10.0   1_655     S
V24     Er1    10.0   1_665     S
V24     Er3    10.0   1_565     S
V24     Er2    10.0   1_655     S
V24     Er6    10.0   1_655     S
V24     Er5    10.0   1_665     S
V24     Er7    10.0   1_565     S
V24     V23    10.0   1_565     S
V24     V22    10.0   1_655     S
