data_keba
_audit_creation_date              2020-02-02
_audit_creation_method            'Pymatgen'
_symmetry_space_group_name_H-M    'P1'
_symmetry_Int_Tables_number       1
loop_
_symmetry_equiv_pos_as_xyz
  x,y,z
_cell_length_a                    34.1038
_cell_length_b                    34.1038
_cell_length_c                    75.9995
_cell_angle_alpha                 90.0
_cell_angle_beta                 90.0
_cell_angle_gamma                 90.0
loop_
_atom_site_label
_atom_site_type_symbol
_atom_site_fract_x
_atom_site_fract_y
_atom_site_fract_z
Er1     Er     0.3534   0.6466   0.1372
Ti2     Ti     0.1763   0.8237   0.0688
Er3     Er     0.3534   0.3534   0.1372
Ti4     Ti     0.1763   0.1763   0.0688
Er5     Er     0.6466   0.3534   0.1372
Ti6     Ti     0.8237   0.1763   0.0688
Er7     Er     0.6466   0.6466   0.1372
Ti8     Ti     0.8237   0.8237   0.0688
S9     S     0.5   0.5   0.3619
Ce10     Ce     0.5   0.5   0.2303
Er11     Er     0.8534   0.1466   0.3628
Ti12     Ti     0.6763   0.3237   0.4312
Er13     Er     0.1466   0.1466   0.3628
Ti14     Ti     0.3237   0.3237   0.4312
Er15     Er     0.1466   0.8534   0.3628
Ti16     Ti     0.3237   0.6763   0.4312
Er17     Er     0.8534   0.8534   0.3628
Ti18     Ti     0.6763   0.6763   0.4312
S19     S     0.0   0.0   0.1381
Ce20     Ce     0.0   0.0   0.2697
V21     V     0.8534   0.5   0.5
V22     V     0.1466   0.5   0.5
V23     V     0.5   0.8534   0.5
V24     V     0.5   0.1466   0.5
V25     V     0.6466   0.0   0.0
V26     V     0.3534   0.0   0.0
V27     V     0.0   0.6466   0.0
V28     V     0.0   0.3534   0.0
Er29     Er     0.6466   0.3534   0.8628
Ti30     Ti     0.8237   0.1763   0.9312
Er31     Er     0.3534   0.3534   0.8628
Ti32     Ti     0.1763   0.1763   0.9312
Er33     Er     0.3534   0.6466   0.8628
Ti34     Ti     0.1763   0.8237   0.9312
Er35     Er     0.6466   0.6466   0.8628
Ti36     Ti     0.8237   0.8237   0.9312
S37     S     0.5   0.5   0.6381
Ce38     Ce     0.5   0.5   0.7697
Er39     Er     0.8534   0.1466   0.6372
Ti40     Ti     0.6763   0.3237   0.5688
Er41     Er     0.1466   0.1466   0.6372
Ti42     Ti     0.3237   0.3237   0.5688
Er43     Er     0.1466   0.8534   0.6372
Ti44     Ti     0.3237   0.6763   0.5688
Er45     Er     0.8534   0.8534   0.6372
Ti46     Ti     0.6763   0.6763   0.5688
S47     S     0.0   0.0   0.8619
Ce48     Ce     0.0   0.0   0.7303
loop_
_geom_bond_atom_site_label_1
_geom_bond_atom_site_label_2
_geom_bond_distance
_geom_bond_site_symmetry_2
_ccdc_geom_bond_type
Er1     Ce10    10.0   .     S
Er1     Ti2    10.0   .     S
Er1     Er3    10.0   .     S
Er1     Er7    10.0   .     S
Ti2     S19    10.0   1_565     S
Ti2     V26    10.0   1_565     S
Ti2     V27    10.0   .     S
Er3     Ce10    10.0   .     S
Er3     Ti4    10.0   .     S
Er3     Er5    10.0   .     S
Ti4     S19    10.0   .     S
Ti4     V26    10.0   .     S
Ti4     V28    10.0   .     S
Er5     Ce10    10.0   .     S
Er5     Ti6    10.0   .     S
Er5     Er7    10.0   .     S
Ti6     S19    10.0   1_655     S
Ti6     V25    10.0   .     S
Ti6     V28    10.0   1_655     S
Er7     Ce10    10.0   .     S
Er7     Ti8    10.0   .     S
Ti8     S19    10.0   1_665     S
Ti8     V25    10.0   1_565     S
Ti8     V27    10.0   1_655     S
S9     Ti14    10.0   .     S
S9     Ti12    10.0   .     S
S9     Ti16    10.0   .     S
S9     Ti18    10.0   .     S
S9     Ce10    10.0   .     S
Er11     Ce20    10.0   1_655     S
Er11     Ti12    10.0   .     S
Er11     Er13    10.0   1_655     S
Er11     Er17    10.0   1_545     S
Ti12     V21    10.0   .     S
Ti12     V24    10.0   .     S
Er13     Er11    10.0   1_455     S
Er13     Ce20    10.0   .     S
Er13     Ti14    10.0   .     S
Er13     Er15    10.0   1_545     S
Ti14     V22    10.0   .     S
Ti14     V24    10.0   .     S
Er15     Ce20    10.0   1_565     S
Er15     Ti16    10.0   .     S
Er15     Er13    10.0   1_565     S
Er15     Er17    10.0   1_455     S
Ti16     V22    10.0   .     S
Ti16     V23    10.0   .     S
Er17     Ce20    10.0   1_665     S
Er17     Ti18    10.0   .     S
Er17     Er11    10.0   1_565     S
Er17     Er15    10.0   1_655     S
Ti18     V21    10.0   .     S
Ti18     V23    10.0   .     S
S19     Ti6    10.0   1_455     S
S19     Ti2    10.0   1_545     S
S19     Ti8    10.0   1_445     S
S19     Ce20    10.0   .     S
Ce20     Er11    10.0   1_455     S
Ce20     Er15    10.0   1_545     S
Ce20     Er17    10.0   1_445     S
V21     Ti40    10.0   .     S
V21     Ti46    10.0   .     S
V21     V22    10.0   1_655     S
V22     Ti44    10.0   .     S
V22     Ti42    10.0   .     S
V22     V21    10.0   1_455     S
V23     Ti44    10.0   .     S
V23     Ti46    10.0   .     S
V23     V24    10.0   1_565     S
V24     Ti42    10.0   .     S
V24     Ti40    10.0   .     S
V24     V23    10.0   1_545     S
V25     Ti8    10.0   1_545     S
V25     Ti30    10.0   1_554     S
V25     Ti36    10.0   1_544     S
V25     V26    10.0   .     S
V26     Ti2    10.0   1_545     S
V26     Ti32    10.0   1_554     S
V26     Ti34    10.0   1_544     S
V27     Ti8    10.0   1_455     S
V27     Ti34    10.0   1_554     S
V27     Ti36    10.0   1_454     S
V27     V28    10.0   .     S
V28     Ti6    10.0   1_455     S
V28     Ti32    10.0   1_554     S
V28     Ti30    10.0   1_454     S
Er29     Ce38    10.0   .     S
Er29     Ti30    10.0   .     S
Er29     Er31    10.0   .     S
Er29     Er35    10.0   .     S
Ti30     V25    10.0   1_556     S
Ti30     V28    10.0   1_656     S
Ti30     S47    10.0   1_655     S
Er31     Ce38    10.0   .     S
Er31     Ti32    10.0   .     S
Er31     Er33    10.0   .     S
Ti32     V26    10.0   1_556     S
Ti32     V28    10.0   1_556     S
Ti32     S47    10.0   .     S
Er33     Ce38    10.0   .     S
Er33     Ti34    10.0   .     S
Er33     Er35    10.0   .     S
Ti34     V26    10.0   1_566     S
Ti34     V27    10.0   1_556     S
Ti34     S47    10.0   1_565     S
Er35     Ce38    10.0   .     S
Er35     Ti36    10.0   .     S
Ti36     V25    10.0   1_566     S
Ti36     V27    10.0   1_656     S
Ti36     S47    10.0   1_665     S
S37     Ti42    10.0   .     S
S37     Ti44    10.0   .     S
S37     Ti40    10.0   .     S
S37     Ti46    10.0   .     S
S37     Ce38    10.0   .     S
Er39     Ce48    10.0   1_655     S
Er39     Ti40    10.0   .     S
Er39     Er41    10.0   1_655     S
Er39     Er45    10.0   1_545     S
Er41     Er39    10.0   1_455     S
Er41     Ce48    10.0   .     S
Er41     Ti42    10.0   .     S
Er41     Er43    10.0   1_545     S
Er43     Ce48    10.0   1_565     S
Er43     Ti44    10.0   .     S
Er43     Er41    10.0   1_565     S
Er43     Er45    10.0   1_455     S
Er45     Ce48    10.0   1_665     S
Er45     Ti46    10.0   .     S
Er45     Er39    10.0   1_565     S
Er45     Er43    10.0   1_655     S
S47     Ti34    10.0   1_545     S
S47     Ti30    10.0   1_455     S
S47     Ti36    10.0   1_445     S
S47     Ce48    10.0   .     S
Ce48     Er39    10.0   1_455     S
Ce48     Er43    10.0   1_545     S
Ce48     Er45    10.0   1_445     S
