data_kem
_audit_creation_date              2020-02-02
_audit_creation_method            'Pymatgen'
_symmetry_space_group_name_H-M    'P1'
_symmetry_Int_Tables_number       1
loop_
_symmetry_equiv_pos_as_xyz
  x,y,z
_cell_length_a                    27.3893
_cell_length_b                    27.3893
_cell_length_c                    28.5417
_cell_angle_alpha                 90.0
_cell_angle_beta                 90.0
_cell_angle_gamma                 120.0
loop_
_atom_site_label
_atom_site_type_symbol
_atom_site_fract_x
_atom_site_fract_y
_atom_site_fract_z
H1     H     0.6667   0.3333   0.8053
Er2     Er     0.7654   0.2346   0.5
S3     S     0.6727   0.8363   0.5
Er4     Er     0.7654   0.5308   0.5
Er5     Er     0.4692   0.2346   0.5
S6     S     0.1637   0.3273   0.5
S7     S     0.1637   0.8363   0.5
H8     H     0.6667   0.3333   0.1947
V9     V     0.6667   0.9676   0.8267
V10     V     0.6667   0.6991   0.8267
V11     V     0.6667   0.9676   0.1733
V12     V     0.3008   0.9676   0.8267
V13     V     0.0324   0.3333   0.8267
V14     V     0.0324   0.6991   0.8267
V15     V     0.3008   0.3333   0.8267
V16     V     0.6667   0.6991   0.1733
V17     V     0.0324   0.3333   0.1733
V18     V     0.3008   0.9676   0.1733
V19     V     0.3008   0.3333   0.1733
V20     V     0.0324   0.6991   0.1733
Ti21     Ti     0.0   0.0   0.0
Ce22     Ce     0.3333   0.6667   0.0
loop_
_geom_bond_atom_site_label_1
_geom_bond_atom_site_label_2
_geom_bond_distance
_geom_bond_site_symmetry_2
_ccdc_geom_bond_type
H1     V10    10.038   .     S
H1     V14    10.038   1_655     S
H1     V12    10.038   1_545     S
H1     V15    10.038   .     S
H1     V13    10.038   1_655     S
H1     V9    10.038   1_545     S
H1     Er2    9.893   .     S
H1     Er5    9.893   .     S
H1     Er4    9.893   .     S
Er2     S6    9.886   1_655     S
Er2     S3    9.886   1_545     S
Er2     H8    9.893   .     S
S3     V10    10.024   .     S
S3     V9    10.024   .     S
S3     V16    10.024   .     S
S3     V11    10.024   .     S
S3     Er2    9.886   1_565     S
S3     Er4    9.886   .     S
Er4     S7    9.886   1_655     S
Er4     H8    9.893   .     S
Er5     S6    9.886   .     S
Er5     S7    9.886   1_545     S
Er5     H8    9.893   .     S
S6     V13    10.024   .     S
S6     V15    10.024   .     S
S6     V17    10.024   .     S
S6     V19    10.024   .     S
S6     Er2    9.886   1_455     S
S7     V12    10.024   .     S
S7     V14    10.024   .     S
S7     V18    10.024   .     S
S7     V20    10.024   .     S
S7     Er4    9.886   1_455     S
S7     Er5    9.886   1_565     S
H8     V16    10.038   .     S
H8     V20    10.038   1_655     S
H8     V18    10.038   1_545     S
H8     V19    10.038   .     S
H8     V17    10.038   1_655     S
H8     V11    10.038   1_545     S
V9     H1    10.038   1_565     S
V9     Ti21    10.024   1_666     S
V9     Ce22    10.025   1_556     S
V10     Ti21    10.024   1_666     S
V10     Ce22    10.025   1_556     S
V11     H8    10.038   1_565     S
V11     Ti21    10.024   1_665     S
V11     Ce22    10.025   .     S
V12     H1    10.038   1_565     S
V12     Ti21    10.024   1_566     S
V12     Ce22    10.025   1_556     S
V13     H1    10.038   1_455     S
V13     Ti21    10.024   1_556     S
V13     Ce22    10.025   1_556     S
V14     H1    10.038   1_455     S
V14     Ti21    10.024   1_566     S
V14     Ce22    10.025   1_556     S
V15     Ti21    10.024   1_556     S
V15     Ce22    10.025   1_556     S
V16     Ti21    10.024   1_665     S
V16     Ce22    10.025   .     S
V17     H8    10.038   1_455     S
V17     Ti21    10.024   .     S
V17     Ce22    10.025   .     S
V18     H8    10.038   1_565     S
V18     Ti21    10.024   1_565     S
V18     Ce22    10.025   .     S
V19     Ti21    10.024   .     S
V19     Ce22    10.025   .     S
V20     H8    10.038   1_455     S
V20     Ti21    10.024   1_565     S
V20     Ce22    10.025   .     S
Ti21     V9    10.024   1_444     S
Ti21     V10    10.024   1_444     S
Ti21     V11    10.024   1_445     S
Ti21     V16    10.024   1_445     S
Ti21     V15    10.024   1_554     S
Ti21     V13    10.024   1_554     S
Ti21     V14    10.024   1_544     S
Ti21     V12    10.024   1_544     S
Ti21     V20    10.024   1_545     S
Ti21     V18    10.024   1_545     S
Ce22     V10    10.025   1_554     S
Ce22     V9    10.025   1_554     S
Ce22     V12    10.025   1_554     S
Ce22     V14    10.025   1_554     S
Ce22     V13    10.025   1_554     S
Ce22     V15    10.025   1_554     S
