data_kewa
_audit_creation_date              2020-02-02
_audit_creation_method            'Pymatgen'
_symmetry_space_group_name_H-M    'P1'
_symmetry_Int_Tables_number       1
loop_
_symmetry_equiv_pos_as_xyz
  x,y,z
_cell_length_a                    70.7725
_cell_length_b                    70.7725
_cell_length_c                    35.3412
_cell_angle_alpha                 90.0
_cell_angle_beta                 90.0
_cell_angle_gamma                 120.0
loop_
_atom_site_label
_atom_site_type_symbol
_atom_site_fract_x
_atom_site_fract_y
_atom_site_fract_z
V1     V     0.0816   0.9184   0.0
V2     V     0.8367   0.9184   0.0
V3     V     0.9184   0.8367   0.0
V4     V     0.9184   0.0816   0.0
Ti5     Ti     0.7661   0.5322   0.1414
Ti6     Ti     0.7661   0.5322   0.8586
Er7     Er     0.8367   0.6735   0.0
Er8     Er     0.8367   0.1633   0.0
Ti9     Ti     0.7661   0.2339   0.1414
Ti10     Ti     0.7661   0.2339   0.8586
Ce11     Ce     0.7137   0.4275   0.6415
Ce12     Ce     0.7137   0.2863   0.6415
Ce13     Ce     0.5725   0.2863   0.6415
Ce14     Ce     0.5725   0.2863   0.3585
Ce15     Ce     0.7137   0.4275   0.3585
Ce16     Ce     0.7137   0.2863   0.3585
Er17     Er     0.3265   0.1633   0.0
Ti18     Ti     0.4678   0.2339   0.1414
Ti19     Ti     0.4678   0.2339   0.8586
Er20     Er     0.1633   0.3265   0.0
Ti21     Ti     0.2339   0.4678   0.1414
Ti22     Ti     0.2339   0.4678   0.8586
Ti23     Ti     0.2339   0.7661   0.1414
Ti24     Ti     0.2339   0.7661   0.8586
Er25     Er     0.1633   0.8367   0.0
Ce26     Ce     0.2863   0.5725   0.6415
Ce27     Ce     0.4275   0.7137   0.6415
Ce28     Ce     0.2863   0.7137   0.6415
Ce29     Ce     0.2863   0.5725   0.3585
Ce30     Ce     0.4275   0.7137   0.3585
Ce31     Ce     0.2863   0.7137   0.3585
Er32     Er     0.6735   0.8367   0.0
Ti33     Ti     0.5322   0.7661   0.1414
Ti34     Ti     0.5322   0.7661   0.8586
V35     V     0.0816   0.1633   0.0
V36     V     0.1633   0.0816   0.0
loop_
_geom_bond_atom_site_label_1
_geom_bond_atom_site_label_2
_geom_bond_distance
_geom_bond_site_symmetry_2
_ccdc_geom_bond_type
V1     Er25    10.006   .     S
V1     V36    10.007   1_565     S
V1     V3    10.007   1_455     S
V2     V3    10.007   .     S
V2     V4    10.007   1_565     S
V2     Er32    10.006   .     S
V3     Er7    10.006   .     S
V3     V1    10.007   1_655     S
V4     V2    10.007   1_545     S
V4     V35    10.007   1_655     S
V4     Er8    10.006   .     S
Ti5     Ti6    9.994   1_554     S
Ti5     Er7    10.0   .     S
Ti5     Ce15    10.002   .     S
Ti6     Ti5    9.994   1_556     S
Ti6     Er7    10.0   1_556     S
Ti6     Ce11    10.002   .     S
Er7     Ti6    10.0   1_554     S
Er8     Ti10    10.0   1_554     S
Er8     Ti9    10.0   .     S
Ti9     Ti10    9.994   1_554     S
Ti9     Ce16    10.002   .     S
Ti10     Ti9    9.994   1_556     S
Ti10     Er8    10.0   1_556     S
Ti10     Ce12    10.002   .     S
Ce11     Ce12    9.994   .     S
Ce11     Ce13    9.994   .     S
Ce11     Ce15    9.999   .     S
Ce12     Ce13    9.994   .     S
Ce12     Ce16    9.999   .     S
Ce13     Ce14    9.999   .     S
Ce13     Ti19    10.002   .     S
Ce14     Ce16    9.994   .     S
Ce14     Ce15    9.994   .     S
Ce14     Ti18    10.002   .     S
Ce15     Ce16    9.994   .     S
Er17     Ti18    10.0   .     S
Er17     Ti19    10.0   1_554     S
Er17     V36    10.006   .     S
Ti18     Ti19    9.994   1_554     S
Ti19     Ti18    9.994   1_556     S
Ti19     Er17    10.0   1_556     S
Er20     Ti21    10.0   .     S
Er20     Ti22    10.0   1_554     S
Er20     V35    10.006   .     S
Ti21     Ti22    9.994   1_554     S
Ti21     Ce29    10.002   .     S
Ti22     Ti21    9.994   1_556     S
Ti22     Er20    10.0   1_556     S
Ti22     Ce26    10.002   .     S
Ti23     Ti24    9.994   1_554     S
Ti23     Er25    10.0   .     S
Ti23     Ce31    10.002   .     S
Ti24     Ti23    9.994   1_556     S
Ti24     Er25    10.0   1_556     S
Ti24     Ce28    10.002   .     S
Er25     Ti24    10.0   1_554     S
Ce26     Ce28    9.994   .     S
Ce26     Ce27    9.994   .     S
Ce26     Ce29    9.999   .     S
Ce27     Ce28    9.994   .     S
Ce27     Ce30    9.999   .     S
Ce27     Ti34    10.002   .     S
Ce28     Ce31    9.999   .     S
Ce29     Ce31    9.994   .     S
Ce29     Ce30    9.994   .     S
Ce30     Ce31    9.994   .     S
Ce30     Ti33    10.002   .     S
Er32     Ti33    10.0   .     S
Er32     Ti34    10.0   1_554     S
Ti33     Ti34    9.994   1_554     S
Ti34     Ti33    9.994   1_556     S
Ti34     Er32    10.0   1_556     S
V35     V4    10.007   1_455     S
V35     V36    10.007   .     S
V36     V1    10.007   1_545     S
