data_kex
_audit_creation_date              2020-02-02
_audit_creation_method            'Pymatgen'
_symmetry_space_group_name_H-M    'P1'
_symmetry_Int_Tables_number       1
loop_
_symmetry_equiv_pos_as_xyz
  x,y,z
_cell_length_a                    25.0135
_cell_length_b                    25.0135
_cell_length_c                    25.7919
_cell_angle_alpha                 90.0
_cell_angle_beta                 90.0
_cell_angle_gamma                 120.0
loop_
_atom_site_label
_atom_site_type_symbol
_atom_site_fract_x
_atom_site_fract_y
_atom_site_fract_z
Ti1     Ti     0.6667   0.3333   0.75
Er2     Er     0.0   0.0   0.5
V3     V     0.0   0.3998   0.5
V4     V     0.3998   0.0   0.5
V5     V     0.6002   0.0   0.5
V6     V     0.0   0.6002   0.5
V7     V     0.3998   0.3998   0.5
V8     V     0.6002   0.6002   0.5
Ti9     Ti     0.3333   0.6667   0.25
V10     V     0.0   0.3998   0.0
Er11     Er     0.0   0.0   0.0
V12     V     0.3998   0.0   0.0
V13     V     0.0   0.6002   0.0
V14     V     0.3998   0.3998   0.0
V15     V     0.6002   0.0   0.0
V16     V     0.6002   0.6002   0.0
loop_
_geom_bond_atom_site_label_1
_geom_bond_atom_site_label_2
_geom_bond_distance
_geom_bond_site_symmetry_2
_ccdc_geom_bond_type
Ti1     V5    10.0   .     S
Ti1     V4    10.0   .     S
Ti1     V12    10.0   1_556     S
Ti1     V15    10.0   1_556     S
Ti1     V7    10.0   .     S
Ti1     V8    10.0   .     S
Ti1     V10    10.0   1_656     S
Ti1     V13    10.0   1_656     S
Ti1     V6    10.0   1_655     S
Ti1     V3    10.0   1_655     S
Ti1     V16    10.0   1_556     S
Ti1     V14    10.0   1_556     S
Er2     V6    10.0   1_545     S
Er2     V4    10.0   .     S
Er2     V5    10.0   1_455     S
Er2     V7    10.0   .     S
Er2     V3    10.0   .     S
Er2     V8    10.0   1_445     S
V3     Ti1    10.0   1_455     S
V3     Ti9    10.0   .     S
V4     Ti9    10.0   1_545     S
V5     Er2    10.0   1_655     S
V5     Ti9    10.0   1_545     S
V6     Ti1    10.0   1_455     S
V6     Er2    10.0   1_565     S
V6     Ti9    10.0   .     S
V7     Ti9    10.0   .     S
V8     Er2    10.0   1_665     S
V8     Ti9    10.0   .     S
Ti9     V5    10.0   1_565     S
Ti9     V4    10.0   1_565     S
Ti9     V12    10.0   1_565     S
Ti9     V15    10.0   1_565     S
Ti9     V10    10.0   .     S
Ti9     V13    10.0   .     S
Ti9     V16    10.0   .     S
Ti9     V14    10.0   .     S
V10     Ti1    10.0   1_454     S
V10     Er11    10.0   .     S
Er11     V16    10.0   1_445     S
Er11     V13    10.0   1_545     S
Er11     V12    10.0   .     S
Er11     V14    10.0   .     S
Er11     V15    10.0   1_455     S
V12     Ti1    10.0   1_554     S
V12     Ti9    10.0   1_545     S
V13     Ti1    10.0   1_454     S
V13     Er11    10.0   1_565     S
V14     Ti1    10.0   1_554     S
V15     Ti1    10.0   1_554     S
V15     Ti9    10.0   1_545     S
V15     Er11    10.0   1_655     S
V16     Ti1    10.0   1_554     S
V16     Er11    10.0   1_665     S
