data_kexa
_audit_creation_date              2020-02-02
_audit_creation_method            'Pymatgen'
_symmetry_space_group_name_H-M    'P1'
_symmetry_Int_Tables_number       1
loop_
_symmetry_equiv_pos_as_xyz
  x,y,z
_cell_length_a                    69.3886
_cell_length_b                    69.3886
_cell_length_c                    58.8027
_cell_angle_alpha                 90.0
_cell_angle_beta                 90.0
_cell_angle_gamma                 120.0
loop_
_atom_site_label
_atom_site_type_symbol
_atom_site_fract_x
_atom_site_fract_y
_atom_site_fract_z
V1     V     0.7118   0.0   0.0
V2     V     0.7118   0.7118   0.0
Ti3     Ti     0.8559   0.0   0.0
Ti4     Ti     0.8559   0.8559   0.0
V5     V     0.0   0.7118   0.0
Ti6     Ti     0.0   0.8559   0.0
V7     V     0.2882   0.0   0.0
Ti8     Ti     0.1441   0.0   0.0
V9     V     0.2882   0.2882   0.0
Ti10     Ti     0.1441   0.1441   0.0
V11     V     0.0   0.2882   0.0
Ti12     Ti     0.0   0.1441   0.0
V13     V     0.7118   0.0   0.5
V14     V     0.7118   0.7118   0.5
Ti15     Ti     0.8559   0.0   0.5
Ti16     Ti     0.8559   0.8559   0.5
V17     V     0.0   0.2882   0.5
Ti18     Ti     0.0   0.1441   0.5
V19     V     0.2882   0.2882   0.5
Ti20     Ti     0.1441   0.1441   0.5
Ti21     Ti     0.1441   0.0   0.5
V22     V     0.2882   0.0   0.5
V23     V     0.0   0.7118   0.5
Ti24     Ti     0.0   0.8559   0.5
Er25     Er     0.4445   0.063   0.4444
Ce26     Ce     0.5226   0.3333   0.335
Ce27     Ce     0.5226   0.1892   0.335
Er28     Er     0.4445   0.3815   0.4444
Er29     Er     0.4445   0.063   0.0556
Ce30     Ce     0.5226   0.3333   0.165
Ce31     Ce     0.5226   0.1892   0.165
Er32     Er     0.4445   0.3815   0.0556
Er33     Er     0.937   0.3815   0.0556
Ce34     Ce     0.6667   0.1892   0.165
Ce35     Ce     0.8108   0.3333   0.165
Er36     Er     0.6185   0.063   0.0556
Er37     Er     0.937   0.3815   0.4444
Ce38     Ce     0.8108   0.3333   0.335
Ce39     Ce     0.6667   0.1892   0.335
Er40     Er     0.6185   0.063   0.4444
Er41     Er     0.6185   0.5555   0.0556
Ce42     Ce     0.6667   0.4774   0.165
Ce43     Ce     0.8108   0.4774   0.165
Er44     Er     0.937   0.5555   0.0556
Er45     Er     0.937   0.5555   0.4444
Ce46     Ce     0.6667   0.4774   0.335
Ce47     Ce     0.8108   0.4774   0.335
Er48     Er     0.6185   0.5555   0.4444
Er49     Er     0.063   0.4445   0.5556
Ce50     Ce     0.3333   0.5226   0.665
Ce51     Ce     0.1892   0.5226   0.665
Er52     Er     0.3815   0.4445   0.5556
Er53     Er     0.063   0.4445   0.9444
Ce54     Ce     0.1892   0.5226   0.835
Ce55     Ce     0.3333   0.5226   0.835
Er56     Er     0.3815   0.4445   0.9444
Ce57     Ce     0.4774   0.8108   0.835
Er58     Er     0.5555   0.937   0.9444
Er59     Er     0.5555   0.6185   0.9444
Ce60     Ce     0.4774   0.6667   0.835
Er61     Er     0.5555   0.6185   0.5556
Ce62     Ce     0.4774   0.8108   0.665
Ce63     Ce     0.4774   0.6667   0.665
Er64     Er     0.5555   0.937   0.5556
Er65     Er     0.3815   0.937   0.5556
Ce66     Ce     0.1892   0.6667   0.665
Ce67     Ce     0.3333   0.8108   0.665
Er68     Er     0.063   0.6185   0.5556
Er69     Er     0.063   0.6185   0.9444
Ce70     Ce     0.1892   0.6667   0.835
Ce71     Ce     0.3333   0.8108   0.835
Er72     Er     0.3815   0.937   0.9444
loop_
_geom_bond_atom_site_label_1
_geom_bond_atom_site_label_2
_geom_bond_distance
_geom_bond_site_symmetry_2
_ccdc_geom_bond_type
V1     Er58    10.0   1_544     S
V1     Er36    10.0   .     S
V1     Ti3    10.0   .     S
V2     Er59    10.0   1_554     S
V2     Er41    10.0   .     S
V2     Ti4    10.0   .     S
Ti3     Ti4    10.0   1_545     S
Ti3     Ti12    10.0   1_655     S
Ti4     Ti3    10.0   1_565     S
Ti4     Ti6    10.0   1_655     S
V5     Er44    10.0   1_455     S
V5     Er69    10.0   1_554     S
V5     Ti6    10.0   .     S
Ti6     Ti4    10.0   1_455     S
Ti6     Ti8    10.0   1_565     S
V7     Er72    10.0   1_544     S
V7     Er29    10.0   .     S
V7     Ti8    10.0   .     S
Ti8     Ti10    10.0   .     S
Ti8     Ti6    10.0   1_545     S
V9     Er56    10.0   1_554     S
V9     Er32    10.0   .     S
V9     Ti10    10.0   .     S
Ti10     Ti12    10.0   .     S
V11     Er53    10.0   1_554     S
V11     Er33    10.0   1_455     S
V11     Ti12    10.0   .     S
Ti12     Ti3    10.0   1_455     S
V13     Er64    10.0   1_545     S
V13     Er40    10.0   .     S
V13     Ti15    10.0   .     S
V14     Er48    10.0   .     S
V14     Er61    10.0   .     S
V14     Ti16    10.0   .     S
Ti15     Ti16    10.0   1_545     S
Ti15     Ti18    10.0   1_655     S
Ti16     Ti15    10.0   1_565     S
Ti16     Ti24    10.0   1_655     S
V17     Er37    10.0   1_455     S
V17     Er49    10.0   .     S
V17     Ti18    10.0   .     S
Ti18     Ti15    10.0   1_455     S
Ti18     Ti20    10.0   .     S
V19     Er52    10.0   .     S
V19     Er28    10.0   .     S
V19     Ti20    10.0   .     S
Ti20     Ti21    10.0   .     S
Ti21     V22    10.0   .     S
Ti21     Ti24    10.0   1_545     S
V22     Er25    10.0   .     S
V22     Er65    10.0   1_545     S
V23     Er45    10.0   1_455     S
V23     Er68    10.0   .     S
V23     Ti24    10.0   .     S
Ti24     Ti16    10.0   1_455     S
Ti24     Ti21    10.0   1_565     S
Er25     Ce27    10.0   .     S
Er25     Er65    10.0   1_545     S
Ce26     Ce27    10.0   .     S
Ce26     Er28    10.0   .     S
Ce26     Ce30    10.0   .     S
Ce26     Ce46    10.0   .     S
Ce27     Ce31    10.0   .     S
Ce27     Ce39    10.0   .     S
Er28     Er52    10.0   .     S
Er29     Ce31    10.0   .     S
Er29     Er72    10.0   1_544     S
Ce30     Ce31    10.0   .     S
Ce30     Er32    10.0   .     S
Ce30     Ce42    10.0   .     S
Ce31     Ce34    10.0   .     S
Er32     Er56    10.0   1_554     S
Er33     V11    10.0   1_655     S
Er33     Ce35    10.0   .     S
Er33     Er53    10.0   1_654     S
Ce34     Ce35    10.0   .     S
Ce34     Er36    10.0   .     S
Ce34     Ce39    10.0   .     S
Ce35     Ce38    10.0   .     S
Ce35     Ce43    10.0   .     S
Er36     Er58    10.0   1_544     S
Er37     V17    10.0   1_655     S
Er37     Ce38    10.0   .     S
Er37     Er49    10.0   1_655     S
Ce38     Ce39    10.0   .     S
Ce38     Ce47    10.0   .     S
Ce39     Er40    10.0   .     S
Er40     Er64    10.0   1_545     S
Er41     Ce42    10.0   .     S
Er41     Er59    10.0   1_554     S
Ce42     Ce46    10.0   .     S
Ce42     Ce43    10.0   .     S
Ce43     Er44    10.0   .     S
Ce43     Ce47    10.0   .     S
Er44     V5    10.0   1_655     S
Er44     Er69    10.0   1_654     S
Er45     V23    10.0   1_655     S
Er45     Ce47    10.0   .     S
Er45     Er68    10.0   1_655     S
Ce46     Ce47    10.0   .     S
Ce46     Er48    10.0   .     S
Er48     Er61    10.0   .     S
Er49     Ce51    10.0   .     S
Er49     Er37    10.0   1_455     S
Ce50     Ce51    10.0   .     S
Ce50     Er52    10.0   .     S
Ce50     Ce55    10.0   .     S
Ce50     Ce63    10.0   .     S
Ce51     Ce54    10.0   .     S
Ce51     Ce66    10.0   .     S
Er53     V11    10.0   1_556     S
Er53     Ce54    10.0   .     S
Er53     Er33    10.0   1_456     S
Ce54     Ce55    10.0   .     S
Ce54     Ce70    10.0   .     S
Ce55     Er56    10.0   .     S
Ce55     Ce60    10.0   .     S
Er56     V9    10.0   1_556     S
Er56     Er32    10.0   1_556     S
Ce57     Ce60    10.0   .     S
Ce57     Er58    10.0   .     S
Ce57     Ce62    10.0   .     S
Ce57     Ce71    10.0   .     S
Er58     V1    10.0   1_566     S
Er58     Er36    10.0   1_566     S
Er59     V2    10.0   1_556     S
Er59     Ce60    10.0   .     S
Er59     Er41    10.0   1_556     S
Ce60     Ce63    10.0   .     S
Er61     Ce63    10.0   .     S
Ce62     Ce63    10.0   .     S
Ce62     Er64    10.0   .     S
Ce62     Ce67    10.0   .     S
Er64     V13    10.0   1_565     S
Er64     Er40    10.0   1_565     S
Er65     V22    10.0   1_565     S
Er65     Ce67    10.0   .     S
Er65     Er25    10.0   1_565     S
Ce66     Ce67    10.0   .     S
Ce66     Er68    10.0   .     S
Ce66     Ce70    10.0   .     S
Ce67     Ce71    10.0   .     S
Er68     Er45    10.0   1_455     S
Er69     V5    10.0   1_556     S
Er69     Ce70    10.0   .     S
Er69     Er44    10.0   1_456     S
Ce70     Ce71    10.0   .     S
Ce71     Er72    10.0   .     S
Er72     V7    10.0   1_566     S
Er72     Er29    10.0   1_566     S
