data_key
_audit_creation_date              2020-02-02
_audit_creation_method            'Pymatgen'
_symmetry_space_group_name_H-M    'P1'
_symmetry_Int_Tables_number       1
loop_
_symmetry_equiv_pos_as_xyz
  x,y,z
_cell_length_a                    24.8677
_cell_length_b                    24.8677
_cell_length_c                    13.0915
_cell_angle_alpha                 90.0
_cell_angle_beta                 90.0
_cell_angle_gamma                 120.0
loop_
_atom_site_label
_atom_site_type_symbol
_atom_site_fract_x
_atom_site_fract_y
_atom_site_fract_z
Er1     Er     0.3333   0.6667   0.5
V2     V     0.0   0.0   0.0
Ti3     Ti     0.6003   0.0   0.0
Ti4     Ti     0.6003   0.6003   0.0
Ti5     Ti     0.0   0.6003   0.0
Ti6     Ti     0.0   0.3997   0.0
Ti7     Ti     0.3997   0.0   0.0
Ti8     Ti     0.3997   0.3997   0.0
Er9     Er     0.6667   0.3333   0.5
loop_
_geom_bond_atom_site_label_1
_geom_bond_atom_site_label_2
_geom_bond_distance
_geom_bond_site_symmetry_2
_ccdc_geom_bond_type
Er1     Ti4    10.03   .     S
Er1     Ti7    10.03   1_565     S
Er1     Ti3    10.03   1_566     S
Er1     Ti5    10.03   1_556     S
Er1     Ti8    10.03   1_556     S
Er1     Ti6    10.03   .     S
V2     Ti6    9.94   .     S
V2     Ti7    9.94   .     S
V2     Ti8    9.94   .     S
V2     Ti5    9.94   1_545     S
V2     Ti3    9.94   1_455     S
V2     Ti4    9.94   1_445     S
Ti3     V2    9.94   1_655     S
Ti3     Er1    10.03   1_544     S
Ti3     Er9    10.03   .     S
Ti4     V2    9.94   1_665     S
Ti4     Er9    10.03   1_554     S
Ti5     V2    9.94   1_565     S
Ti5     Er1    10.03   1_554     S
Ti5     Er9    10.03   1_455     S
Ti6     Er9    10.03   1_454     S
Ti7     Er1    10.03   1_545     S
Ti7     Er9    10.03   1_554     S
Ti8     Er1    10.03   1_554     S
Ti8     Er9    10.03   .     S
Er9     Ti4    10.03   1_556     S
Er9     Ti5    10.03   1_655     S
Er9     Ti7    10.03   1_556     S
Er9     Ti6    10.03   1_656     S
