data_keya
_audit_creation_date              2020-02-02
_audit_creation_method            'Pymatgen'
_symmetry_space_group_name_H-M    'P1'
_symmetry_Int_Tables_number       1
loop_
_symmetry_equiv_pos_as_xyz
  x,y,z
_cell_length_a                    61.2302
_cell_length_b                    61.2302
_cell_length_c                    24.3956
_cell_angle_alpha                 90.0
_cell_angle_beta                 90.0
_cell_angle_gamma                 120.0
loop_
_atom_site_label
_atom_site_type_symbol
_atom_site_fract_x
_atom_site_fract_y
_atom_site_fract_z
V1     V     0.7612   0.334   0.1674
V2     V     0.7612   0.4272   0.8326
V3     V     0.666   0.2388   0.8326
V4     V     0.5728   0.2388   0.1674
V5     V     0.666   0.4272   0.1674
V6     V     0.5728   0.334   0.8326
Er7     Er     0.9202   0.4263   0.3889
Ce8     Ce     0.0   0.6744   0.5
Ce9     Ce     0.6744   0.6744   0.5
Ce10     Ce     0.3256   0.3256   0.5
Ce11     Ce     0.3256   0.0   0.5
Ce12     Ce     0.0   0.3256   0.5
Ce13     Ce     0.6744   0.0   0.5
Ti14     Ti     0.8372   0.0   0.5
Ti15     Ti     0.8372   0.8372   0.5
Ti16     Ti     0.0   0.8372   0.5
Ti17     Ti     0.1628   0.1628   0.5
Ti18     Ti     0.0   0.1628   0.5
Ti19     Ti     0.1628   0.0   0.5
Er20     Er     0.0798   0.5737   0.3889
Er21     Er     0.4263   0.5061   0.3889
Er22     Er     0.4263   0.9202   0.6111
Er23     Er     0.0798   0.5061   0.6111
Er24     Er     0.4939   0.9202   0.3889
Er25     Er     0.5737   0.0798   0.6111
Er26     Er     0.5737   0.4939   0.3889
Er27     Er     0.9202   0.4939   0.6111
Er28     Er     0.5061   0.4263   0.6111
Er29     Er     0.4939   0.5737   0.6111
Er30     Er     0.5061   0.0798   0.3889
V31     V     0.334   0.7612   0.8326
V32     V     0.4272   0.7612   0.1674
V33     V     0.2388   0.666   0.1674
V34     V     0.2388   0.5728   0.8326
V35     V     0.334   0.5728   0.1674
V36     V     0.4272   0.666   0.8326
loop_
_geom_bond_atom_site_label_1
_geom_bond_atom_site_label_2
_geom_bond_distance
_geom_bond_site_symmetry_2
_ccdc_geom_bond_type
V1     V2    9.964   1_554     S
V1     V5    9.996   .     S
V1     V4    9.996   .     S
V1     V3    10.034   1_554     S
V1     Er7    10.044   .     S
V2     V1    9.964   1_556     S
V2     V6    9.996   .     S
V2     V3    9.996   .     S
V2     V5    10.034   1_556     S
V2     Er27    10.044   .     S
V3     V4    9.964   1_556     S
V3     V6    9.996   .     S
V3     V1    10.034   1_556     S
V3     Er25    10.044   .     S
V4     V3    9.964   1_554     S
V4     V5    9.996   .     S
V4     V6    10.034   1_554     S
V4     Er30    10.044   .     S
V5     V6    9.964   1_554     S
V5     V2    10.034   1_554     S
V5     Er26    10.044   .     S
V6     V5    9.964   1_556     S
V6     V4    10.034   1_556     S
V6     Er28    10.044   .     S
Er7     Ce12    9.969   1_655     S
Er7     Er23    10.048   1_655     S
Ce8     Ti16    9.968   .     S
Ce8     Er27    9.969   1_455     S
Ce8     Er20    9.969   .     S
Ce9     Ti15    9.968   .     S
Ce9     Er29    9.969   .     S
Ce9     Er26    9.969   .     S
Ce10     Ti17    9.968   .     S
Ce10     Er28    9.969   .     S
Ce10     Er21    9.969   .     S
Ce11     Ti19    9.968   .     S
Ce11     Er30    9.969   .     S
Ce11     Er22    9.969   1_545     S
Ce12     Er7    9.969   1_455     S
Ce12     Ti18    9.968   .     S
Ce12     Er23    9.969   .     S
Ce13     Ti14    9.968   .     S
Ce13     Er25    9.969   .     S
Ce13     Er24    9.969   1_545     S
Ti14     Ti15    9.967   1_545     S
Ti14     Ti18    9.967   1_655     S
Ti15     Ti14    9.967   1_565     S
Ti15     Ti16    9.967   1_655     S
Ti16     Ti15    9.967   1_455     S
Ti16     Ti19    9.967   1_565     S
Ti17     Ti19    9.967   .     S
Ti17     Ti18    9.967   .     S
Ti18     Ti14    9.967   1_455     S
Ti19     Ti16    9.967   1_545     S
Er20     Er27    10.048   1_455     S
Er20     V33    10.044   .     S
Er21     Er28    10.048   .     S
Er21     V35    10.044   .     S
Er22     Ce11    9.969   1_565     S
Er22     Er30    10.048   1_565     S
Er22     V31    10.044   .     S
Er23     Er7    10.048   1_455     S
Er23     V34    10.044   .     S
Er24     Ce13    9.969   1_565     S
Er24     Er25    10.048   1_565     S
Er24     V32    10.044   .     S
Er25     Er24    10.048   1_545     S
Er26     Er29    10.048   .     S
Er27     Ce8    9.969   1_655     S
Er27     Er20    10.048   1_655     S
Er29     V36    10.044   .     S
Er30     Er22    10.048   1_545     S
V31     V32    9.964   1_556     S
V31     V34    9.996   .     S
V31     V36    9.996   .     S
V31     V33    10.034   1_556     S
V32     V31    9.964   1_554     S
V32     V33    9.996   .     S
V32     V35    9.996   .     S
V32     V36    10.034   1_554     S
V33     V34    9.964   1_554     S
V33     V35    9.996   .     S
V33     V31    10.034   1_554     S
V34     V33    9.964   1_556     S
V34     V36    9.996   .     S
V34     V35    10.034   1_556     S
V35     V36    9.964   1_554     S
V35     V34    10.034   1_554     S
V36     V35    9.964   1_556     S
V36     V32    10.034   1_556     S
