data_kez
_audit_creation_date              2020-02-02
_audit_creation_method            'Pymatgen'
_symmetry_space_group_name_H-M    'P1'
_symmetry_Int_Tables_number       1
loop_
_symmetry_equiv_pos_as_xyz
  x,y,z
_cell_length_a                    25.0099
_cell_length_b                    25.0099
_cell_length_c                    25.7993
_cell_angle_alpha                 90.0
_cell_angle_beta                 90.0
_cell_angle_gamma                 120.0
loop_
_atom_site_label
_atom_site_type_symbol
_atom_site_fract_x
_atom_site_fract_y
_atom_site_fract_z
V1     V     0.3333   0.6667   0.0
V2     V     0.6667   0.3333   0.0
Ti3     Ti     0.0   0.0   0.25
Er4     Er     0.6002   0.0   0.25
Er5     Er     0.3998   0.0   0.25
Er6     Er     0.3998   0.3998   0.25
Er7     Er     0.0   0.3998   0.25
Er8     Er     0.6002   0.6002   0.25
Er9     Er     0.0   0.6002   0.25
V10     V     0.6667   0.3333   0.5
V11     V     0.3333   0.6667   0.5
Ti12     Ti     0.0   0.0   0.75
Er13     Er     0.3998   0.0   0.75
Er14     Er     0.6002   0.0   0.75
Er15     Er     0.0   0.3998   0.75
Er16     Er     0.3998   0.3998   0.75
Er17     Er     0.0   0.6002   0.75
Er18     Er     0.6002   0.6002   0.75
loop_
_geom_bond_atom_site_label_1
_geom_bond_atom_site_label_2
_geom_bond_distance
_geom_bond_site_symmetry_2
_ccdc_geom_bond_type
V1     Er8    10.0   .     S
V1     Er5    10.0   1_565     S
V1     Er18    10.0   1_554     S
V1     Er13    10.0   1_564     S
V1     Er7    10.0   .     S
V1     Er15    10.0   1_554     S
V2     Er9    10.0   1_655     S
V2     Er6    10.0   .     S
V2     Er17    10.0   1_654     S
V2     Er16    10.0   1_554     S
V2     Er4    10.0   .     S
V2     Er14    10.0   1_554     S
Ti3     Er4    10.0   1_455     S
Ti3     Er8    10.0   1_445     S
Ti3     Er9    10.0   1_545     S
Ti3     Er5    10.0   .     S
Ti3     Er7    10.0   .     S
Ti3     Er6    10.0   .     S
Er4     Ti3    10.0   1_655     S
Er4     V11    10.0   1_545     S
Er5     V1    10.0   1_545     S
Er5     V10    10.0   .     S
Er6     V11    10.0   .     S
Er7     V10    10.0   1_455     S
Er8     Ti3    10.0   1_665     S
Er8     V10    10.0   .     S
Er9     V2    10.0   1_455     S
Er9     Ti3    10.0   1_565     S
Er9     V11    10.0   .     S
V10     Er18    10.0   .     S
V10     Er13    10.0   .     S
V10     Er7    10.0   1_655     S
V10     Er15    10.0   1_655     S
V11     Er4    10.0   1_565     S
V11     Er14    10.0   1_565     S
V11     Er17    10.0   .     S
V11     Er16    10.0   .     S
Ti12     Er17    10.0   1_545     S
Ti12     Er13    10.0   .     S
Ti12     Er14    10.0   1_455     S
Ti12     Er18    10.0   1_445     S
Ti12     Er16    10.0   .     S
Ti12     Er15    10.0   .     S
Er13     V1    10.0   1_546     S
Er14     V2    10.0   1_556     S
Er14     V11    10.0   1_545     S
Er14     Ti12    10.0   1_655     S
Er15     V1    10.0   1_556     S
Er15     V10    10.0   1_455     S
Er16     V2    10.0   1_556     S
Er17     V2    10.0   1_456     S
Er17     Ti12    10.0   1_565     S
Er18     V1    10.0   1_556     S
Er18     Ti12    10.0   1_665     S
