data_keza
_audit_creation_date              2020-02-02
_audit_creation_method            'Pymatgen'
_symmetry_space_group_name_H-M    'P1'
_symmetry_Int_Tables_number       1
loop_
_symmetry_equiv_pos_as_xyz
  x,y,z
_cell_length_a                    60.9484
_cell_length_b                    60.9484
_cell_length_c                    56.3076
_cell_angle_alpha                 90.0
_cell_angle_beta                 90.0
_cell_angle_gamma                 120.0
loop_
_atom_site_label
_atom_site_type_symbol
_atom_site_fract_x
_atom_site_fract_y
_atom_site_fract_z
Ti1     Ti     0.8359   0.8359   0.75
Ti2     Ti     0.8359   0.0   0.75
Ti3     Ti     0.0   0.1641   0.75
Ti4     Ti     0.1641   0.1641   0.75
Ti5     Ti     0.1641   0.0   0.75
Ti6     Ti     0.0   0.8359   0.75
Ce7     Ce     0.6719   0.0   0.75
Ce8     Ce     0.6719   0.0   0.25
Ce9     Ce     0.0   0.6719   0.75
Ce10     Ce     0.6719   0.6719   0.75
Ce11     Ce     0.0   0.6719   0.25
Ce12     Ce     0.6719   0.6719   0.25
Ce13     Ce     0.3282   0.0   0.25
Ce14     Ce     0.3282   0.3282   0.25
Ce15     Ce     0.0   0.3282   0.25
Ce16     Ce     0.3282   0.0   0.75
Ce17     Ce     0.0   0.3282   0.75
Ce18     Ce     0.3282   0.3282   0.75
Er19     Er     0.4326   0.5079   0.304
Er20     Er     0.5674   0.4921   0.304
Er21     Er     0.4921   0.5674   0.196
Er22     Er     0.5079   0.4326   0.196
V23     V     0.6236   0.3989   0.4112
V24     V     0.6011   0.2247   0.4112
V25     V     0.7753   0.3764   0.4112
V26     V     0.6236   0.2247   0.0888
V27     V     0.6011   0.3764   0.0888
V28     V     0.7753   0.3989   0.0888
Er29     Er     0.9248   0.4921   0.196
Er30     Er     0.9248   0.4326   0.304
Er31     Er     0.0752   0.5079   0.196
Er32     Er     0.0752   0.5674   0.304
V33     V     0.3989   0.6236   0.0888
V34     V     0.2247   0.6011   0.0888
V35     V     0.3764   0.7753   0.0888
Er36     Er     0.5674   0.0752   0.196
Er37     Er     0.5079   0.0752   0.304
Er38     Er     0.4326   0.9248   0.196
Er39     Er     0.4921   0.9248   0.304
V40     V     0.3989   0.7753   0.4112
V41     V     0.3764   0.6011   0.4112
V42     V     0.2247   0.6236   0.4112
Er43     Er     0.4326   0.5079   0.6961
Er44     Er     0.5674   0.4921   0.6961
Er45     Er     0.5079   0.4326   0.8039
Er46     Er     0.4921   0.5674   0.8039
V47     V     0.6236   0.3989   0.5888
V48     V     0.6011   0.2247   0.5888
V49     V     0.7753   0.3764   0.5888
Er50     Er     0.9248   0.4921   0.8039
Er51     Er     0.9248   0.4326   0.6961
Er52     Er     0.0752   0.5079   0.8039
Er53     Er     0.0752   0.5674   0.6961
V54     V     0.3989   0.7753   0.5888
V55     V     0.3764   0.6011   0.5888
V56     V     0.2247   0.6236   0.5888
V57     V     0.6236   0.2247   0.9112
V58     V     0.6011   0.3764   0.9112
V59     V     0.7753   0.3989   0.9112
Er60     Er     0.5674   0.0752   0.8039
Er61     Er     0.5079   0.0752   0.6961
Er62     Er     0.4326   0.9248   0.8039
Er63     Er     0.4921   0.9248   0.6961
V64     V     0.3989   0.6236   0.9112
V65     V     0.2247   0.6011   0.9112
V66     V     0.3764   0.7753   0.9112
Ti67     Ti     0.1641   0.1641   0.25
Ti68     Ti     0.1641   0.0   0.25
Ti69     Ti     0.0   0.8359   0.25
Ti70     Ti     0.8359   0.8359   0.25
Ti71     Ti     0.8359   0.0   0.25
Ti72     Ti     0.0   0.1641   0.25
loop_
_geom_bond_atom_site_label_1
_geom_bond_atom_site_label_2
_geom_bond_distance
_geom_bond_site_symmetry_2
_ccdc_geom_bond_type
Ti1     Ti6    10.0   1_655     S
Ti1     Ti2    10.0   1_565     S
Ti1     Ce10    10.0   .     S
Ti2     Ti3    10.0   1_655     S
Ti2     Ti1    10.0   1_545     S
Ti2     Ce7    10.0   .     S
Ti3     Ti2    10.0   1_455     S
Ti3     Ti4    10.0   .     S
Ti3     Ce17    10.0   .     S
Ti4     Ti5    10.0   .     S
Ti4     Ce18    10.0   .     S
Ti5     Ti6    10.0   1_545     S
Ti5     Ce16    10.0   .     S
Ti6     Ti1    10.0   1_455     S
Ti6     Ti5    10.0   1_565     S
Ti6     Ce9    10.0   .     S
Ce7     Er60    10.0   .     S
Ce7     Er63    10.0   1_545     S
Ce8     Er36    10.0   .     S
Ce8     Er39    10.0   1_545     S
Ce8     Ti71    10.0   .     S
Ce9     Er53    10.0   .     S
Ce9     Er50    10.0   1_455     S
Ce10     Er44    10.0   .     S
Ce10     Er46    10.0   .     S
Ce11     Er32    10.0   .     S
Ce11     Er29    10.0   1_455     S
Ce11     Ti69    10.0   .     S
Ce12     Er20    10.0   .     S
Ce12     Er21    10.0   .     S
Ce12     Ti70    10.0   .     S
Ce13     Er38    10.0   1_545     S
Ce13     Er37    10.0   .     S
Ce13     Ti68    10.0   .     S
Ce14     Er22    10.0   .     S
Ce14     Er19    10.0   .     S
Ce14     Ti67    10.0   .     S
Ce15     Er30    10.0   1_455     S
Ce15     Er31    10.0   .     S
Ce15     Ti72    10.0   .     S
Ce16     Er62    10.0   1_545     S
Ce16     Er61    10.0   .     S
Ce17     Er51    10.0   1_455     S
Ce17     Er52    10.0   .     S
Ce18     Er45    10.0   .     S
Ce18     Er43    10.0   .     S
Er19     Er22    10.0   .     S
Er19     V41    10.0   .     S
Er20     Er21    10.0   .     S
Er20     V23    10.0   .     S
Er21     V33    10.0   .     S
Er22     V27    10.0   .     S
V23     V25    10.0   .     S
V23     V24    10.0   .     S
V23     V47    10.0   .     S
V24     Er37    10.0   .     S
V24     V25    10.0   .     S
V24     V48    10.0   .     S
V25     Er30    10.0   .     S
V25     V49    10.0   .     S
V26     Er36    10.0   .     S
V26     V28    10.0   .     S
V26     V27    10.0   .     S
V26     V57    10.0   1_554     S
V27     V28    10.0   .     S
V27     V58    10.0   1_554     S
V28     Er29    10.0   .     S
V28     V59    10.0   1_554     S
Er29     Ce11    10.0   1_655     S
Er29     Er32    10.0   1_655     S
Er30     Ce15    10.0   1_655     S
Er30     Er31    10.0   1_655     S
Er31     Er30    10.0   1_455     S
Er31     V34    10.0   .     S
Er32     Er29    10.0   1_455     S
Er32     V42    10.0   .     S
V33     V35    10.0   .     S
V33     V34    10.0   .     S
V33     V64    10.0   1_554     S
V34     V35    10.0   .     S
V34     V65    10.0   1_554     S
V35     Er38    10.0   .     S
V35     V66    10.0   1_554     S
Er36     Er39    10.0   1_545     S
Er37     Er38    10.0   1_545     S
Er38     Ce13    10.0   1_565     S
Er38     Er37    10.0   1_565     S
Er39     Ce8    10.0   1_565     S
Er39     Er36    10.0   1_565     S
Er39     V40    10.0   .     S
V40     V41    10.0   .     S
V40     V42    10.0   .     S
V40     V54    10.0   .     S
V41     V42    10.0   .     S
V41     V55    10.0   .     S
V42     V56    10.0   .     S
Er43     Er45    10.0   .     S
Er43     V55    10.0   .     S
Er44     Er46    10.0   .     S
Er44     V47    10.0   .     S
Er45     V58    10.0   .     S
Er46     V64    10.0   .     S
V47     V49    10.0   .     S
V47     V48    10.0   .     S
V48     Er61    10.0   .     S
V48     V49    10.0   .     S
V49     Er51    10.0   .     S
Er50     Ce9    10.0   1_655     S
Er50     Er53    10.0   1_655     S
Er50     V59    10.0   .     S
Er51     Ce17    10.0   1_655     S
Er51     Er52    10.0   1_655     S
Er52     Er51    10.0   1_455     S
Er52     V65    10.0   .     S
Er53     Er50    10.0   1_455     S
Er53     V56    10.0   .     S
V54     Er63    10.0   .     S
V54     V55    10.0   .     S
V54     V56    10.0   .     S
V55     V56    10.0   .     S
V57     Er60    10.0   .     S
V57     V59    10.0   .     S
V57     V58    10.0   .     S
V57     V26    10.0   1_556     S
V58     V59    10.0   .     S
V58     V27    10.0   1_556     S
V59     V28    10.0   1_556     S
Er60     Er63    10.0   1_545     S
Er61     Er62    10.0   1_545     S
Er62     Ce16    10.0   1_565     S
Er62     Er61    10.0   1_565     S
Er62     V66    10.0   .     S
Er63     Ce7    10.0   1_565     S
Er63     Er60    10.0   1_565     S
V64     V66    10.0   .     S
V64     V65    10.0   .     S
V64     V33    10.0   1_556     S
V65     V66    10.0   .     S
V65     V34    10.0   1_556     S
V66     V35    10.0   1_556     S
Ti67     Ti72    10.0   .     S
Ti67     Ti68    10.0   .     S
Ti68     Ti69    10.0   1_545     S
Ti69     Ti68    10.0   1_565     S
Ti69     Ti70    10.0   1_455     S
Ti70     Ti69    10.0   1_655     S
Ti70     Ti71    10.0   1_565     S
Ti71     Ti72    10.0   1_655     S
Ti71     Ti70    10.0   1_545     S
Ti72     Ti71    10.0   1_455     S
