data_kgh
_audit_creation_date              2020-02-02
_audit_creation_method            'Pymatgen'
_symmetry_space_group_name_H-M    'P1'
_symmetry_Int_Tables_number       1
loop_
_symmetry_equiv_pos_as_xyz
  x,y,z
_cell_length_a                    77.9929
_cell_length_b                    77.9929
_cell_length_c                    77.9929
_cell_angle_alpha                 90.0
_cell_angle_beta                 90.0
_cell_angle_gamma                 90.0
loop_
_atom_site_label
_atom_site_type_symbol
_atom_site_fract_x
_atom_site_fract_y
_atom_site_fract_z
V1     V     0.6631   0.6631   0.6631
V2     V     0.1631   0.1631   0.1631
V3     V     0.5869   0.5869   0.5869
Er4     Er     0.8645   0.5178   0.1428
Er5     Er     0.7322   0.3855   0.1072
Ti6     Ti     0.7527   0.4827   0.1883
Ti7     Ti     0.7673   0.4973   0.0617
Er8     Er     0.6355   0.5178   0.8572
Er9     Er     0.7678   0.3855   0.8928
Ti10     Ti     0.7473   0.4827   0.8117
Ti11     Ti     0.7327   0.4973   0.9383
Er12     Er     0.8645   0.4822   0.3572
Er13     Er     0.7322   0.6145   0.3928
Ti14     Ti     0.7527   0.5173   0.3117
Ti15     Ti     0.7673   0.5027   0.4383
Er16     Er     0.7678   0.6145   0.6072
Er17     Er     0.6355   0.4822   0.6428
Ti18     Ti     0.7473   0.5173   0.6883
Ti19     Ti     0.7327   0.5027   0.5617
Er20     Er     0.4822   0.3572   0.8645
Er21     Er     0.6145   0.3928   0.7322
Ti22     Ti     0.5173   0.3117   0.7527
Ti23     Ti     0.5027   0.4383   0.7673
Er24     Er     0.6145   0.6072   0.7678
Er25     Er     0.4822   0.6428   0.6355
Ti26     Ti     0.5173   0.6883   0.7473
Ti27     Ti     0.5027   0.5617   0.7327
Er28     Er     0.5178   0.1428   0.8645
Er29     Er     0.3855   0.1072   0.7322
Ti30     Ti     0.4827   0.1883   0.7527
Ti31     Ti     0.4973   0.0617   0.7673
Er32     Er     0.5178   0.8572   0.6355
Er33     Er     0.3855   0.8928   0.7678
Ti34     Ti     0.4827   0.8117   0.7473
Ti35     Ti     0.4973   0.9383   0.7327
V36     V     0.0869   0.0869   0.0869
V37     V     0.5869   0.4131   0.9131
V38     V     0.9131   0.4131   0.0869
V39     V     0.9131   0.5869   0.4131
Er40     Er     0.8572   0.6355   0.5178
Er41     Er     0.8928   0.7678   0.3855
Ti42     Ti     0.8117   0.7473   0.4827
Ti43     Ti     0.9383   0.7327   0.4973
Er44     Er     0.3572   0.8645   0.4822
Er45     Er     0.3928   0.7322   0.6145
Ti46     Ti     0.3117   0.7527   0.5173
Ti47     Ti     0.4383   0.7673   0.5027
Er48     Er     0.6072   0.7678   0.6145
Er49     Er     0.6428   0.6355   0.4822
Ti50     Ti     0.6883   0.7473   0.5173
Ti51     Ti     0.5617   0.7327   0.5027
Er52     Er     0.1428   0.8645   0.5178
Er53     Er     0.1072   0.7322   0.3855
Ti54     Ti     0.1883   0.7527   0.4827
Ti55     Ti     0.0617   0.7673   0.4973
V56     V     0.4131   0.0869   0.9131
V57     V     0.4131   0.9131   0.5869
V58     V     0.0869   0.9131   0.4131
V59     V     0.6631   0.3369   0.8369
V60     V     0.3369   0.8369   0.6631
V61     V     0.3369   0.1631   0.8369
Er62     Er     0.6072   0.2322   0.8855
Er63     Er     0.6428   0.3645   0.0178
Ti64     Ti     0.5617   0.2673   0.9973
Ti65     Ti     0.6883   0.2527   0.9827
Er66     Er     0.3928   0.2678   0.8855
Er67     Er     0.3572   0.1355   0.0178
Ti68     Ti     0.4383   0.2327   0.9973
Ti69     Ti     0.3117   0.2473   0.9827
Er70     Er     0.1072   0.2678   0.1145
Er71     Er     0.1428   0.1355   0.9822
Ti72     Ti     0.0617   0.2327   0.0027
Ti73     Ti     0.1883   0.2473   0.0173
Er74     Er     0.8572   0.3645   0.9822
Er75     Er     0.8928   0.2322   0.1145
Ti76     Ti     0.8117   0.2527   0.0173
Ti77     Ti     0.9383   0.2673   0.0027
Er78     Er     0.2678   0.1145   0.1072
Er79     Er     0.1355   0.9822   0.1428
Ti80     Ti     0.2327   0.0027   0.0617
Ti81     Ti     0.2473   0.0173   0.1883
Er82     Er     0.3645   0.9822   0.8572
Er83     Er     0.2322   0.1145   0.8928
Ti84     Ti     0.2527   0.0173   0.8117
Ti85     Ti     0.2673   0.0027   0.9383
Er86     Er     0.2678   0.8855   0.3928
Er87     Er     0.1355   0.0178   0.3572
Ti88     Ti     0.2327   0.9973   0.4383
Ti89     Ti     0.2473   0.9827   0.3117
Er90     Er     0.2322   0.8855   0.6072
Er91     Er     0.3645   0.0178   0.6428
Ti92     Ti     0.2673   0.9973   0.5617
Ti93     Ti     0.2527   0.9827   0.6883
V94     V     0.1631   0.8369   0.3369
V95     V     0.8369   0.6631   0.3369
V96     V     0.8369   0.3369   0.1631
Er97     Er     0.8855   0.6072   0.2322
Er98     Er     0.0178   0.6428   0.3645
Ti99     Ti     0.9973   0.5617   0.2673
Ti100     Ti     0.9827   0.6883   0.2527
Er101     Er     0.8855   0.3928   0.2678
Er102     Er     0.0178   0.3572   0.1355
Ti103     Ti     0.9973   0.4383   0.2327
Ti104     Ti     0.9827   0.3117   0.2473
Er105     Er     0.1145   0.1072   0.2678
Er106     Er     0.9822   0.1428   0.1355
Ti107     Ti     0.0027   0.0617   0.2327
Ti108     Ti     0.0173   0.1883   0.2473
Er109     Er     0.9822   0.8572   0.3645
Er110     Er     0.1145   0.8928   0.2322
Ti111     Ti     0.0173   0.8117   0.2527
Ti112     Ti     0.0027   0.9383   0.2673
loop_
_geom_bond_atom_site_label_1
_geom_bond_atom_site_label_2
_geom_bond_distance
_geom_bond_site_symmetry_2
_ccdc_geom_bond_type
V1     Er16    10.0   .     S
V1     Er24    10.0   .     S
V1     Er48    10.0   .     S
V2     Er78    10.0   .     S
V2     Er105    10.0   .     S
V2     Er70    10.0   .     S
V3     Er17    10.0   .     S
V3     Er49    10.0   .     S
V3     Er25    10.0   .     S
Er4     Ti7    9.999   .     S
Er4     V38    10.0   .     S
Er4     Er97    10.001   .     S
Er5     Ti6    9.999   .     S
Er5     V96    10.0   .     S
Er5     Er63    10.001   .     S
Ti6     Ti7    10.0   .     S
Ti6     Ti14    10.0   .     S
Ti7     Ti11    10.0   1_554     S
Er8     Ti11    9.999   .     S
Er8     V37    10.0   .     S
Er8     Er24    10.001   .     S
Er9     Ti10    9.999   .     S
Er9     V59    10.0   .     S
Er9     Er74    10.001   .     S
Ti10     Ti11    10.0   .     S
Ti10     Ti18    10.0   .     S
Ti11     Ti7    10.0   1_556     S
Er12     Ti15    9.999   .     S
Er12     V39    10.0   .     S
Er12     Er101    10.001   .     S
Er13     Ti14    9.999   .     S
Er13     V95    10.0   .     S
Er13     Er49    10.001   .     S
Ti14     Ti15    10.0   .     S
Ti15     Ti19    10.0   .     S
Er16     Ti18    9.999   .     S
Er16     Er40    10.001   .     S
Er17     Ti19    9.999   .     S
Er17     Er21    10.001   .     S
Ti18     Ti19    10.0   .     S
Er20     Ti23    9.999   .     S
Er20     V37    10.0   .     S
Er20     Er66    10.001   .     S
Er21     Ti22    9.999   .     S
Er21     V59    10.0   .     S
Ti22     Ti23    10.0   .     S
Ti22     Ti30    10.0   .     S
Ti23     Ti27    10.0   .     S
Er24     Ti26    9.999   .     S
Er25     Ti27    9.999   .     S
Er25     Er45    10.001   .     S
Ti26     Ti27    10.0   .     S
Ti26     Ti34    10.0   .     S
Er28     Ti31    9.999   .     S
Er28     V56    10.0   .     S
Er28     Er62    10.001   .     S
Er29     Ti30    9.999   .     S
Er29     V61    10.0   .     S
Er29     Er91    10.001   .     S
Ti30     Ti31    10.0   .     S
Ti31     Ti35    10.0   1_545     S
Er32     Ti35    9.999   .     S
Er32     V57    10.0   .     S
Er32     Er48    10.001   .     S
Er33     Ti34    9.999   .     S
Er33     V60    10.0   .     S
Er33     Er82    10.001   .     S
Ti34     Ti35    10.0   .     S
Ti35     Ti31    10.0   1_565     S
V36     Er79    10.0   1_545     S
V36     Er71    10.0   1_554     S
V36     Er106    10.0   1_455     S
V37     Er63    10.0   1_556     S
V38     Er102    10.0   1_655     S
V38     Er74    10.0   1_554     S
V39     Er40    10.0   .     S
V39     Er98    10.0   1_655     S
Er40     Ti43    9.999   .     S
Er41     Ti42    9.999   .     S
Er41     V95    10.0   .     S
Er41     Er109    10.001   .     S
Ti42     Ti43    10.0   .     S
Ti42     Ti50    10.0   .     S
Ti43     Ti55    10.0   1_655     S
Er44     Ti47    9.999   .     S
Er44     V57    10.0   .     S
Er44     Er86    10.001   .     S
Er45     Ti46    9.999   .     S
Er45     V60    10.0   .     S
Ti46     Ti47    10.0   .     S
Ti46     Ti54    10.0   .     S
Ti47     Ti51    10.0   .     S
Er48     Ti50    9.999   .     S
Er49     Ti51    9.999   .     S
Ti50     Ti51    10.0   .     S
Er52     Ti55    9.999   .     S
Er52     V58    10.0   .     S
Er52     Er90    10.001   .     S
Er53     Ti54    9.999   .     S
Er53     V94    10.0   .     S
Er53     Er98    10.001   .     S
Ti54     Ti55    10.0   .     S
Ti55     Ti43    10.0   1_455     S
V56     Er82    10.0   1_545     S
V56     Er67    10.0   1_556     S
V57     Er91    10.0   1_565     S
V58     Er87    10.0   1_565     S
V58     Er109    10.0   1_455     S
V59     Er62    10.0   .     S
V60     Er90    10.0   .     S
V61     Er83    10.0   .     S
V61     Er66    10.0   .     S
Er62     Ti65    9.999   .     S
Er63     V37    10.0   1_554     S
Er63     Ti64    9.999   1_554     S
Ti64     Ti65    10.0   .     S
Ti64     Er63    9.999   1_556     S
Ti64     Ti68    10.0   .     S
Ti65     Ti76    10.0   1_556     S
Er66     Ti69    9.999   .     S
Er67     V56    10.0   1_554     S
Er67     Ti68    9.999   1_554     S
Er67     Er78    10.001   .     S
Ti68     Ti69    10.0   .     S
Ti68     Er67    9.999   1_556     S
Ti69     Ti73    10.0   1_556     S
Er70     Ti73    9.999   .     S
Er70     Er102    10.001   .     S
Er71     V36    10.0   1_556     S
Er71     Ti72    9.999   1_556     S
Er71     Er83    10.001   .     S
Ti72     Ti73    10.0   .     S
Ti72     Er71    9.999   1_554     S
Ti72     Ti77    10.0   1_455     S
Ti73     Ti69    10.0   1_554     S
Er74     V38    10.0   1_556     S
Er74     Ti77    9.999   1_556     S
Er75     Ti76    9.999   .     S
Er75     V96    10.0   .     S
Er75     Er106    10.001   .     S
Ti76     Ti65    10.0   1_554     S
Ti76     Ti77    10.0   .     S
Ti77     Er74    9.999   1_554     S
Ti77     Ti72    10.0   1_655     S
Er78     Ti81    9.999   .     S
Er79     V36    10.0   1_565     S
Er79     Ti80    9.999   1_565     S
Er79     Er110    10.001   .     S
Ti80     Ti81    10.0   .     S
Ti80     Er79    9.999   1_545     S
Ti80     Ti85    10.0   1_554     S
Ti81     Ti89    10.0   1_545     S
Er82     V56    10.0   1_565     S
Er82     Ti85    9.999   1_565     S
Er83     Ti84    9.999   .     S
Ti84     Ti85    10.0   .     S
Ti84     Ti93    10.0   1_545     S
Ti85     Er82    9.999   1_545     S
Ti85     Ti80    10.0   1_556     S
Er86     Ti89    9.999   .     S
Er86     V94    10.0   .     S
Er87     V58    10.0   1_545     S
Er87     Ti88    9.999   1_545     S
Er87     Er105    10.001   .     S
Ti88     Ti89    10.0   .     S
Ti88     Er87    9.999   1_565     S
Ti88     Ti92    10.0   .     S
Ti89     Ti81    10.0   1_565     S
Er90     Ti93    9.999   .     S
Er91     V57    10.0   1_545     S
Er91     Ti92    9.999   1_545     S
Ti92     Ti93    10.0   .     S
Ti92     Er91    9.999   1_565     S
Ti93     Ti84    10.0   1_565     S
V94     Er110    10.0   .     S
V95     Er97    10.0   .     S
V96     Er101    10.0   .     S
Er97     Ti100    9.999   .     S
Er98     V39    10.0   1_455     S
Er98     Ti99    9.999   1_455     S
Ti99     Ti100    10.0   .     S
Ti99     Er98    9.999   1_655     S
Ti99     Ti103    10.0   .     S
Ti100     Ti111    10.0   1_655     S
Er101     Ti104    9.999   .     S
Er102     V38    10.0   1_455     S
Er102     Ti103    9.999   1_455     S
Ti103     Ti104    10.0   .     S
Ti103     Er102    9.999   1_655     S
Ti104     Ti108    10.0   1_655     S
Er105     Ti108    9.999   .     S
Er106     V36    10.0   1_655     S
Er106     Ti107    9.999   1_655     S
Ti107     Ti108    10.0   .     S
Ti107     Er106    9.999   1_455     S
Ti107     Ti112    10.0   1_545     S
Ti108     Ti104    10.0   1_455     S
Er109     V58    10.0   1_655     S
Er109     Ti112    9.999   1_655     S
Er110     Ti111    9.999   .     S
Ti111     Ti100    10.0   1_455     S
Ti111     Ti112    10.0   .     S
Ti112     Er109    9.999   1_455     S
Ti112     Ti107    10.0   1_565     S
