data_kgl
_audit_creation_date              2020-02-02
_audit_creation_method            'Pymatgen'
_symmetry_space_group_name_H-M    'P1'
_symmetry_Int_Tables_number       1
loop_
_symmetry_equiv_pos_as_xyz
  x,y,z
_cell_length_a                    57.4065
_cell_length_b                    57.4065
_cell_length_c                    57.4065
_cell_angle_alpha                 90.0
_cell_angle_beta                 90.0
_cell_angle_gamma                 90.0
loop_
_atom_site_label
_atom_site_type_symbol
_atom_site_fract_x
_atom_site_fract_y
_atom_site_fract_z
Ti1     Ti     0.6512   0.6512   0.6512
Ti2     Ti     0.6512   0.6512   0.3488
Ti3     Ti     0.6512   0.3488   0.6512
Ti4     Ti     0.3488   0.6512   0.3488
Ti5     Ti     0.3488   0.3488   0.6512
Ti6     Ti     0.3488   0.6512   0.6512
Ti7     Ti     0.6512   0.3488   0.3488
Ti8     Ti     0.3488   0.3488   0.3488
V9     V     0.7719   0.6542   0.5256
V10     V     0.6542   0.7719   0.4744
V11     V     0.5256   0.7719   0.6542
V12     V     0.4744   0.6542   0.7719
V13     V     0.6542   0.5256   0.7719
V14     V     0.7719   0.4744   0.6542
V15     V     0.2281   0.3458   0.5256
V16     V     0.3458   0.2281   0.4744
V17     V     0.3458   0.7719   0.5256
V18     V     0.2281   0.6542   0.4744
V19     V     0.3458   0.4744   0.7719
V20     V     0.2281   0.5256   0.6542
Er21     Er     0.9222   0.5948   0.4608
Er22     Er     0.9222   0.4052   0.5392
Er23     Er     0.9222   0.4608   0.4052
Er24     Er     0.9222   0.5392   0.5948
Er25     Er     0.0778   0.4052   0.4608
Er26     Er     0.0778   0.5948   0.5392
Er27     Er     0.0778   0.5392   0.4052
Er28     Er     0.0778   0.4608   0.5948
V29     V     0.3458   0.5256   0.2281
V30     V     0.2281   0.4744   0.3458
V31     V     0.7719   0.5256   0.3458
V32     V     0.6542   0.4744   0.2281
V33     V     0.4744   0.7719   0.3458
V34     V     0.5256   0.6542   0.2281
Er35     Er     0.4052   0.5392   0.9222
Er36     Er     0.4608   0.4052   0.9222
Er37     Er     0.5948   0.4608   0.9222
Er38     Er     0.5392   0.5948   0.9222
Er39     Er     0.4052   0.4608   0.0778
Er40     Er     0.5948   0.5392   0.0778
Er41     Er     0.4608   0.5948   0.0778
Er42     Er     0.5392   0.4052   0.0778
V43     V     0.5256   0.2281   0.3458
V44     V     0.4744   0.3458   0.2281
V45     V     0.5256   0.3458   0.7719
V46     V     0.4744   0.2281   0.6542
V47     V     0.7719   0.3458   0.4744
V48     V     0.6542   0.2281   0.5256
Er49     Er     0.4052   0.9222   0.4608
Er50     Er     0.5948   0.9222   0.5392
Er51     Er     0.5392   0.9222   0.4052
Er52     Er     0.4608   0.9222   0.5948
Er53     Er     0.4608   0.0778   0.4052
Er54     Er     0.5948   0.0778   0.4608
Er55     Er     0.4052   0.0778   0.5392
Er56     Er     0.5392   0.0778   0.5948
loop_
_geom_bond_atom_site_label_1
_geom_bond_atom_site_label_2
_geom_bond_distance
_geom_bond_site_symmetry_2
_ccdc_geom_bond_type
Ti1     V11    10.0   .     S
Ti1     V9    10.0   .     S
Ti1     V13    10.0   .     S
Ti2     V10    10.0   .     S
Ti2     V31    10.0   .     S
Ti2     V34    10.0   .     S
Ti3     V14    10.0   .     S
Ti3     V45    10.0   .     S
Ti3     V48    10.0   .     S
Ti4     V33    10.0   .     S
Ti4     V18    10.0   .     S
Ti4     V29    10.0   .     S
Ti5     V19    10.0   .     S
Ti5     V46    10.0   .     S
Ti5     V15    10.0   .     S
Ti6     V12    10.0   .     S
Ti6     V17    10.0   .     S
Ti6     V20    10.0   .     S
Ti7     V47    10.0   .     S
Ti7     V32    10.0   .     S
Ti7     V43    10.0   .     S
Ti8     V30    10.0   .     S
Ti8     V16    10.0   .     S
Ti8     V44    10.0   .     S
V9     V10    10.0   .     S
V9     Er21    10.0   .     S
V10     Er50    10.0   .     S
V11     V12    10.0   .     S
V11     Er52    10.0   .     S
V12     Er38    10.0   .     S
V13     V14    10.0   .     S
V13     Er37    10.0   .     S
V14     Er24    10.0   .     S
V15     V16    10.0   .     S
V15     Er25    10.0   .     S
V16     Er55    10.0   .     S
V17     V18    10.0   .     S
V17     Er49    10.0   .     S
V18     Er26    10.0   .     S
V19     V20    10.0   .     S
V19     Er35    10.0   .     S
V20     Er28    10.0   .     S
Er21     Er27    10.0   1_655     S
Er21     Er26    10.0   1_655     S
Er22     Er25    10.0   1_655     S
Er22     Er28    10.0   1_655     S
Er22     V47    10.0   .     S
Er23     Er25    10.0   1_655     S
Er23     Er27    10.0   1_655     S
Er23     V31    10.0   .     S
Er24     Er26    10.0   1_655     S
Er24     Er28    10.0   1_655     S
Er25     Er22    10.0   1_455     S
Er25     Er23    10.0   1_455     S
Er26     Er21    10.0   1_455     S
Er26     Er24    10.0   1_455     S
Er27     Er23    10.0   1_455     S
Er27     Er21    10.0   1_455     S
Er27     V30    10.0   .     S
Er28     Er24    10.0   1_455     S
Er28     Er22    10.0   1_455     S
V29     V30    10.0   .     S
V29     Er39    10.0   .     S
V31     V32    10.0   .     S
V32     Er40    10.0   .     S
V33     V34    10.0   .     S
V33     Er51    10.0   .     S
V34     Er41    10.0   .     S
Er35     Er39    10.0   1_556     S
Er35     Er41    10.0   1_556     S
Er36     Er39    10.0   1_556     S
Er36     Er42    10.0   1_556     S
Er36     V45    10.0   .     S
Er37     Er42    10.0   1_556     S
Er37     Er40    10.0   1_556     S
Er38     Er41    10.0   1_556     S
Er38     Er40    10.0   1_556     S
Er39     Er35    10.0   1_554     S
Er39     Er36    10.0   1_554     S
Er40     Er37    10.0   1_554     S
Er40     Er38    10.0   1_554     S
Er41     Er35    10.0   1_554     S
Er41     Er38    10.0   1_554     S
Er42     Er36    10.0   1_554     S
Er42     Er37    10.0   1_554     S
Er42     V44    10.0   .     S
V43     V44    10.0   .     S
V43     Er53    10.0   .     S
V45     V46    10.0   .     S
V46     Er56    10.0   .     S
V47     V48    10.0   .     S
V48     Er54    10.0   .     S
Er49     Er53    10.0   1_565     S
Er49     Er55    10.0   1_565     S
Er50     Er54    10.0   1_565     S
Er50     Er56    10.0   1_565     S
Er51     Er53    10.0   1_565     S
Er51     Er54    10.0   1_565     S
Er52     Er55    10.0   1_565     S
Er52     Er56    10.0   1_565     S
Er53     Er51    10.0   1_545     S
Er53     Er49    10.0   1_545     S
Er54     Er51    10.0   1_545     S
Er54     Er50    10.0   1_545     S
Er55     Er49    10.0   1_545     S
Er55     Er52    10.0   1_545     S
Er56     Er52    10.0   1_545     S
Er56     Er50    10.0   1_545     S
