data_kgo
_audit_creation_date              2020-02-02
_audit_creation_method            'Pymatgen'
_symmetry_space_group_name_H-M    'P1'
_symmetry_Int_Tables_number       1
loop_
_symmetry_equiv_pos_as_xyz
  x,y,z
_cell_length_a                    91.641
_cell_length_b                    91.641
_cell_length_c                    91.641
_cell_angle_alpha                 90.0
_cell_angle_beta                 90.0
_cell_angle_gamma                 90.0
loop_
_atom_site_label
_atom_site_type_symbol
_atom_site_fract_x
_atom_site_fract_y
_atom_site_fract_z
Ti1     Ti     0.514   0.514   0.736
Ti2     Ti     0.514   0.736   0.514
Ti3     Ti     0.736   0.514   0.514
Ti4     Ti     0.736   0.736   0.736
Ti5     Ti     0.236   0.514   0.014
Ti6     Ti     0.514   0.014   0.236
Ti7     Ti     0.014   0.236   0.514
Ti8     Ti     0.014   0.014   0.736
Ti9     Ti     0.014   0.736   0.014
Ti10     Ti     0.736   0.014   0.014
Ti11     Ti     0.764   0.486   0.986
Ti12     Ti     0.486   0.986   0.764
Ti13     Ti     0.986   0.764   0.486
Ti14     Ti     0.236   0.236   0.736
Ti15     Ti     0.764   0.764   0.264
Ti16     Ti     0.764   0.264   0.764
Ti17     Ti     0.264   0.764   0.764
Ti18     Ti     0.236   0.014   0.514
Ti19     Ti     0.236   0.736   0.236
Ti20     Ti     0.736   0.236   0.236
Ti21     Ti     0.986   0.264   0.986
Ti22     Ti     0.264   0.986   0.986
Ti23     Ti     0.986   0.986   0.264
Ti24     Ti     0.514   0.236   0.014
Ti25     Ti     0.014   0.514   0.236
Ti26     Ti     0.486   0.764   0.986
Ti27     Ti     0.764   0.986   0.486
Ti28     Ti     0.986   0.486   0.764
Ti29     Ti     0.264   0.264   0.264
Ti30     Ti     0.486   0.486   0.264
Ti31     Ti     0.486   0.264   0.486
Ti32     Ti     0.264   0.486   0.486
Er33     Er     0.4484   0.6509   0.4948
V34     V     0.3963   0.6004   0.5763
Er35     Er     0.5052   0.5516   0.3491
V36     V     0.4237   0.6037   0.3996
Er37     Er     0.6509   0.4948   0.4484
V38     V     0.6004   0.5763   0.3963
Er39     Er     0.5516   0.3491   0.5052
V40     V     0.6037   0.3996   0.4237
Er41     Er     0.4948   0.4484   0.6509
V42     V     0.5763   0.3963   0.6004
Er43     Er     0.3491   0.5052   0.5516
V44     V     0.3996   0.4237   0.6037
Er45     Er     0.6509   0.2552   0.3016
V46     V     0.6004   0.1737   0.3537
Er47     Er     0.4484   0.0991   0.2552
V48     V     0.3963   0.1495   0.1737
Er49     Er     0.5052   0.1984   0.4009
V50     V     0.4237   0.1463   0.3504
Er51     Er     0.5516   0.4009   0.2448
V52     V     0.6037   0.3504   0.3263
Er53     Er     0.3491   0.2448   0.1984
V54     V     0.3996   0.3263   0.1463
Er55     Er     0.4948   0.3016   0.0991
V56     V     0.5763   0.3537   0.1495
Er57     Er     0.2552   0.3016   0.6509
V58     V     0.1737   0.3537   0.6004
Er59     Er     0.0991   0.2552   0.4484
V60     V     0.1495   0.1737   0.3963
Er61     Er     0.1984   0.4009   0.5052
V62     V     0.1463   0.3504   0.4237
Er63     Er     0.4009   0.2448   0.5516
V64     V     0.3504   0.3263   0.6037
Er65     Er     0.2448   0.1984   0.3491
V66     V     0.3263   0.1463   0.3996
Er67     Er     0.3016   0.0991   0.4948
V68     V     0.3537   0.1495   0.5763
Er69     Er     0.3016   0.6509   0.2552
V70     V     0.3537   0.6004   0.1737
Er71     Er     0.2552   0.4484   0.0991
V72     V     0.1737   0.3963   0.1495
Er73     Er     0.4009   0.5052   0.1984
V74     V     0.3504   0.4237   0.1463
Er75     Er     0.2448   0.5516   0.4009
V76     V     0.3263   0.6037   0.3504
Er77     Er     0.1984   0.3491   0.2448
V78     V     0.1463   0.3996   0.3263
Er79     Er     0.0991   0.4948   0.3016
V80     V     0.1495   0.5763   0.3537
Er81     Er     0.6984   0.8491   0.2448
V82     V     0.6463   0.8996   0.3263
Er83     Er     0.7552   0.9484   0.0991
V84     V     0.6737   0.8963   0.1495
Er85     Er     0.5991   0.9948   0.3016
V86     V     0.6496   0.0763   0.3537
Er87     Er     0.9009   0.0052   0.1984
V88     V     0.8504   0.9237   0.1463
Er89     Er     0.8016   0.1509   0.2552
V90     V     0.8537   0.1004   0.1737
Er91     Er     0.7448   0.0516   0.4009
V92     V     0.8263   0.1037   0.3504
Er93     Er     0.9948   0.9484   0.6509
V94     V     0.0763   0.8963   0.6004
Er95     Er     0.0516   0.8491   0.5052
V96     V     0.1037   0.8996   0.4237
Er97     Er     0.1509   0.9948   0.4484
V98     V     0.1004   0.0763   0.3963
Er99     Er     0.8491   0.0052   0.5516
V100     V     0.8996   0.9237   0.6037
Er101     Er     0.9484   0.1509   0.4948
V102     V     0.8963   0.1004   0.5763
Er103     Er     0.0052   0.0516   0.3491
V104     V     0.9237   0.1037   0.3996
Er105     Er     0.8491   0.7448   0.1984
V106     V     0.8996   0.8263   0.1463
Er107     Er     0.9948   0.8016   0.0991
V108     V     0.0763   0.8537   0.1495
Er109     Er     0.0516   0.9009   0.2448
V110     V     0.1037   0.8504   0.3263
Er111     Er     0.9484   0.5991   0.2552
V112     V     0.8963   0.6496   0.1737
Er113     Er     0.1509   0.7552   0.3016
V114     V     0.1004   0.6737   0.3537
Er115     Er     0.0052   0.6984   0.4009
V116     V     0.9237   0.6463   0.3504
Er117     Er     0.9009   0.7448   0.5516
V118     V     0.8504   0.8263   0.6037
Er119     Er     0.5991   0.7552   0.4484
V120     V     0.6496   0.6737   0.3963
Er121     Er     0.8016   0.5991   0.4948
V122     V     0.8537   0.6496   0.5763
Er123     Er     0.7448   0.6984   0.3491
V124     V     0.8263   0.6463   0.3996
Er125     Er     0.6984   0.9009   0.5052
V126     V     0.6463   0.8504   0.4237
Er127     Er     0.7552   0.8016   0.6509
V128     V     0.6737   0.8537   0.6004
Er129     Er     0.8491   0.2448   0.6984
V130     V     0.8996   0.3263   0.6463
Er131     Er     0.9484   0.0991   0.7552
V132     V     0.8963   0.1495   0.6737
Er133     Er     0.9948   0.3016   0.5991
V134     V     0.0763   0.3537   0.6496
Er135     Er     0.0052   0.1984   0.9009
V136     V     0.9237   0.1463   0.8504
Er137     Er     0.1509   0.2552   0.8016
V138     V     0.1004   0.1737   0.8537
Er139     Er     0.0516   0.4009   0.7448
V140     V     0.1037   0.3504   0.8263
Er141     Er     0.7448   0.1984   0.8491
V142     V     0.8263   0.1463   0.8996
Er143     Er     0.8016   0.0991   0.9948
V144     V     0.8537   0.1495   0.0763
Er145     Er     0.9009   0.2448   0.0516
V146     V     0.8504   0.3263   0.1037
Er147     Er     0.5991   0.2552   0.9484
V148     V     0.6496   0.1737   0.8963
Er149     Er     0.7552   0.3016   0.1509
V150     V     0.6737   0.3537   0.1004
Er151     Er     0.6984   0.4009   0.0052
V152     V     0.6463   0.3504   0.9237
Er153     Er     0.9484   0.6509   0.9948
V154     V     0.8963   0.6004   0.0763
Er155     Er     0.8491   0.5052   0.0516
V156     V     0.8996   0.4237   0.1037
Er157     Er     0.0052   0.5516   0.8491
V158     V     0.9237   0.6037   0.8996
Er159     Er     0.9948   0.4484   0.1509
V160     V     0.0763   0.3963   0.1004
Er161     Er     0.1509   0.4948   0.9484
V162     V     0.1004   0.5763   0.8963
Er163     Er     0.0516   0.3491   0.0052
V164     V     0.1037   0.3996   0.9237
Er165     Er     0.7552   0.4484   0.5991
V166     V     0.6737   0.3963   0.6496
Er167     Er     0.7448   0.5516   0.9009
V168     V     0.8263   0.6037   0.8504
Er169     Er     0.5991   0.4948   0.8016
V170     V     0.6496   0.5763   0.8537
Er171     Er     0.6984   0.3491   0.7448
V172     V     0.6463   0.3996   0.8263
Er173     Er     0.9009   0.5052   0.6984
V174     V     0.8504   0.4237   0.6463
Er175     Er     0.8016   0.6509   0.7552
V176     V     0.8537   0.6004   0.6737
Er177     Er     0.2448   0.6984   0.8491
V178     V     0.3263   0.6463   0.8996
Er179     Er     0.0991   0.7552   0.9484
V180     V     0.1495   0.6737   0.8963
Er181     Er     0.3016   0.5991   0.9948
V182     V     0.3537   0.6496   0.0763
Er183     Er     0.1984   0.9009   0.0052
V184     V     0.1463   0.8504   0.9237
Er185     Er     0.2552   0.8016   0.1509
V186     V     0.1737   0.8537   0.1004
Er187     Er     0.4009   0.7448   0.0516
V188     V     0.3504   0.8263   0.1037
Er189     Er     0.6509   0.9948   0.9484
V190     V     0.6004   0.0763   0.8963
Er191     Er     0.5052   0.0516   0.8491
V192     V     0.4237   0.1037   0.8996
Er193     Er     0.4484   0.1509   0.9948
V194     V     0.3963   0.1004   0.0763
Er195     Er     0.5516   0.8491   0.0052
V196     V     0.6037   0.8996   0.9237
Er197     Er     0.4948   0.9484   0.1509
V198     V     0.5763   0.8963   0.1004
Er199     Er     0.3491   0.0052   0.0516
V200     V     0.3996   0.9237   0.1037
Er201     Er     0.1984   0.8491   0.7448
V202     V     0.1463   0.8996   0.8263
Er203     Er     0.0991   0.9948   0.8016
V204     V     0.1495   0.0763   0.8537
Er205     Er     0.2448   0.0516   0.9009
V206     V     0.3263   0.1037   0.8504
Er207     Er     0.2552   0.9484   0.5991
V208     V     0.1737   0.8963   0.6496
Er209     Er     0.3016   0.1509   0.7552
V210     V     0.3537   0.1004   0.6737
Er211     Er     0.4009   0.0052   0.6984
V212     V     0.3504   0.9237   0.6463
Er213     Er     0.5516   0.9009   0.7448
V214     V     0.6037   0.8504   0.8263
Er215     Er     0.4484   0.5991   0.7552
V216     V     0.3963   0.6496   0.6737
Er217     Er     0.4948   0.8016   0.5991
V218     V     0.5763   0.8537   0.6496
Er219     Er     0.3491   0.7448   0.6984
V220     V     0.3996   0.8263   0.6463
Er221     Er     0.5052   0.6984   0.9009
V222     V     0.4237   0.6463   0.8504
Er223     Er     0.6509   0.7552   0.8016
V224     V     0.6004   0.6737   0.8537
loop_
_geom_bond_atom_site_label_1
_geom_bond_atom_site_label_2
_geom_bond_distance
_geom_bond_site_symmetry_2
_ccdc_geom_bond_type
Ti1     Er41    10.001   .     S
Ti1     Er169    10.001   .     S
Ti1     Er215    10.001   .     S
Ti2     Er217    10.001   .     S
Ti2     Er119    10.001   .     S
Ti2     Er33    10.001   .     S
Ti3     Er165    10.001   .     S
Ti3     Er37    10.001   .     S
Ti3     Er121    10.001   .     S
Ti4     Er127    10.001   .     S
Ti4     Er223    10.001   .     S
Ti4     Er175    10.001   .     S
Ti5     Er71    10.001   .     S
Ti5     Er181    10.001   1_554     S
Ti5     Er161    10.001   1_554     S
Ti6     Er85    10.001   1_545     S
Ti6     Er47    10.001   .     S
Ti6     Er197    10.001   1_545     S
Ti7     Er133    10.001   1_455     S
Ti7     Er59    10.001   .     S
Ti7     Er101    10.001   1_455     S
Ti8     Er203    10.001   1_545     S
Ti8     Er93    10.001   1_445     S
Ti8     Er131    10.001   1_455     S
Ti9     Er107    10.001   1_455     S
Ti9     Er153    10.001   1_454     S
Ti9     Er179    10.001   1_554     S
Ti10     Er143    10.001   1_554     S
Ti10     Er189    10.001   1_544     S
Ti10     Er83    10.001   1_545     S
Ti11     Er167    10.001   .     S
Ti11     Er151    10.001   1_556     S
Ti11     Er155    10.001   1_556     S
Ti12     Er213    10.001   .     S
Ti12     Er211    10.001   1_565     S
Ti12     Er191    10.001   1_565     S
Ti13     Er117    10.001   .     S
Ti13     Er115    10.001   1_655     S
Ti13     Er95    10.001   1_655     S
Ti14     Er57    10.001   .     S
Ti14     Er137    10.001   .     S
Ti14     Er209    10.001   .     S
Ti15     Er81    10.001   .     S
Ti15     Er123    10.001   .     S
Ti15     Er105    10.001   .     S
Ti16     Er129    10.001   .     S
Ti16     Er171    10.001   .     S
Ti16     Er141    10.001   .     S
Ti17     Er177    10.001   .     S
Ti17     Er219    10.001   .     S
Ti17     Er201    10.001   .     S
Ti18     Er97    10.001   1_545     S
Ti18     Er67    10.001   .     S
Ti18     Er207    10.001   1_545     S
Ti19     Er69    10.001   .     S
Ti19     Er185    10.001   .     S
Ti19     Er113    10.001   .     S
Ti20     Er45    10.001   .     S
Ti20     Er89    10.001   .     S
Ti20     Er149    10.001   .     S
Ti21     Er135    10.001   1_655     S
Ti21     Er145    10.001   1_556     S
Ti21     Er163    10.001   1_656     S
Ti22     Er183    10.001   1_556     S
Ti22     Er205    10.001   1_565     S
Ti22     Er199    10.001   1_566     S
Ti23     Er87    10.001   1_565     S
Ti23     Er109    10.001   1_655     S
Ti23     Er103    10.001   1_665     S
Ti24     Er193    10.001   1_554     S
Ti24     Er55    10.001   .     S
Ti24     Er147    10.001   1_554     S
Ti25     Er159    10.001   1_455     S
Ti25     Er79    10.001   .     S
Ti25     Er111    10.001   1_455     S
Ti26     Er221    10.001   .     S
Ti26     Er195    10.001   1_556     S
Ti26     Er187    10.001   1_556     S
Ti27     Er125    10.001   .     S
Ti27     Er99    10.001   1_565     S
Ti27     Er91    10.001   1_565     S
Ti28     Er173    10.001   .     S
Ti28     Er157    10.001   1_655     S
Ti28     Er139    10.001   1_655     S
Ti29     Er65    10.001   .     S
Ti29     Er53    10.001   .     S
Ti29     Er77    10.001   .     S
Ti30     Er51    10.001   .     S
Ti30     Er35    10.001   .     S
Ti30     Er73    10.001   .     S
Ti31     Er63    10.001   .     S
Ti31     Er39    10.001   .     S
Ti31     Er49    10.001   .     S
Ti32     Er75    10.001   .     S
Ti32     Er43    10.001   .     S
Ti32     Er61    10.001   .     S
Er33     V36    9.999   .     S
Er33     V34    9.999   .     S
V34     Er43    9.999   .     S
V34     V216    10.001   .     S
Er35     V38    9.999   .     S
Er35     V36    9.999   .     S
V36     V76    10.001   .     S
Er37     V40    9.999   .     S
Er37     V38    9.999   .     S
V38     V120    10.001   .     S
Er39     V42    9.999   .     S
Er39     V40    9.999   .     S
V40     V52    10.001   .     S
Er41     V44    9.999   .     S
Er41     V42    9.999   .     S
V42     V166    10.001   .     S
Er43     V44    9.999   .     S
V44     V64    10.001   .     S
Er45     V52    9.999   .     S
Er45     V46    9.999   .     S
V46     Er49    9.999   .     S
V46     V86    10.001   .     S
Er47     V50    9.999   .     S
Er47     V48    9.999   .     S
V48     Er53    9.999   .     S
V48     V194    10.001   .     S
Er49     V50    9.999   .     S
V50     V66    10.001   .     S
Er51     V56    9.999   .     S
Er51     V52    9.999   .     S
Er53     V54    9.999   .     S
V54     Er55    9.999   .     S
V54     V74    10.001   .     S
Er55     V56    9.999   .     S
V56     V150    10.001   .     S
Er57     V64    9.999   .     S
Er57     V58    9.999   .     S
V58     Er61    9.999   .     S
V58     V134    10.001   .     S
Er59     V62    9.999   .     S
Er59     V60    9.999   .     S
V60     Er65    9.999   .     S
V60     V98    10.001   .     S
Er61     V62    9.999   .     S
V62     V78    10.001   .     S
Er63     V68    9.999   .     S
Er63     V64    9.999   .     S
Er65     V66    9.999   .     S
V66     Er67    9.999   .     S
Er67     V68    9.999   .     S
V68     V210    10.001   .     S
Er69     V76    9.999   .     S
Er69     V70    9.999   .     S
V70     Er73    9.999   .     S
V70     V182    10.001   .     S
Er71     V74    9.999   .     S
Er71     V72    9.999   .     S
V72     Er77    9.999   .     S
V72     V160    10.001   .     S
Er73     V74    9.999   .     S
Er75     V80    9.999   .     S
Er75     V76    9.999   .     S
Er77     V78    9.999   .     S
V78     Er79    9.999   .     S
Er79     V80    9.999   .     S
V80     V114    10.001   .     S
Er81     V84    9.999   .     S
Er81     V82    9.999   .     S
V82     Er85    9.999   .     S
V82     V126    10.001   .     S
Er83     Ti10    10.001   1_565     S
Er83     V88    9.999   .     S
Er83     V84    9.999   .     S
V84     V198    10.001   .     S
Er85     Ti6    10.001   1_565     S
Er85     V86    9.999   1_565     S
V86     Er85    9.999   1_545     S
V86     Er91    9.999   .     S
Er87     Ti23    10.001   1_545     S
Er87     V90    9.999   .     S
Er87     V88    9.999   1_545     S
V88     Er87    9.999   1_565     S
V88     V106    10.001   .     S
Er89     V92    9.999   .     S
Er89     V90    9.999   .     S
V90     V144    10.001   .     S
Er91     Ti27    10.001   1_545     S
Er91     V92    9.999   .     S
V92     V104    10.001   .     S
Er93     Ti8    10.001   1_665     S
Er93     V100    9.999   .     S
Er93     V94    9.999   1_655     S
V94     Er93    9.999   1_455     S
V94     Er95    9.999   .     S
V94     V208    10.001   .     S
Er95     Ti13    10.001   1_455     S
Er95     V96    9.999   .     S
V96     Er97    9.999   .     S
V96     V110    10.001   .     S
Er97     Ti18    10.001   1_565     S
Er97     V98    9.999   1_565     S
V98     Er97    9.999   1_545     S
V98     Er103    9.999   .     S
Er99     Ti27    10.001   1_545     S
Er99     V102    9.999   .     S
Er99     V100    9.999   1_545     S
V100     Er99    9.999   1_565     S
V100     V118    10.001   .     S
Er101     Ti7    10.001   1_655     S
Er101     V104    9.999   .     S
Er101     V102    9.999   .     S
V102     V132    10.001   .     S
Er103     Ti23    10.001   1_445     S
Er103     V104    9.999   1_455     S
V104     Er103    9.999   1_655     S
Er105     V112    9.999   .     S
Er105     V106    9.999   .     S
V106     Er107    9.999   .     S
Er107     Ti9    10.001   1_655     S
Er107     V108    9.999   1_655     S
V108     Er107    9.999   1_455     S
V108     Er109    9.999   .     S
V108     V186    10.001   .     S
Er109     Ti23    10.001   1_455     S
Er109     V110    9.999   .     S
V110     Er113    9.999   .     S
Er111     Ti25    10.001   1_655     S
Er111     V116    9.999   .     S
Er111     V112    9.999   .     S
V112     V154    10.001   .     S
Er113     V114    9.999   .     S
V114     Er115    9.999   .     S
Er115     Ti13    10.001   1_455     S
Er115     V116    9.999   1_455     S
V116     Er115    9.999   1_655     S
V116     V124    10.001   .     S
Er117     V122    9.999   .     S
Er117     V118    9.999   .     S
V118     Er127    9.999   .     S
Er119     V126    9.999   .     S
Er119     V120    9.999   .     S
V120     Er123    9.999   .     S
Er121     V124    9.999   .     S
Er121     V122    9.999   .     S
V122     V176    10.001   .     S
Er123     V124    9.999   .     S
Er125     V128    9.999   .     S
Er125     V126    9.999   .     S
Er127     V128    9.999   .     S
V128     V218    10.001   .     S
Er129     V132    9.999   .     S
Er129     V130    9.999   .     S
V130     Er133    9.999   .     S
V130     V174    10.001   .     S
Er131     Ti8    10.001   1_655     S
Er131     V136    9.999   .     S
Er131     V132    9.999   .     S
Er133     Ti7    10.001   1_655     S
Er133     V134    9.999   1_655     S
V134     Er133    9.999   1_455     S
V134     Er139    9.999   .     S
Er135     Ti21    10.001   1_455     S
Er135     V138    9.999   .     S
Er135     V136    9.999   1_455     S
V136     Er135    9.999   1_655     S
V136     V142    10.001   .     S
Er137     V140    9.999   .     S
Er137     V138    9.999   .     S
V138     V204    10.001   .     S
Er139     Ti28    10.001   1_455     S
Er139     V140    9.999   .     S
V140     V164    10.001   .     S
Er141     V148    9.999   .     S
Er141     V142    9.999   .     S
V142     Er143    9.999   .     S
Er143     Ti10    10.001   1_556     S
Er143     V144    9.999   1_556     S
V144     Er143    9.999   1_554     S
V144     Er145    9.999   .     S
Er145     Ti21    10.001   1_554     S
Er145     V146    9.999   .     S
V146     Er149    9.999   .     S
V146     V156    10.001   .     S
Er147     Ti24    10.001   1_556     S
Er147     V152    9.999   .     S
Er147     V148    9.999   .     S
V148     V190    10.001   .     S
Er149     V150    9.999   .     S
V150     Er151    9.999   .     S
Er151     Ti11    10.001   1_554     S
Er151     V152    9.999   1_554     S
V152     Er151    9.999   1_556     S
V152     V172    10.001   .     S
Er153     Ti9    10.001   1_656     S
Er153     V158    9.999   .     S
Er153     V154    9.999   1_556     S
V154     Er153    9.999   1_554     S
V154     Er155    9.999   .     S
Er155     Ti11    10.001   1_554     S
Er155     V156    9.999   .     S
V156     Er159    9.999   .     S
Er157     Ti28    10.001   1_455     S
Er157     V162    9.999   .     S
Er157     V158    9.999   1_455     S
V158     Er157    9.999   1_655     S
V158     V168    10.001   .     S
Er159     Ti25    10.001   1_655     S
Er159     V160    9.999   1_655     S
V160     Er159    9.999   1_455     S
V160     Er163    9.999   .     S
Er161     Ti5    10.001   1_556     S
Er161     V164    9.999   .     S
Er161     V162    9.999   .     S
V162     V180    10.001   .     S
Er163     Ti21    10.001   1_454     S
Er163     V164    9.999   1_554     S
V164     Er163    9.999   1_556     S
Er165     V174    9.999   .     S
Er165     V166    9.999   .     S
V166     Er171    9.999   .     S
Er167     V170    9.999   .     S
Er167     V168    9.999   .     S
V168     Er175    9.999   .     S
Er169     V172    9.999   .     S
Er169     V170    9.999   .     S
V170     V224    10.001   .     S
Er171     V172    9.999   .     S
Er173     V176    9.999   .     S
Er173     V174    9.999   .     S
Er175     V176    9.999   .     S
Er177     V180    9.999   .     S
Er177     V178    9.999   .     S
V178     Er181    9.999   .     S
V178     V222    10.001   .     S
Er179     Ti9    10.001   1_556     S
Er179     V184    9.999   .     S
Er179     V180    9.999   .     S
Er181     Ti5    10.001   1_556     S
Er181     V182    9.999   1_556     S
V182     Er181    9.999   1_554     S
V182     Er187    9.999   .     S
Er183     Ti22    10.001   1_554     S
Er183     V186    9.999   .     S
Er183     V184    9.999   1_554     S
V184     Er183    9.999   1_556     S
V184     V202    10.001   .     S
Er185     V188    9.999   .     S
Er185     V186    9.999   .     S
Er187     Ti26    10.001   1_554     S
Er187     V188    9.999   .     S
V188     V200    10.001   .     S
Er189     Ti10    10.001   1_566     S
Er189     V196    9.999   .     S
Er189     V190    9.999   1_565     S
V190     Er189    9.999   1_545     S
V190     Er191    9.999   .     S
Er191     Ti12    10.001   1_545     S
Er191     V192    9.999   .     S
V192     Er193    9.999   .     S
V192     V206    10.001   .     S
Er193     Ti24    10.001   1_556     S
Er193     V194    9.999   1_556     S
V194     Er193    9.999   1_554     S
V194     Er199    9.999   .     S
Er195     Ti26    10.001   1_554     S
Er195     V198    9.999   .     S
Er195     V196    9.999   1_554     S
V196     Er195    9.999   1_556     S
V196     V214    10.001   .     S
Er197     Ti6    10.001   1_565     S
Er197     V200    9.999   .     S
Er197     V198    9.999   .     S
Er199     Ti22    10.001   1_544     S
Er199     V200    9.999   1_545     S
V200     Er199    9.999   1_565     S
Er201     V208    9.999   .     S
Er201     V202    9.999   .     S
V202     Er203    9.999   .     S
Er203     Ti8    10.001   1_565     S
Er203     V204    9.999   1_565     S
V204     Er203    9.999   1_545     S
V204     Er205    9.999   .     S
Er205     Ti22    10.001   1_545     S
Er205     V206    9.999   .     S
V206     Er209    9.999   .     S
Er207     Ti18    10.001   1_565     S
Er207     V212    9.999   .     S
Er207     V208    9.999   .     S
Er209     V210    9.999   .     S
V210     Er211    9.999   .     S
Er211     Ti12    10.001   1_545     S
Er211     V212    9.999   1_545     S
V212     Er211    9.999   1_565     S
V212     V220    10.001   .     S
Er213     V218    9.999   .     S
Er213     V214    9.999   .     S
V214     Er223    9.999   .     S
Er215     V222    9.999   .     S
Er215     V216    9.999   .     S
V216     Er219    9.999   .     S
Er217     V220    9.999   .     S
Er217     V218    9.999   .     S
Er219     V220    9.999   .     S
Er221     V224    9.999   .     S
Er221     V222    9.999   .     S
Er223     V224    9.999   .     S
