data_kgu
_audit_creation_date              2020-02-02
_audit_creation_method            'Pymatgen'
_symmetry_space_group_name_H-M    'P1'
_symmetry_Int_Tables_number       1
loop_
_symmetry_equiv_pos_as_xyz
  x,y,z
_cell_length_a                    79.8104
_cell_length_b                    79.8104
_cell_length_c                    79.8104
_cell_angle_alpha                 90.0
_cell_angle_beta                 90.0
_cell_angle_gamma                 90.0
loop_
_atom_site_label
_atom_site_type_symbol
_atom_site_fract_x
_atom_site_fract_y
_atom_site_fract_z
V1     V     0.7599   0.9985   0.8126
V2     V     0.7599   0.0015   0.6874
V3     V     0.8126   0.7599   0.9985
V4     V     0.6874   0.7599   0.0015
Er5     Er     0.8394   0.9316   0.7545
Er6     Er     0.7545   0.8394   0.9316
Er7     Er     0.9316   0.7545   0.8394
Ti8     Ti     0.8415   0.8415   0.8415
V9     V     0.9985   0.8126   0.7599
V10     V     0.0015   0.6874   0.7599
V11     V     0.2401   0.5015   0.8126
V12     V     0.2401   0.4985   0.6874
V13     V     0.5015   0.8126   0.2401
V14     V     0.4985   0.6874   0.2401
V15     V     0.6874   0.2401   0.4985
V16     V     0.8126   0.2401   0.5015
Er17     Er     0.6606   0.9316   0.2455
Er18     Er     0.7455   0.8394   0.0684
Er19     Er     0.5684   0.7545   0.1606
Ti20     Ti     0.6585   0.8415   0.1585
V21     V     0.7401   0.9985   0.1874
V22     V     0.7401   0.0015   0.3126
Er23     Er     0.7455   0.1606   0.4316
Er24     Er     0.5684   0.2455   0.3394
Er25     Er     0.6606   0.0684   0.2545
Ti26     Ti     0.6585   0.1585   0.3415
Er27     Er     0.2455   0.6606   0.9316
Er28     Er     0.1606   0.5684   0.7545
Er29     Er     0.0684   0.7455   0.8394
Ti30     Ti     0.1585   0.6585   0.8415
V31     V     0.1874   0.7401   0.9985
V32     V     0.3126   0.7401   0.0015
Er33     Er     0.2545   0.6606   0.0684
Er34     Er     0.3394   0.5684   0.2455
Er35     Er     0.4316   0.7455   0.1606
Ti36     Ti     0.3415   0.6585   0.1585
V37     V     0.1874   0.2599   0.5015
V38     V     0.3126   0.2599   0.4985
V39     V     0.4985   0.3126   0.2599
V40     V     0.5015   0.1874   0.2599
V41     V     0.2599   0.5015   0.1874
V42     V     0.2599   0.4985   0.3126
Er43     Er     0.4316   0.2545   0.3394
Er44     Er     0.2545   0.3394   0.4316
Er45     Er     0.3394   0.4316   0.2545
Ti46     Ti     0.3415   0.3415   0.3415
Er47     Er     0.9316   0.2455   0.6606
Er48     Er     0.8394   0.0684   0.7455
Er49     Er     0.7545   0.1606   0.5684
Ti50     Ti     0.8415   0.1585   0.6585
V51     V     0.9985   0.1874   0.7401
V52     V     0.0015   0.3126   0.7401
Er53     Er     0.2455   0.3394   0.5684
Er54     Er     0.1606   0.4316   0.7455
Er55     Er     0.0684   0.2545   0.6606
Ti56     Ti     0.1585   0.3415   0.6585
V57     V     0.2485   0.5099   0.9374
V58     V     0.2515   0.5099   0.0626
Er59     Er     0.5894   0.9955   0.1816
Er60     Er     0.6816   0.9106   0.0045
Er61     Er     0.5045   0.8184   0.0894
Ti62     Ti     0.5915   0.9085   0.0915
V63     V     0.5626   0.7515   0.0099
V64     V     0.4374   0.7485   0.0099
Er65     Er     0.4955   0.6816   0.0894
Er66     Er     0.4106   0.5045   0.1816
Er67     Er     0.3184   0.5894   0.0045
Ti68     Ti     0.4085   0.5915   0.0915
V69     V     0.7485   0.9901   0.0626
V70     V     0.7515   0.9901   0.9374
V71     V     0.9374   0.7515   0.9901
V72     V     0.0626   0.7485   0.9901
Er73     Er     0.8184   0.9106   0.9955
Er74     Er     0.9106   0.9955   0.8184
Er75     Er     0.9955   0.8184   0.9106
Ti76     Ti     0.9085   0.9085   0.9085
V77     V     0.9901   0.9374   0.7515
V78     V     0.9901   0.0626   0.7485
Er79     Er     0.9955   0.1816   0.5894
Er80     Er     0.9106   0.0045   0.6816
Er81     Er     0.8184   0.0894   0.5045
Ti82     Ti     0.9085   0.0915   0.5915
V83     V     0.7515   0.0099   0.5626
V84     V     0.7485   0.0099   0.4374
V85     V     0.5099   0.0626   0.2515
V86     V     0.5099   0.9374   0.2485
Er87     Er     0.6816   0.0894   0.4955
Er88     Er     0.5045   0.1816   0.4106
Er89     Er     0.5894   0.0045   0.3184
Ti90     Ti     0.5915   0.0915   0.4085
V91     V     0.4901   0.5626   0.2485
V92     V     0.4901   0.4374   0.2515
V93     V     0.5626   0.2485   0.4901
V94     V     0.4374   0.2515   0.4901
V95     V     0.2485   0.4901   0.5626
V96     V     0.2515   0.4901   0.4374
Er97     Er     0.4106   0.4955   0.3184
Er98     Er     0.3184   0.4106   0.4955
Er99     Er     0.4955   0.3184   0.4106
Ti100     Ti     0.4085   0.4085   0.4085
Er101     Er     0.1816   0.5894   0.9955
Er102     Er     0.0045   0.6816   0.9106
Er103     Er     0.0894   0.5045   0.8184
Ti104     Ti     0.0915   0.5915   0.9085
V105     V     0.0099   0.5626   0.7515
V106     V     0.0099   0.4374   0.7485
V107     V     0.9374   0.2485   0.5099
V108     V     0.0626   0.2515   0.5099
Er109     Er     0.0894   0.4955   0.6816
Er110     Er     0.1816   0.4106   0.5045
Er111     Er     0.0045   0.3184   0.5894
Ti112     Ti     0.0915   0.4085   0.5915
loop_
_geom_bond_atom_site_label_1
_geom_bond_atom_site_label_2
_geom_bond_distance
_geom_bond_site_symmetry_2
_ccdc_geom_bond_type
V1     V2    10.0   1_565     S
V1     Er48    10.0   1_565     S
V1     V70    10.001   .     S
V2     V1    10.0   1_545     S
V2     Er5    10.0   1_545     S
V2     V83    10.001   .     S
V3     V4    10.0   1_556     S
V3     Er18    10.0   1_556     S
V3     V71    10.001   .     S
V4     V3    10.0   1_554     S
V4     Er6    10.0   1_554     S
V4     V63    10.001   .     S
Er5     V2    10.0   1_565     S
Er5     Ti8    10.0   .     S
Er5     Er80    10.0   1_565     S
Er6     V4    10.0   1_556     S
Er6     Ti8    10.0   .     S
Er6     Er60    10.0   1_556     S
Er7     Ti8    10.0   .     S
Er7     V10    10.0   1_655     S
Er7     Er102    10.0   1_655     S
V9     V10    10.0   1_655     S
V9     Er29    10.0   1_655     S
V9     V77    10.001   .     S
V10     V9    10.0   1_455     S
V10     Er7    10.0   1_455     S
V10     V105    10.001   .     S
V11     V12    10.0   .     S
V11     Er54    10.0   .     S
V11     V57    10.001   .     S
V12     Er28    10.0   .     S
V12     V95    10.001   .     S
V13     V14    10.0   .     S
V13     Er35    10.0   .     S
V13     V86    10.001   .     S
V14     Er19    10.0   .     S
V14     V91    10.001   .     S
V15     V16    10.0   .     S
V15     Er49    10.0   .     S
V15     V93    10.001   .     S
V16     Er23    10.0   .     S
V16     V107    10.001   .     S
Er17     Ti20    10.0   .     S
Er17     V22    10.0   1_565     S
Er17     Er89    10.0   1_565     S
Er18     V3    10.0   1_554     S
Er18     Ti20    10.0   .     S
Er18     Er73    10.0   1_554     S
Er19     Ti20    10.0   .     S
Er19     Er65    10.0   .     S
V21     V22    10.0   1_565     S
V21     Er25    10.0   1_565     S
V21     V69    10.001   .     S
V22     V21    10.0   1_545     S
V22     Er17    10.0   1_545     S
V22     V84    10.001   .     S
Er23     Ti26    10.0   .     S
Er23     Er81    10.0   .     S
Er24     Ti26    10.0   .     S
Er24     V39    10.0   .     S
Er24     Er99    10.0   .     S
Er25     V21    10.0   1_545     S
Er25     Ti26    10.0   .     S
Er25     Er59    10.0   1_545     S
Er27     Ti30    10.0   .     S
Er27     V32    10.0   1_556     S
Er27     Er67    10.0   1_556     S
Er28     Ti30    10.0   .     S
Er28     Er109    10.0   .     S
Er29     V9    10.0   1_455     S
Er29     Ti30    10.0   .     S
Er29     Er75    10.0   1_455     S
V31     V32    10.0   1_556     S
V31     Er33    10.0   1_556     S
V31     V72    10.001   .     S
V32     V31    10.0   1_554     S
V32     Er27    10.0   1_554     S
V32     V64    10.001   .     S
Er33     V31    10.0   1_554     S
Er33     Ti36    10.0   .     S
Er33     Er101    10.0   1_554     S
Er34     Ti36    10.0   .     S
Er34     V42    10.0   .     S
Er34     Er97    10.0   .     S
Er35     Ti36    10.0   .     S
Er35     Er61    10.0   .     S
V37     V38    10.0   .     S
V37     Er44    10.0   .     S
V37     V108    10.001   .     S
V38     Er53    10.0   .     S
V38     V94    10.001   .     S
V39     V40    10.0   .     S
V39     V92    10.001   .     S
V40     Er43    10.0   .     S
V40     V85    10.001   .     S
V41     V42    10.0   .     S
V41     Er45    10.0   .     S
V41     V58    10.001   .     S
V42     V96    10.001   .     S
Er43     Ti46    10.0   .     S
Er43     Er88    10.0   .     S
Er44     Ti46    10.0   .     S
Er44     Er110    10.0   .     S
Er45     Ti46    10.0   .     S
Er45     Er66    10.0   .     S
Er47     Ti50    10.0   .     S
Er47     V52    10.0   1_655     S
Er47     Er111    10.0   1_655     S
Er48     V1    10.0   1_545     S
Er48     Ti50    10.0   .     S
Er48     Er74    10.0   1_545     S
Er49     Ti50    10.0   .     S
Er49     Er87    10.0   .     S
V51     V52    10.0   1_655     S
V51     Er55    10.0   1_655     S
V51     V78    10.001   .     S
V52     V51    10.0   1_455     S
V52     Er47    10.0   1_455     S
V52     V106    10.001   .     S
Er53     Ti56    10.0   .     S
Er53     Er98    10.0   .     S
Er54     Ti56    10.0   .     S
Er54     Er103    10.0   .     S
Er55     V51    10.0   1_455     S
Er55     Ti56    10.0   .     S
Er55     Er79    10.0   1_455     S
V57     V58    10.0   1_556     S
V57     Er67    10.0   1_556     S
V58     V57    10.0   1_554     S
V58     Er101    10.0   1_554     S
Er59     Er25    10.0   1_565     S
Er59     Ti62    10.0   .     S
Er59     V85    10.0   1_565     S
Er60     Ti62    10.0   .     S
Er60     V70    10.0   1_554     S
Er60     Er6    10.0   1_554     S
Er61     Ti62    10.0   .     S
Er61     V64    10.0   .     S
V63     V64    10.0   .     S
V63     Er65    10.0   .     S
Er65     Ti68    10.0   .     S
Er66     Ti68    10.0   .     S
Er66     V92    10.0   .     S
Er67     V57    10.0   1_554     S
Er67     Ti68    10.0   .     S
Er67     Er27    10.0   1_554     S
V69     V70    10.0   1_554     S
V69     Er73    10.0   1_554     S
V70     V69    10.0   1_556     S
V70     Er60    10.0   1_556     S
V71     V72    10.0   1_655     S
V71     Er102    10.0   1_655     S
V72     V71    10.0   1_455     S
V72     Er75    10.0   1_455     S
Er73     V69    10.0   1_556     S
Er73     Ti76    10.0   .     S
Er73     Er18    10.0   1_556     S
Er74     Ti76    10.0   .     S
Er74     V78    10.0   1_565     S
Er74     Er48    10.0   1_565     S
Er75     V72    10.0   1_655     S
Er75     Ti76    10.0   .     S
Er75     Er29    10.0   1_655     S
V77     V78    10.0   1_565     S
V77     Er80    10.0   1_565     S
V78     V77    10.0   1_545     S
V78     Er74    10.0   1_545     S
Er79     Er55    10.0   1_655     S
Er79     Ti82    10.0   .     S
Er79     V108    10.0   1_655     S
Er80     V77    10.0   1_545     S
Er80     Ti82    10.0   .     S
Er80     Er5    10.0   1_545     S
Er81     Ti82    10.0   .     S
Er81     V84    10.0   .     S
V83     V84    10.0   .     S
V83     Er87    10.0   .     S
V85     V86    10.0   1_545     S
V85     Er59    10.0   1_545     S
V86     V85    10.0   1_565     S
V86     Er89    10.0   1_565     S
Er87     Ti90    10.0   .     S
Er88     Ti90    10.0   .     S
Er88     V94    10.0   .     S
Er89     V86    10.0   1_545     S
Er89     Ti90    10.0   .     S
Er89     Er17    10.0   1_545     S
V91     V92    10.0   .     S
V91     Er97    10.0   .     S
V93     V94    10.0   .     S
V93     Er99    10.0   .     S
V95     V96    10.0   .     S
V95     Er98    10.0   .     S
V96     Er110    10.0   .     S
Er97     Ti100    10.0   .     S
Er98     Ti100    10.0   .     S
Er99     Ti100    10.0   .     S
Er101     Er33    10.0   1_556     S
Er101     V58    10.0   1_556     S
Er101     Ti104    10.0   .     S
Er102     V71    10.0   1_455     S
Er102     Ti104    10.0   .     S
Er102     Er7    10.0   1_455     S
Er103     Ti104    10.0   .     S
Er103     V106    10.0   .     S
V105     V106    10.0   .     S
V105     Er109    10.0   .     S
V107     V108    10.0   1_655     S
V107     Er111    10.0   1_655     S
V108     V107    10.0   1_455     S
V108     Er79    10.0   1_455     S
Er109     Ti112    10.0   .     S
Er110     Ti112    10.0   .     S
Er111     V107    10.0   1_455     S
Er111     Ti112    10.0   .     S
Er111     Er47    10.0   1_455     S
