data_khn
_audit_creation_date              2020-02-02
_audit_creation_method            'Pymatgen'
_symmetry_space_group_name_H-M    'P1'
_symmetry_Int_Tables_number       1
loop_
_symmetry_equiv_pos_as_xyz
  x,y,z
_cell_length_a                    56.043
_cell_length_b                    56.043
_cell_length_c                    59.2386
_cell_angle_alpha                 90.0
_cell_angle_beta                 90.0
_cell_angle_gamma                 90.0
loop_
_atom_site_label
_atom_site_type_symbol
_atom_site_fract_x
_atom_site_fract_y
_atom_site_fract_z
Er1     Er     0.1166   0.9517   0.179
Er2     Er     0.1166   0.9517   0.821
Er3     Er     0.4517   0.6166   0.179
V4     V     0.3476   0.7214   0.0844
V5     V     0.3476   0.7214   0.9156
V6     V     0.2214   0.8476   0.0844
V7     V     0.2214   0.8476   0.9156
Er8     Er     0.4517   0.6166   0.821
Er9     Er     0.4517   0.3834   0.321
Er10     Er     0.1166   0.0483   0.321
Er11     Er     0.4517   0.3834   0.679
V12     V     0.2214   0.1524   0.4156
V13     V     0.2214   0.1524   0.5844
V14     V     0.3476   0.2786   0.4156
V15     V     0.3476   0.2786   0.5844
Er16     Er     0.1166   0.0483   0.679
Er17     Er     0.5483   0.3834   0.179
Er18     Er     0.5483   0.3834   0.821
Er19     Er     0.8834   0.0483   0.179
V20     V     0.7786   0.1524   0.0844
V21     V     0.7786   0.1524   0.9156
V22     V     0.6524   0.2786   0.0844
V23     V     0.6524   0.2786   0.9156
Er24     Er     0.8834   0.0483   0.821
Er25     Er     0.5483   0.6166   0.321
Er26     Er     0.8834   0.9517   0.321
Er27     Er     0.5483   0.6166   0.679
V28     V     0.6524   0.7214   0.4156
V29     V     0.6524   0.7214   0.5844
V30     V     0.7786   0.8476   0.4156
V31     V     0.7786   0.8476   0.5844
Er32     Er     0.8834   0.9517   0.679
Er33     Er     0.3834   0.5483   0.321
Er34     Er     0.3834   0.5483   0.679
Er35     Er     0.0483   0.8834   0.321
V36     V     0.1524   0.7786   0.4156
V37     V     0.1524   0.7786   0.5844
V38     V     0.2786   0.6524   0.4156
V39     V     0.2786   0.6524   0.5844
Er40     Er     0.0483   0.8834   0.679
Er41     Er     0.9517   0.8834   0.179
Er42     Er     0.6166   0.5483   0.179
Er43     Er     0.6166   0.5483   0.821
V44     V     0.8476   0.7786   0.0844
V45     V     0.8476   0.7786   0.9156
V46     V     0.7214   0.6524   0.0844
V47     V     0.7214   0.6524   0.9156
Er48     Er     0.9517   0.8834   0.821
Er49     Er     0.3834   0.4517   0.179
Er50     Er     0.3834   0.4517   0.821
Er51     Er     0.0483   0.1166   0.179
V52     V     0.1524   0.2214   0.0844
V53     V     0.1524   0.2214   0.9156
V54     V     0.2786   0.3476   0.0844
V55     V     0.2786   0.3476   0.9156
Er56     Er     0.0483   0.1166   0.821
Er57     Er     0.9517   0.1166   0.321
Er58     Er     0.6166   0.4517   0.321
Er59     Er     0.9517   0.1166   0.679
V60     V     0.7214   0.3476   0.4156
V61     V     0.7214   0.3476   0.5844
V62     V     0.8476   0.2214   0.4156
V63     V     0.8476   0.2214   0.5844
Er64     Er     0.6166   0.4517   0.679
loop_
_geom_bond_atom_site_label_1
_geom_bond_atom_site_label_2
_geom_bond_distance
_geom_bond_site_symmetry_2
_ccdc_geom_bond_type
Er1     Er51    10.0   1_565     S
Er1     V6    10.0   .     S
Er1     Er10    10.0   1_565     S
Er1     Er41    10.0   1_455     S
Er1     Er35    10.001   .     S
Er2     Er56    10.0   1_565     S
Er2     V7    10.0   .     S
Er2     Er16    10.0   1_565     S
Er2     Er48    10.0   1_455     S
Er2     Er40    10.001   .     S
Er3     Er42    10.0   .     S
Er3     V4    10.0   .     S
Er3     Er25    10.0   .     S
Er3     Er49    10.0   .     S
Er3     Er33    10.001   .     S
V4     V5    9.999   1_554     S
V4     V6    10.0   .     S
V5     V4    9.999   1_556     S
V5     V7    10.0   .     S
V5     Er8    10.0   .     S
V6     V7    9.999   1_554     S
V7     V6    9.999   1_556     S
Er8     Er43    10.0   .     S
Er8     Er27    10.0   .     S
Er8     Er50    10.0   .     S
Er8     Er34    10.001   .     S
Er9     Er58    10.0   .     S
Er9     V14    10.0   .     S
Er9     Er17    10.0   .     S
Er9     Er33    10.0   .     S
Er9     Er49    10.001   .     S
Er10     Er1    10.0   1_545     S
Er10     Er35    10.0   1_545     S
Er10     V12    10.0   .     S
Er10     Er57    10.0   1_455     S
Er10     Er51    10.001   .     S
Er11     Er64    10.0   .     S
Er11     V15    10.0   .     S
Er11     Er18    10.0   .     S
Er11     Er34    10.0   .     S
Er11     Er50    10.001   .     S
V12     V13    9.999   .     S
V12     V14    10.0   .     S
V13     V15    10.0   .     S
V13     Er16    10.0   .     S
V14     V15    9.999   .     S
Er16     Er40    10.0   1_545     S
Er16     Er2    10.0   1_545     S
Er16     Er59    10.0   1_455     S
Er16     Er56    10.001   .     S
Er17     Er49    10.0   .     S
Er17     V22    10.0   .     S
Er17     Er42    10.0   .     S
Er17     Er58    10.001   .     S
Er18     Er50    10.0   .     S
Er18     V23    10.0   .     S
Er18     Er43    10.0   .     S
Er18     Er64    10.001   .     S
Er19     Er41    10.0   1_545     S
Er19     V20    10.0   .     S
Er19     Er26    10.0   1_545     S
Er19     Er51    10.0   1_655     S
Er19     Er57    10.001   .     S
V20     V21    9.999   1_554     S
V20     V22    10.0   .     S
V21     V20    9.999   1_556     S
V21     V23    10.0   .     S
V21     Er24    10.0   .     S
V22     V23    9.999   1_554     S
V23     V22    9.999   1_556     S
Er24     Er48    10.0   1_545     S
Er24     Er32    10.0   1_545     S
Er24     Er56    10.0   1_655     S
Er24     Er59    10.001   .     S
Er25     Er33    10.0   .     S
Er25     V28    10.0   .     S
Er25     Er58    10.0   .     S
Er25     Er42    10.001   .     S
Er26     Er57    10.0   1_565     S
Er26     V30    10.0   .     S
Er26     Er19    10.0   1_565     S
Er26     Er35    10.0   1_655     S
Er26     Er41    10.001   .     S
Er27     Er34    10.0   .     S
Er27     V29    10.0   .     S
Er27     Er64    10.0   .     S
Er27     Er43    10.001   .     S
V28     V29    9.999   .     S
V28     V30    10.0   .     S
V29     V31    10.0   .     S
V30     V31    9.999   .     S
V31     Er32    10.0   .     S
Er32     Er59    10.0   1_565     S
Er32     Er24    10.0   1_565     S
Er32     Er40    10.0   1_655     S
Er32     Er48    10.001   .     S
Er33     V38    10.0   .     S
Er33     Er49    10.0   .     S
Er34     V39    10.0   .     S
Er34     Er50    10.0   .     S
Er35     Er10    10.0   1_565     S
Er35     Er26    10.0   1_455     S
Er35     V36    10.0   .     S
Er35     Er41    10.0   1_455     S
V36     V37    9.999   .     S
V36     V38    10.0   .     S
V37     V39    10.0   .     S
V37     Er40    10.0   .     S
V38     V39    9.999   .     S
Er40     Er16    10.0   1_565     S
Er40     Er32    10.0   1_455     S
Er40     Er48    10.0   1_455     S
Er41     Er19    10.0   1_565     S
Er41     Er1    10.0   1_655     S
Er41     V44    10.0   .     S
Er41     Er35    10.0   1_655     S
Er42     V46    10.0   .     S
Er42     Er58    10.0   .     S
Er43     V47    10.0   .     S
Er43     Er64    10.0   .     S
V44     V45    9.999   1_554     S
V44     V46    10.0   .     S
V45     V44    9.999   1_556     S
V45     V47    10.0   .     S
V45     Er48    10.0   .     S
V46     V47    9.999   1_554     S
V47     V46    9.999   1_556     S
Er48     Er24    10.0   1_565     S
Er48     Er40    10.0   1_655     S
Er48     Er2    10.0   1_655     S
Er49     V54    10.0   .     S
Er50     V55    10.0   .     S
Er51     Er1    10.0   1_545     S
Er51     Er19    10.0   1_455     S
Er51     V52    10.0   .     S
Er51     Er57    10.0   1_455     S
V52     V53    9.999   1_554     S
V52     V54    10.0   .     S
V53     V52    9.999   1_556     S
V53     V55    10.0   .     S
V53     Er56    10.0   .     S
V54     V55    9.999   1_554     S
V55     V54    9.999   1_556     S
Er56     Er2    10.0   1_545     S
Er56     Er24    10.0   1_455     S
Er56     Er59    10.0   1_455     S
Er57     Er26    10.0   1_545     S
Er57     Er10    10.0   1_655     S
Er57     V62    10.0   .     S
Er57     Er51    10.0   1_655     S
Er58     V60    10.0   .     S
Er59     Er32    10.0   1_545     S
Er59     Er16    10.0   1_655     S
Er59     V63    10.0   .     S
Er59     Er56    10.0   1_655     S
V60     V61    9.999   .     S
V60     V62    10.0   .     S
V61     V63    10.0   .     S
V61     Er64    10.0   .     S
V62     V63    9.999   .     S
