data_kkm
_audit_creation_date              2020-02-02
_audit_creation_method            'Pymatgen'
_symmetry_space_group_name_H-M    'P1'
_symmetry_Int_Tables_number       1
loop_
_symmetry_equiv_pos_as_xyz
  x,y,z
_cell_length_a                    34.8328
_cell_length_b                    24.5258
_cell_length_c                    20.0782
_cell_angle_alpha                 90.0
_cell_angle_beta                 90.0
_cell_angle_gamma                 90.0
loop_
_atom_site_label
_atom_site_type_symbol
_atom_site_fract_x
_atom_site_fract_y
_atom_site_fract_z
Er1     Er     0.6583   0.5664   0.0
Er2     Er     0.6583   0.5664   0.5
V3     V     0.5664   0.1809   0.0
V4     V     0.5664   0.1809   0.5
Er5     Er     0.3417   0.4336   0.0
Er6     Er     0.3417   0.4336   0.5
V7     V     0.4336   0.8191   0.0
V8     V     0.4336   0.8191   0.5
Er9     Er     0.8417   0.0664   0.0
Er10     Er     0.8417   0.0664   0.5
V11     V     0.9336   0.6809   0.0
V12     V     0.9336   0.6809   0.5
Er13     Er     0.1583   0.9336   0.0
Er14     Er     0.1583   0.9336   0.5
V15     V     0.0664   0.3191   0.0
V16     V     0.0664   0.3191   0.5
loop_
_geom_bond_atom_site_label_1
_geom_bond_atom_site_label_2
_geom_bond_distance
_geom_bond_site_symmetry_2
_ccdc_geom_bond_type
Er1     V3    9.982   .     S
Er1     V7    9.983   .     S
Er1     V11    9.992   .     S
Er2     V4    9.982   .     S
Er2     V8    9.983   .     S
Er2     V12    9.992   .     S
V3     Er5    9.983   .     S
V3     Er9    9.992   .     S
V3     V7    10.008   1_545     S
V3     V4    10.039   .     S
V3     V4    10.039   1_554     S
V4     Er6    9.983   .     S
V4     Er10    9.992   .     S
V4     V8    10.008   1_545     S
V4     V3    10.039   1_556     S
Er5     V7    9.982   .     S
Er5     V15    9.992   .     S
Er6     V8    9.982   .     S
Er6     V16    9.992   .     S
V7     Er13    9.992   .     S
V7     V3    10.008   1_565     S
V7     V8    10.039   .     S
V7     V8    10.039   1_554     S
V8     Er14    9.992   .     S
V8     V4    10.008   1_565     S
V8     V7    10.039   1_556     S
Er9     V11    9.982   1_545     S
Er9     V15    9.983   1_655     S
Er10     V12    9.982   1_545     S
Er10     V16    9.983   1_655     S
V11     Er9    9.982   1_565     S
V11     Er13    9.983   1_655     S
V11     V15    10.008   1_655     S
V11     V12    10.039   .     S
V11     V12    10.039   1_554     S
V12     Er10    9.982   1_565     S
V12     Er14    9.983   1_655     S
V12     V16    10.008   1_655     S
V12     V11    10.039   1_556     S
Er13     V11    9.983   1_455     S
Er13     V15    9.982   1_565     S
Er14     V12    9.983   1_455     S
Er14     V16    9.982   1_565     S
V15     Er13    9.982   1_545     S
V15     Er9    9.983   1_455     S
V15     V11    10.008   1_455     S
V15     V16    10.039   .     S
V15     V16    10.039   1_554     S
V16     Er14    9.982   1_545     S
V16     Er10    9.983   1_455     S
V16     V12    10.008   1_455     S
V16     V15    10.039   1_556     S
