data_kkma
_audit_creation_date              2020-02-02
_audit_creation_method            'Pymatgen'
_symmetry_space_group_name_H-M    'P1'
_symmetry_Int_Tables_number       1
loop_
_symmetry_equiv_pos_as_xyz
  x,y,z
_cell_length_a                    79.9547
_cell_length_b                    56.5144
_cell_length_c                    24.1834
_cell_angle_alpha                 90.0
_cell_angle_beta                 90.0
_cell_angle_gamma                 90.0
loop_
_atom_site_label
_atom_site_type_symbol
_atom_site_fract_x
_atom_site_fract_y
_atom_site_fract_z
V1     V     0.8544   0.4723   0.0
Ti2     Ti     0.8872   0.643   0.0
S3     S     0.7663   0.5978   0.0
Er4     Er     0.1024   0.6939   0.0
Ce5     Ce     0.9849   0.7537   0.0
H6     H     0.1447   0.8601   0.0
He7     He     0.0271   0.9201   0.0
Li8     Li     0.0647   0.807   0.7073
Li9     Li     0.0647   0.807   0.2927
V10     V     0.1456   0.5277   0.0
Ti11     Ti     0.1128   0.357   0.0
S12     S     0.2337   0.4022   0.0
Ce13     Ce     0.0151   0.2463   0.0
Er14     Er     0.8976   0.3061   0.0
H15     H     0.8553   0.1399   0.0
He16     He     0.9729   0.0799   0.0
Li17     Li     0.9353   0.193   0.7073
Li18     Li     0.9353   0.193   0.2927
V19     V     0.6456   0.9723   0.0
Ti20     Ti     0.6128   0.143   0.0
S21     S     0.7337   0.0978   0.0
Ce22     Ce     0.5151   0.2537   0.0
Er23     Er     0.3976   0.1939   0.0
H24     H     0.3553   0.3601   0.0
He25     He     0.4729   0.4201   0.0
Li26     Li     0.4353   0.307   0.7073
Li27     Li     0.4353   0.307   0.2927
V28     V     0.3544   0.0277   0.0
Ti29     Ti     0.3872   0.857   0.0
S30     S     0.2663   0.9022   0.0
Er31     Er     0.6023   0.8061   0.0
Ce32     Ce     0.4849   0.7463   0.0
H33     H     0.6447   0.6399   0.0
He34     He     0.5271   0.5799   0.0
Li35     Li     0.5647   0.693   0.2927
Li36     Li     0.5647   0.693   0.7073
loop_
_geom_bond_atom_site_label_1
_geom_bond_atom_site_label_2
_geom_bond_distance
_geom_bond_site_symmetry_2
_ccdc_geom_bond_type
V1     S3    9.998   .     S
V1     Ti2    9.995   .     S
V1     Er14    10.007   .     S
Ti2     S3    10.001   .     S
Ti2     Ce5    10.008   .     S
S3     H33    10.01   .     S
Er4     Li8    10.001   1_554     S
Er4     Li9    10.001   .     S
Er4     Ce5    9.984   1_455     S
Er4     H6    9.984   .     S
Er4     V10    10.007   .     S
Ce5     Li8    9.998   1_654     S
Ce5     Li9    9.998   1_655     S
Ce5     Er4    9.984   1_655     S
Ce5     He7    9.991   1_655     S
H6     Li8    9.997   1_554     S
H6     Li9    9.997   .     S
H6     He7    9.993   .     S
H6     S30    10.01   .     S
He7     Li8    10.002   1_554     S
He7     Li9    10.002   .     S
He7     Ce5    9.991   1_455     S
He7     He16    10.017   1_465     S
Li8     Ce5    9.998   1_456     S
Li8     Er4    10.001   1_556     S
Li8     H6    9.997   1_556     S
Li8     He7    10.002   1_556     S
Li8     Li9    10.025   .     S
Li9     Ce5    9.998   1_455     S
V10     Ti11    9.995   .     S
V10     S12    9.998   .     S
Ti11     S12    10.001   .     S
Ti11     Ce13    10.008   .     S
S12     H24    10.01   .     S
Ce13     Li17    9.998   1_454     S
Ce13     Li18    9.998   1_455     S
Ce13     Er14    9.984   1_455     S
Ce13     He16    9.991   1_455     S
Er14     Li17    10.001   1_554     S
Er14     Li18    10.001   .     S
Er14     Ce13    9.984   1_655     S
Er14     H15    9.984   .     S
H15     Li17    9.997   1_554     S
H15     Li18    9.997   .     S
H15     He16    9.993   .     S
H15     S21    10.01   .     S
He16     Li17    10.002   1_554     S
He16     Li18    10.002   .     S
He16     Ce13    9.991   1_655     S
He16     He7    10.017   1_645     S
Li17     Ce13    9.998   1_656     S
Li17     Er14    10.001   1_556     S
Li17     H15    9.997   1_556     S
Li17     He16    10.002   1_556     S
Li17     Li18    10.025   .     S
Li18     Ce13    9.998   1_655     S
V19     S21    9.998   1_565     S
V19     Ti20    9.995   1_565     S
V19     Er31    10.007   .     S
Ti20     S21    10.001   .     S
Ti20     V19    9.995   1_545     S
Ti20     Ce22    10.008   .     S
S21     V19    9.998   1_545     S
Ce22     Li26    9.998   1_554     S
Ce22     Li27    9.998   .     S
Ce22     Er23    9.984   .     S
Ce22     He25    9.991   .     S
Er23     Li26    10.001   1_554     S
Er23     Li27    10.001   .     S
Er23     H24    9.984   .     S
Er23     V28    10.007   .     S
H24     Li26    9.997   1_554     S
H24     Li27    9.997   .     S
H24     He25    9.993   .     S
He25     Li26    10.002   1_554     S
He25     Li27    10.002   .     S
He25     He34    10.017   .     S
Li26     Ce22    9.998   1_556     S
Li26     Er23    10.001   1_556     S
Li26     H24    9.997   1_556     S
Li26     He25    10.002   1_556     S
Li26     Li27    10.025   .     S
V28     S30    9.998   1_545     S
V28     Ti29    9.995   1_545     S
Ti29     S30    10.001   .     S
Ti29     V28    9.995   1_565     S
Ti29     Ce32    10.008   .     S
S30     V28    9.998   1_565     S
Er31     Li36    10.001   1_554     S
Er31     Li35    10.001   .     S
Er31     Ce32    9.984   .     S
Er31     H33    9.984   .     S
Ce32     Li36    9.998   1_554     S
Ce32     Li35    9.998   .     S
Ce32     He34    9.991   .     S
H33     Li36    9.997   1_554     S
H33     Li35    9.997   .     S
H33     He34    9.993   .     S
He34     Li36    10.002   1_554     S
He34     Li35    10.002   .     S
Li35     Li36    10.025   .     S
Li36     Ce32    9.998   1_556     S
Li36     Er31    10.001   1_556     S
Li36     H33    9.997   1_556     S
Li36     He34    10.002   1_556     S
