data_kmsa
_audit_creation_date              2020-02-02
_audit_creation_method            'Pymatgen'
_symmetry_space_group_name_H-M    'P1'
_symmetry_Int_Tables_number       1
loop_
_symmetry_equiv_pos_as_xyz
  x,y,z
_cell_length_a                    88.3216
_cell_length_b                    88.3216
_cell_length_c                    96.6159
_cell_angle_alpha                 90.0
_cell_angle_beta                 90.0
_cell_angle_gamma                 120.0
loop_
_atom_site_label
_atom_site_type_symbol
_atom_site_fract_x
_atom_site_fract_y
_atom_site_fract_z
He1     He     0.5786   0.7122   0.8018
He2     He     0.5786   0.7122   0.6982
Ti3     Ti     0.8851   0.3224   0.5984
S4     S     0.8222   0.1959   0.6247
Ti5     Ti     0.5627   0.6776   0.5984
S6     S     0.6263   0.8041   0.6247
Er7     Er     0.693   0.9346   0.6305
Er8     Er     0.7584   0.0654   0.6305
He9     He     0.8664   0.2878   0.8018
He10     He     0.8664   0.2878   0.6982
Ti11     Ti     0.8851   0.3224   0.9016
S12     S     0.8222   0.1959   0.8753
Er13     Er     0.7584   0.0654   0.8695
Er14     Er     0.693   0.9346   0.8695
Ti15     Ti     0.5627   0.6776   0.9016
S16     S     0.6263   0.8041   0.8753
V17     V     0.5758   0.5104   0.9664
V18     V     0.5104   0.5758   0.9664
V19     V     0.4242   0.4896   0.0336
V20     V     0.4896   0.4242   0.0336
Ce21     Ce     0.448   0.448   0.9443
Ce22     Ce     0.552   0.552   0.0557
H23     H     0.6651   0.6651   0.06
H24     H     0.3349   0.3349   0.94
V25     V     0.4896   0.4242   0.4664
V26     V     0.5758   0.5104   0.5336
V27     V     0.4242   0.4896   0.4664
V28     V     0.5104   0.5758   0.5336
Ce29     Ce     0.448   0.448   0.5557
Ce30     Ce     0.552   0.552   0.4443
H31     H     0.6651   0.6651   0.44
H32     H     0.3349   0.3349   0.56
He33     He     0.2878   0.8664   0.8018
He34     He     0.2878   0.8664   0.6982
Ti35     Ti     0.3224   0.8851   0.9016
S36     S     0.1959   0.8222   0.8753
Er37     Er     0.0654   0.7584   0.8695
Er38     Er     0.9346   0.693   0.8695
Ti39     Ti     0.6776   0.5627   0.9016
S40     S     0.8041   0.6263   0.8753
He41     He     0.7122   0.5786   0.6982
He42     He     0.7122   0.5786   0.8018
Ti43     Ti     0.3224   0.8851   0.5984
S44     S     0.1959   0.8222   0.6247
Er45     Er     0.0654   0.7584   0.6305
Er46     Er     0.9346   0.693   0.6305
Ti47     Ti     0.6776   0.5627   0.5984
S48     S     0.8041   0.6263   0.6247
V49     V     0.0654   0.4896   0.9664
V50     V     0.9346   0.5104   0.0336
Ce51     Ce     0.0   0.552   0.9443
Ce52     Ce     0.0   0.448   0.0557
H53     H     0.0   0.6651   0.94
H54     H     0.0   0.3349   0.06
V55     V     0.9346   0.4242   0.9664
V56     V     0.0654   0.5758   0.0336
He57     He     0.7122   0.1336   0.1982
He58     He     0.7122   0.1336   0.3018
Ti59     Ti     0.6776   0.1149   0.4016
S60     S     0.8041   0.1778   0.3753
Ti61     Ti     0.3224   0.4373   0.4016
S62     S     0.1959   0.3737   0.3753
Er63     Er     0.9346   0.2416   0.3695
Er64     Er     0.0654   0.307   0.3695
He65     He     0.2878   0.4214   0.3017
He66     He     0.2878   0.4214   0.1982
Ti67     Ti     0.6776   0.1149   0.0984
S68     S     0.8041   0.1778   0.1247
Ti69     Ti     0.3224   0.4373   0.0984
S70     S     0.1959   0.3737   0.1247
Er71     Er     0.9346   0.2416   0.1305
Er72     Er     0.0654   0.307   0.1305
V73     V     0.4242   0.9346   0.9664
V74     V     0.5758   0.0654   0.0336
Ce75     Ce     0.552   0.0   0.9443
Ce76     Ce     0.448   0.0   0.0557
H77     H     0.6651   0.0   0.94
H78     H     0.3349   0.0   0.06
V79     V     0.4896   0.0654   0.9664
V80     V     0.5104   0.9346   0.0336
He81     He     0.1336   0.4214   0.8018
He82     He     0.1336   0.4214   0.6982
Ti83     Ti     0.1149   0.4373   0.9016
S84     S     0.1778   0.3737   0.8753
Ti85     Ti     0.4373   0.1149   0.9016
S86     S     0.3737   0.1778   0.8753
Er87     Er     0.307   0.2416   0.8695
Er88     Er     0.2416   0.307   0.8695
He89     He     0.4214   0.1336   0.6982
He90     He     0.4214   0.1336   0.8018
Ti91     Ti     0.1149   0.4373   0.5984
S92     S     0.1778   0.3737   0.6247
Ti93     Ti     0.4373   0.1149   0.5984
S94     S     0.3737   0.1778   0.6247
Er95     Er     0.2416   0.307   0.6305
Er96     Er     0.307   0.2416   0.6305
V97     V     0.5758   0.0654   0.4664
V98     V     0.4242   0.9346   0.5336
Ce99     Ce     0.448   0.0   0.4443
Ce100     Ce     0.552   0.0   0.5557
H101     H     0.6651   0.0   0.56
H102     H     0.3349   0.0   0.44
V103     V     0.4896   0.0654   0.5336
V104     V     0.5104   0.9346   0.4664
He105     He     0.8664   0.5786   0.1982
He106     He     0.8664   0.5786   0.3018
Ti107     Ti     0.8851   0.5627   0.4016
S108     S     0.8222   0.6263   0.3753
Ti109     Ti     0.5627   0.8851   0.4016
S110     S     0.6263   0.8222   0.3753
Er111     Er     0.7584   0.693   0.3695
Er112     Er     0.693   0.7584   0.3695
He113     He     0.5786   0.8664   0.3017
He114     He     0.5786   0.8664   0.1982
Ti115     Ti     0.8851   0.5627   0.0984
S116     S     0.8222   0.6263   0.1247
Ti117     Ti     0.5627   0.8851   0.0984
S118     S     0.6263   0.8222   0.1247
Er119     Er     0.693   0.7584   0.1305
Er120     Er     0.7584   0.693   0.1305
V121     V     0.9346   0.5104   0.4664
V122     V     0.0654   0.4896   0.5336
Ce123     Ce     0.0   0.552   0.5557
Ce124     Ce     0.0   0.448   0.4443
H125     H     0.0   0.6651   0.56
H126     H     0.0   0.3349   0.44
V127     V     0.0654   0.5758   0.4664
V128     V     0.9346   0.4242   0.5336
Ti129     Ti     0.4373   0.3224   0.4016
S130     S     0.3737   0.1959   0.3753
Ti131     Ti     0.1149   0.6776   0.4016
S132     S     0.1778   0.8041   0.3753
Er133     Er     0.307   0.0654   0.3695
Er134     Er     0.2416   0.9346   0.3695
He135     He     0.1336   0.7122   0.3017
He136     He     0.1336   0.7122   0.1982
He137     He     0.4214   0.2878   0.1982
He138     He     0.4214   0.2878   0.3018
Ti139     Ti     0.4373   0.3224   0.0984
S140     S     0.3737   0.1959   0.1247
Er141     Er     0.307   0.0654   0.1305
Er142     Er     0.2416   0.9346   0.1305
Ti143     Ti     0.1149   0.6776   0.0984
S144     S     0.1778   0.8041   0.1247
loop_
_geom_bond_atom_site_label_1
_geom_bond_atom_site_label_2
_geom_bond_distance
_geom_bond_site_symmetry_2
_ccdc_geom_bond_type
He1     He2    10.0   .     S
He1     Ti15    10.0   .     S
He1     S16    10.0   .     S
He2     Ti5    10.0   .     S
He2     S6    10.0   .     S
Ti3     He10    10.0   .     S
Ti3     S4    10.0   .     S
Ti3     V128    10.0   .     S
S4     He10    10.0   .     S
S4     Er8    10.0   .     S
Ti5     S6    10.0   .     S
Ti5     V28    10.0   .     S
S6     Er7    10.0   .     S
Er7     H101    10.0   1_565     S
Er7     Er8    10.0   1_565     S
Er8     H101    10.0   .     S
Er8     Er7    10.0   1_545     S
He9     He10    10.0   .     S
He9     Ti11    10.0   .     S
He9     S12    10.0   .     S
Ti11     S12    10.0   .     S
Ti11     V55    10.0   .     S
S12     Er13    10.0   .     S
Er13     H77    10.0   .     S
Er13     Er14    10.0   1_545     S
Er14     H77    10.0   1_565     S
Er14     Er13    10.0   1_565     S
Er14     S16    10.0   .     S
Ti15     S16    10.0   .     S
Ti15     V18    10.0   .     S
V17     Ce21    10.0   .     S
V17     V18    10.0   .     S
V17     V20    10.0   1_556     S
V17     Ce22    10.0   1_556     S
V17     Ti39    10.0   .     S
V18     Ce21    10.0   .     S
V18     V19    10.0   1_556     S
V18     Ce22    10.0   1_556     S
V19     Ce22    10.0   .     S
V19     V20    10.0   .     S
V19     Ce21    10.0   1_554     S
V19     V18    10.0   1_554     S
V19     Ti69    10.0   .     S
V20     Ce22    10.0   .     S
V20     Ce21    10.0   1_554     S
V20     V17    10.0   1_554     S
V20     Ti139    10.0   .     S
Ce21     V19    10.0   1_556     S
Ce21     V20    10.0   1_556     S
Ce21     H24    10.0   .     S
Ce22     V18    10.0   1_554     S
Ce22     V17    10.0   1_554     S
Ce22     H23    10.0   .     S
H23     Er119    10.0   .     S
H23     Er120    10.0   .     S
H24     Er88    10.0   .     S
H24     Er87    10.0   .     S
V25     Ce30    10.0   .     S
V25     V27    10.0   .     S
V25     Ce29    10.0   .     S
V25     V26    10.0   .     S
V25     Ti129    10.0   .     S
V26     Ce29    10.0   .     S
V26     V28    10.0   .     S
V26     Ce30    10.0   .     S
V26     Ti47    10.0   .     S
V27     Ce30    10.0   .     S
V27     Ce29    10.0   .     S
V27     V28    10.0   .     S
V27     Ti61    10.0   .     S
V28     Ce29    10.0   .     S
V28     Ce30    10.0   .     S
Ce29     H32    10.0   .     S
Ce30     H31    10.0   .     S
H31     Er111    10.0   .     S
H31     Er112    10.0   .     S
H32     Er96    10.0   .     S
H32     Er95    10.0   .     S
He33     He34    10.0   .     S
He33     Ti35    10.0   .     S
He33     S36    10.0   .     S
He34     Ti43    10.0   .     S
He34     S44    10.0   .     S
Ti35     S36    10.0   .     S
Ti35     V73    10.0   .     S
S36     Er37    10.0   .     S
Er37     H53    10.0   .     S
Er37     Er38    10.0   1_455     S
Er38     H53    10.0   1_655     S
Er38     Er37    10.0   1_655     S
Er38     S40    10.0   .     S
Ti39     He42    10.0   .     S
Ti39     S40    10.0   .     S
S40     He42    10.0   .     S
He41     He42    10.0   .     S
He41     Ti47    10.0   .     S
He41     S48    10.0   .     S
Ti43     S44    10.0   .     S
Ti43     V98    10.0   .     S
S44     Er45    10.0   .     S
Er45     H125    10.0   .     S
Er45     Er46    10.0   1_455     S
Er46     H125    10.0   1_655     S
Er46     Er45    10.0   1_655     S
Er46     S48    10.0   .     S
Ti47     S48    10.0   .     S
V49     Ce51    10.0   .     S
V49     V55    10.0   1_455     S
V49     Ce52    10.0   1_556     S
V49     V56    10.0   1_556     S
V49     Ti83    10.0   .     S
V50     Ce52    10.0   1_655     S
V50     V56    10.0   1_655     S
V50     Ce51    10.0   1_654     S
V50     V55    10.0   1_554     S
V50     Ti115    10.0   .     S
Ce51     V55    10.0   1_455     S
Ce51     V56    10.0   1_556     S
Ce51     V50    10.0   1_456     S
Ce51     H53    10.0   .     S
Ce52     V49    10.0   1_554     S
Ce52     V55    10.0   1_454     S
Ce52     V56    10.0   .     S
Ce52     V50    10.0   1_455     S
Ce52     H54    10.0   .     S
H53     Er38    10.0   1_455     S
H54     Er72    10.0   .     S
H54     Er71    10.0   1_455     S
V55     Ce51    10.0   1_655     S
V55     V49    10.0   1_655     S
V55     Ce52    10.0   1_656     S
V55     V50    10.0   1_556     S
V56     V49    10.0   1_554     S
V56     V50    10.0   1_455     S
V56     Ce51    10.0   1_554     S
V56     Ti143    10.0   .     S
He57     He58    10.0   .     S
He57     Ti67    10.0   .     S
He57     S68    10.0   .     S
He58     Ti59    10.0   .     S
He58     S60    10.0   .     S
Ti59     S60    10.0   .     S
Ti59     V97    10.0   .     S
S60     Er63    10.0   .     S
Ti61     He65    10.0   .     S
Ti61     S62    10.0   .     S
S62     He65    10.0   .     S
S62     Er64    10.0   .     S
Er63     H126    10.0   1_655     S
Er63     Er64    10.0   1_655     S
Er64     H126    10.0   .     S
Er64     Er63    10.0   1_455     S
He65     He66    10.0   .     S
He66     Ti69    10.0   .     S
He66     S70    10.0   .     S
Ti67     S68    10.0   .     S
Ti67     V74    10.0   .     S
S68     Er71    10.0   .     S
Ti69     S70    10.0   .     S
S70     Er72    10.0   .     S
Er71     H54    10.0   1_655     S
Er71     Er72    10.0   1_655     S
Er72     Er71    10.0   1_455     S
V73     Ce75    10.0   1_565     S
V73     V79    10.0   1_565     S
V73     Ce76    10.0   1_566     S
V73     V80    10.0   1_556     S
V74     Ce76    10.0   .     S
V74     V80    10.0   1_545     S
V74     Ce75    10.0   1_554     S
V74     V79    10.0   1_554     S
Ce75     V73    10.0   1_545     S
Ce75     V79    10.0   .     S
Ce75     V80    10.0   1_546     S
Ce75     V74    10.0   1_556     S
Ce75     H77    10.0   .     S
Ce76     V73    10.0   1_544     S
Ce76     V79    10.0   1_554     S
Ce76     V80    10.0   1_545     S
Ce76     H78    10.0   .     S
H77     Er14    10.0   1_545     S
H78     Er142    10.0   1_545     S
H78     Er141    10.0   .     S
V79     V73    10.0   1_545     S
V79     Ce76    10.0   1_556     S
V79     V74    10.0   1_556     S
V79     Ti85    10.0   .     S
V80     V73    10.0   1_554     S
V80     Ce76    10.0   1_565     S
V80     V74    10.0   1_565     S
V80     Ce75    10.0   1_564     S
V80     Ti117    10.0   .     S
He81     He82    10.0   .     S
He81     Ti83    10.0   .     S
He81     S84    10.0   .     S
He82     Ti91    10.0   .     S
He82     S92    10.0   .     S
Ti83     S84    10.0   .     S
S84     Er88    10.0   .     S
Ti85     He90    10.0   .     S
Ti85     S86    10.0   .     S
S86     He90    10.0   .     S
S86     Er87    10.0   .     S
Er87     Er88    10.0   .     S
He89     He90    10.0   .     S
He89     Ti93    10.0   .     S
He89     S94    10.0   .     S
Ti91     S92    10.0   .     S
Ti91     V122    10.0   .     S
S92     Er95    10.0   .     S
Ti93     S94    10.0   .     S
Ti93     V103    10.0   .     S
S94     Er96    10.0   .     S
Er95     Er96    10.0   .     S
V97     Ce99    10.0   .     S
V97     V104    10.0   1_545     S
V97     Ce100    10.0   .     S
V97     V103    10.0   .     S
V98     Ce100    10.0   1_565     S
V98     V103    10.0   1_565     S
V98     Ce99    10.0   1_565     S
V98     V104    10.0   .     S
Ce99     V104    10.0   1_545     S
Ce99     V103    10.0   .     S
Ce99     V98    10.0   1_545     S
Ce99     H102    10.0   .     S
Ce100     V104    10.0   1_545     S
Ce100     V103    10.0   .     S
Ce100     V98    10.0   1_545     S
Ce100     H101    10.0   .     S
H101     Er7    10.0   1_545     S
H102     Er133    10.0   .     S
H102     Er134    10.0   1_545     S
V103     V98    10.0   1_545     S
V104     Ce99    10.0   1_565     S
V104     V97    10.0   1_565     S
V104     Ce100    10.0   1_565     S
V104     Ti109    10.0   .     S
He105     He106    10.0   .     S
He105     Ti115    10.0   .     S
He105     S116    10.0   .     S
He106     Ti107    10.0   .     S
He106     S108    10.0   .     S
Ti107     S108    10.0   .     S
Ti107     V121    10.0   .     S
S108     Er111    10.0   .     S
Ti109     He113    10.0   .     S
Ti109     S110    10.0   .     S
S110     He113    10.0   .     S
S110     Er112    10.0   .     S
Er111     Er112    10.0   .     S
He113     He114    10.0   .     S
He114     Ti117    10.0   .     S
He114     S118    10.0   .     S
Ti115     S116    10.0   .     S
S116     Er120    10.0   .     S
Ti117     S118    10.0   .     S
S118     Er119    10.0   .     S
Er119     Er120    10.0   .     S
V121     Ce124    10.0   1_655     S
V121     V127    10.0   1_655     S
V121     Ce123    10.0   1_655     S
V121     V128    10.0   .     S
V122     Ce123    10.0   .     S
V122     V128    10.0   1_455     S
V122     Ce124    10.0   .     S
V122     V127    10.0   .     S
Ce123     V128    10.0   1_455     S
Ce123     V121    10.0   1_455     S
Ce123     V127    10.0   .     S
Ce123     H125    10.0   .     S
Ce124     V128    10.0   1_455     S
Ce124     V121    10.0   1_455     S
Ce124     V127    10.0   .     S
Ce124     H126    10.0   .     S
H125     Er46    10.0   1_455     S
H126     Er63    10.0   1_455     S
V127     V121    10.0   1_455     S
V127     Ti131    10.0   .     S
V128     Ce123    10.0   1_655     S
V128     V122    10.0   1_655     S
V128     Ce124    10.0   1_655     S
Ti129     He138    10.0   .     S
Ti129     S130    10.0   .     S
S130     He138    10.0   .     S
S130     Er133    10.0   .     S
Ti131     He135    10.0   .     S
Ti131     S132    10.0   .     S
S132     He135    10.0   .     S
S132     Er134    10.0   .     S
Er133     Er134    10.0   1_545     S
Er134     H102    10.0   1_565     S
Er134     Er133    10.0   1_565     S
He135     He136    10.0   .     S
He136     Ti143    10.0   .     S
He136     S144    10.0   .     S
He137     He138    10.0   .     S
He137     Ti139    10.0   .     S
He137     S140    10.0   .     S
Ti139     S140    10.0   .     S
S140     Er141    10.0   .     S
Er141     Er142    10.0   1_545     S
Er142     H78    10.0   1_565     S
Er142     Er141    10.0   1_565     S
Er142     S144    10.0   .     S
Ti143     S144    10.0   .     S
