data_kna
_audit_creation_date              2020-02-02
_audit_creation_method            'Pymatgen'
_symmetry_space_group_name_H-M    'P1'
_symmetry_Int_Tables_number       1
loop_
_symmetry_equiv_pos_as_xyz
  x,y,z
_cell_length_a                    25.645
_cell_length_b                    25.645
_cell_length_c                    15.8493
_cell_angle_alpha                 90.0
_cell_angle_beta                 90.0
_cell_angle_gamma                 120.0
loop_
_atom_site_label
_atom_site_type_symbol
_atom_site_fract_x
_atom_site_fract_y
_atom_site_fract_z
Er1     Er     0.3333   0.6667   0.0
Er2     Er     0.6667   0.3333   0.0
V3     V     0.7619   0.0   0.0
V4     V     0.7619   0.7619   0.0
V5     V     0.0   0.7619   0.0
V6     V     0.2381   0.2381   0.0
V7     V     0.0   0.2381   0.0
V8     V     0.2381   0.0   0.0
Ti9     Ti     0.0   0.0   0.5
loop_
_geom_bond_atom_site_label_1
_geom_bond_atom_site_label_2
_geom_bond_distance
_geom_bond_site_symmetry_2
_ccdc_geom_bond_type
Er1     V7    9.996   .     S
Er1     V6    9.996   .     S
Er1     V8    9.996   1_565     S
Er1     V5    9.996   .     S
Er1     V4    9.996   .     S
Er1     V3    9.996   1_565     S
Er2     V3    9.996   .     S
Er2     V7    9.996   1_655     S
Er2     V6    9.996   .     S
Er2     V8    9.996   .     S
Er2     V5    9.996   1_655     S
Er2     V4    9.996   .     S
V3     Ti9    10.004   1_654     S
V3     Ti9    10.004   1_655     S
V3     Er1    9.996   1_545     S
V4     Ti9    10.004   1_664     S
V4     Ti9    10.004   1_665     S
V5     Ti9    10.004   1_564     S
V5     Ti9    10.004   1_565     S
V5     Er2    9.996   1_455     S
V6     Ti9    10.004   1_554     S
V6     Ti9    10.004   .     S
V7     Ti9    10.004   1_554     S
V7     Ti9    10.004   .     S
V7     Er2    9.996   1_455     S
V8     Ti9    10.004   1_554     S
V8     Ti9    10.004   .     S
V8     Er1    9.996   1_545     S
Ti9     V5    10.004   1_546     S
Ti9     V8    10.004   1_556     S
Ti9     V6    10.004   1_556     S
Ti9     V7    10.004   1_556     S
Ti9     V3    10.004   1_456     S
Ti9     V4    10.004   1_446     S
Ti9     V5    10.004   1_545     S
Ti9     V3    10.004   1_455     S
Ti9     V4    10.004   1_445     S
