data_knaa
_audit_creation_date              2020-02-02
_audit_creation_method            'Pymatgen'
_symmetry_space_group_name_H-M    'P1'
_symmetry_Int_Tables_number       1
loop_
_symmetry_equiv_pos_as_xyz
  x,y,z
_cell_length_a                    70.4054
_cell_length_b                    70.4054
_cell_length_c                    36.4666
_cell_angle_alpha                 90.0
_cell_angle_beta                 90.0
_cell_angle_gamma                 120.0
loop_
_atom_site_label
_atom_site_type_symbol
_atom_site_fract_x
_atom_site_fract_y
_atom_site_fract_z
V1     V     0.4754   0.6667   0.0
V2     V     0.4754   0.8087   0.0
V3     V     0.1913   0.6667   0.0
V4     V     0.3333   0.8087   0.0
V5     V     0.1913   0.5246   0.0
V6     V     0.3333   0.5246   0.0
Er7     Er     0.918   0.6359   0.0
Er8     Er     0.082   0.7179   0.0
Ti9     Ti     0.0   0.7774   0.1371
Ti10     Ti     0.0   0.7774   0.8629
Ce11     Ce     0.142   0.0   0.6371
Ce12     Ce     0.0   0.858   0.6371
Ce13     Ce     0.142   0.0   0.3629
Ce14     Ce     0.0   0.858   0.3629
Er15     Er     0.2821   0.918   0.0
Er16     Er     0.3641   0.082   0.0
Ti17     Ti     0.2226   0.0   0.1371
Ti18     Ti     0.2226   0.0   0.8629
Er19     Er     0.6359   0.7179   0.0
Er20     Er     0.7179   0.6359   0.0
Ti21     Ti     0.7774   0.7774   0.1371
Ti22     Ti     0.7774   0.7774   0.8629
Ce23     Ce     0.858   0.858   0.6371
Ce24     Ce     0.858   0.858   0.3629
Ce25     Ce     0.142   0.142   0.6371
Ce26     Ce     0.142   0.142   0.3629
Er27     Er     0.2821   0.3641   0.0
Er28     Er     0.3641   0.2821   0.0
Ti29     Ti     0.2226   0.2226   0.1371
Ti30     Ti     0.2226   0.2226   0.8629
Er31     Er     0.7179   0.082   0.0
Er32     Er     0.6359   0.918   0.0
Ti33     Ti     0.7774   0.0   0.1371
Ti34     Ti     0.7774   0.0   0.8629
Ce35     Ce     0.858   0.0   0.6371
Ce36     Ce     0.0   0.142   0.6371
Ce37     Ce     0.858   0.0   0.3629
Ce38     Ce     0.0   0.142   0.3629
Er39     Er     0.082   0.3641   0.0
Er40     Er     0.918   0.2821   0.0
Ti41     Ti     0.0   0.2226   0.1371
Ti42     Ti     0.0   0.2226   0.8629
V43     V     0.5246   0.1913   0.0
V44     V     0.5246   0.3333   0.0
V45     V     0.6667   0.4754   0.0
V46     V     0.6667   0.1913   0.0
V47     V     0.8087   0.3333   0.0
V48     V     0.8087   0.4754   0.0
loop_
_geom_bond_atom_site_label_1
_geom_bond_atom_site_label_2
_geom_bond_distance
_geom_bond_site_symmetry_2
_ccdc_geom_bond_type
V1     Er19    10.0   .     S
V1     V2    10.0   .     S
V1     V6    10.0   .     S
V2     Er32    10.0   .     S
V2     V4    10.0   .     S
V3     V4    10.0   .     S
V3     Er8    10.0   .     S
V3     V5    10.0   .     S
V4     Er15    10.0   .     S
V5     V6    10.0   .     S
V5     Er39    10.0   .     S
V6     Er27    10.0   .     S
Er7     Er8    10.0   1_655     S
Er7     Ti10    10.0   1_654     S
Er7     Ti9    10.0   1_655     S
Er7     V48    10.0   .     S
Er8     Er7    10.0   1_455     S
Er8     Ti10    10.0   1_554     S
Er8     Ti9    10.0   .     S
Ti9     Er7    10.0   1_455     S
Ti9     Ti10    10.0   1_554     S
Ti9     Ce14    10.0   .     S
Ti10     Er7    10.0   1_456     S
Ti10     Er8    10.0   1_556     S
Ti10     Ti9    10.0   1_556     S
Ti10     Ce12    10.0   .     S
Ce11     Ce12    10.0   1_545     S
Ce11     Ce13    10.0   .     S
Ce11     Ti18    10.0   .     S
Ce11     Ce25    10.0   .     S
Ce12     Ce11    10.0   1_565     S
Ce12     Ce23    10.0   1_455     S
Ce12     Ce14    10.0   .     S
Ce13     Ce14    10.0   1_545     S
Ce13     Ce26    10.0   .     S
Ce13     Ti17    10.0   .     S
Ce14     Ce13    10.0   1_565     S
Ce14     Ce24    10.0   1_455     S
Er15     Ti18    10.0   1_564     S
Er15     Ti17    10.0   1_565     S
Er15     Er16    10.0   1_565     S
Er16     Er15    10.0   1_545     S
Er16     Ti18    10.0   1_554     S
Er16     Ti17    10.0   .     S
Er16     V43    10.0   .     S
Ti17     Er15    10.0   1_545     S
Ti17     Ti18    10.0   1_554     S
Ti18     Er15    10.0   1_546     S
Ti18     Er16    10.0   1_556     S
Ti18     Ti17    10.0   1_556     S
Er19     Ti22    10.0   1_554     S
Er19     Ti21    10.0   .     S
Er19     Er20    10.0   .     S
Er20     Ti22    10.0   1_554     S
Er20     Ti21    10.0   .     S
Er20     V45    10.0   .     S
Ti21     Ti22    10.0   1_554     S
Ti21     Ce24    10.0   .     S
Ti22     Er19    10.0   1_556     S
Ti22     Er20    10.0   1_556     S
Ti22     Ti21    10.0   1_556     S
Ti22     Ce23    10.0   .     S
Ce23     Ce12    10.0   1_655     S
Ce23     Ce35    10.0   1_565     S
Ce23     Ce24    10.0   .     S
Ce24     Ce14    10.0   1_655     S
Ce24     Ce37    10.0   1_565     S
Ce25     Ce26    10.0   .     S
Ce25     Ti30    10.0   .     S
Ce25     Ce36    10.0   .     S
Ce26     Ce38    10.0   .     S
Ce26     Ti29    10.0   .     S
Er27     Ti30    10.0   1_554     S
Er27     Ti29    10.0   .     S
Er27     Er28    10.0   .     S
Er28     Ti30    10.0   1_554     S
Er28     Ti29    10.0   .     S
Er28     V44    10.0   .     S
Ti29     Ti30    10.0   1_554     S
Ti30     Er27    10.0   1_556     S
Ti30     Er28    10.0   1_556     S
Ti30     Ti29    10.0   1_556     S
Er31     Ti34    10.0   1_554     S
Er31     Ti33    10.0   .     S
Er31     Er32    10.0   1_545     S
Er31     V46    10.0   .     S
Er32     Ti34    10.0   1_564     S
Er32     Ti33    10.0   1_565     S
Er32     Er31    10.0   1_565     S
Ti33     Er32    10.0   1_545     S
Ti33     Ti34    10.0   1_554     S
Ti33     Ce37    10.0   .     S
Ti34     Er31    10.0   1_556     S
Ti34     Er32    10.0   1_546     S
Ti34     Ti33    10.0   1_556     S
Ti34     Ce35    10.0   .     S
Ce35     Ce23    10.0   1_545     S
Ce35     Ce36    10.0   1_655     S
Ce35     Ce37    10.0   .     S
Ce36     Ce35    10.0   1_455     S
Ce36     Ce38    10.0   .     S
Ce36     Ti42    10.0   .     S
Ce37     Ce38    10.0   1_655     S
Ce37     Ce24    10.0   1_545     S
Ce38     Ce37    10.0   1_455     S
Ce38     Ti41    10.0   .     S
Er39     Er40    10.0   1_455     S
Er39     Ti42    10.0   1_554     S
Er39     Ti41    10.0   .     S
Er40     Er39    10.0   1_655     S
Er40     Ti42    10.0   1_654     S
Er40     Ti41    10.0   1_655     S
Er40     V47    10.0   .     S
Ti41     Er40    10.0   1_455     S
Ti41     Ti42    10.0   1_554     S
Ti42     Er39    10.0   1_556     S
Ti42     Er40    10.0   1_456     S
Ti42     Ti41    10.0   1_556     S
V43     V44    10.0   .     S
V43     V46    10.0   .     S
V44     V45    10.0   .     S
V45     V48    10.0   .     S
V46     V47    10.0   .     S
V47     V48    10.0   .     S
