data_knb
_audit_creation_date              2020-02-02
_audit_creation_method            'Pymatgen'
_symmetry_space_group_name_H-M    'P1'
_symmetry_Int_Tables_number       1
loop_
_symmetry_equiv_pos_as_xyz
  x,y,z
_cell_length_a                    18.4566
_cell_length_b                    18.4566
_cell_length_c                    24.7699
_cell_angle_alpha                 90.0
_cell_angle_beta                 90.0
_cell_angle_gamma                 120.0
loop_
_atom_site_label
_atom_site_type_symbol
_atom_site_fract_x
_atom_site_fract_y
_atom_site_fract_z
Ti1     Ti     0.3333   0.6667   0.5
Ti2     Ti     0.6667   0.3333   0.5
V3     V     0.5   0.5   0.8392
V4     V     0.0   0.5   0.8392
V5     V     0.0   0.5   0.1608
V6     V     0.5   0.5   0.1608
V7     V     0.5   0.0   0.8392
V8     V     0.5   0.0   0.1608
Er9     Er     0.0   0.0   0.0
loop_
_geom_bond_atom_site_label_1
_geom_bond_atom_site_label_2
_geom_bond_distance
_geom_bond_site_symmetry_2
_ccdc_geom_bond_type
Ti1     V8    9.949   1_565     S
Ti1     V6    9.949   .     S
Ti1     V5    9.949   .     S
Ti1     V7    9.949   1_565     S
Ti1     V3    9.949   .     S
Ti1     V4    9.949   .     S
Ti2     V4    9.949   1_655     S
Ti2     V3    9.949   .     S
Ti2     V7    9.949   .     S
Ti2     V6    9.949   .     S
Ti2     V5    9.949   1_655     S
Ti2     V8    9.949   .     S
V3     Er9    10.051   1_666     S
V3     Er9    10.051   1_556     S
V4     Ti2    9.949   1_455     S
V4     Er9    10.051   1_566     S
V4     Er9    10.051   1_556     S
V5     Ti2    9.949   1_455     S
V5     Er9    10.051   1_565     S
V5     Er9    10.051   .     S
V6     Er9    10.051   1_665     S
V6     Er9    10.051   .     S
V7     Ti1    9.949   1_545     S
V7     Er9    10.051   1_656     S
V7     Er9    10.051   1_556     S
V8     Ti1    9.949   1_545     S
V8     Er9    10.051   1_655     S
V8     Er9    10.051   .     S
Er9     V6    10.051   1_445     S
Er9     V3    10.051   1_444     S
Er9     V8    10.051   1_455     S
Er9     V7    10.051   1_454     S
Er9     V5    10.051   1_545     S
Er9     V4    10.051   1_544     S
Er9     V7    10.051   1_554     S
Er9     V4    10.051   1_554     S
Er9     V3    10.051   1_554     S
