data_knba
_audit_creation_date              2020-02-02
_audit_creation_method            'Pymatgen'
_symmetry_space_group_name_H-M    'P1'
_symmetry_Int_Tables_number       1
loop_
_symmetry_equiv_pos_as_xyz
  x,y,z
_cell_length_a                    48.3894
_cell_length_b                    48.3894
_cell_length_c                    61.1525
_cell_angle_alpha                 90.0
_cell_angle_beta                 90.0
_cell_angle_gamma                 120.0
loop_
_atom_site_label
_atom_site_type_symbol
_atom_site_fract_x
_atom_site_fract_y
_atom_site_fract_z
Ce1     Ce     0.207   0.207   0.5817
Ce2     Ce     0.207   0.207   0.4183
Ce3     Ce     0.207   0.0   0.5817
Ce4     Ce     0.207   0.0   0.4183
Ce5     Ce     0.0   0.793   0.5817
Ce6     Ce     0.0   0.793   0.4183
Ce7     Ce     0.0   0.207   0.5817
Ce8     Ce     0.0   0.207   0.4183
Ce9     Ce     0.793   0.0   0.5817
Ce10     Ce     0.793   0.0   0.4183
Ce11     Ce     0.793   0.793   0.5817
Ce12     Ce     0.793   0.793   0.4183
Er13     Er     0.881   0.4405   0.7634
Er14     Er     0.119   0.5595   0.7634
V15     V     0.0   0.6034   0.6479
V16     V     0.0   0.3966   0.6479
Er17     Er     0.5595   0.4405   0.7634
Er18     Er     0.4405   0.5595   0.7634
V19     V     0.3966   0.3966   0.6479
V20     V     0.6034   0.6034   0.6479
Er21     Er     0.5595   0.4405   0.2366
Er22     Er     0.4405   0.5595   0.2366
V23     V     0.3966   0.3966   0.3521
V24     V     0.6034   0.6034   0.3521
Er25     Er     0.881   0.4405   0.2366
Er26     Er     0.119   0.5595   0.2366
V27     V     0.0   0.6034   0.3521
V28     V     0.0   0.3966   0.3521
Ti29     Ti     0.5979   0.4021   0.9182
Ti30     Ti     0.8042   0.4021   0.9182
Ti31     Ti     0.5979   0.1958   0.9182
Ti32     Ti     0.5979   0.4021   0.0818
Ti33     Ti     0.5979   0.1958   0.0818
Ti34     Ti     0.8042   0.4021   0.0818
Er35     Er     0.4405   0.881   0.7634
Er36     Er     0.5595   0.119   0.7634
V37     V     0.6034   0.0   0.6479
V38     V     0.3966   0.0   0.6479
Er39     Er     0.4405   0.881   0.2366
Er40     Er     0.5595   0.119   0.2366
V41     V     0.6034   0.0   0.3521
V42     V     0.3966   0.0   0.3521
Ti43     Ti     0.4021   0.8042   0.9182
Ti44     Ti     0.4021   0.5979   0.9182
Ti45     Ti     0.1958   0.5979   0.9182
Ti46     Ti     0.4021   0.8042   0.0818
Ti47     Ti     0.4021   0.5979   0.0818
Ti48     Ti     0.1958   0.5979   0.0818
loop_
_geom_bond_atom_site_label_1
_geom_bond_atom_site_label_2
_geom_bond_distance
_geom_bond_site_symmetry_2
_ccdc_geom_bond_type
Ce1     Ce2    9.997   .     S
Ce1     Ce3    10.019   .     S
Ce1     Ce7    10.019   .     S
Ce1     V19    10.024   .     S
Ce2     Ce8    10.019   .     S
Ce2     Ce4    10.019   .     S
Ce2     V23    10.024   .     S
Ce3     Ce4    9.997   .     S
Ce3     Ce5    10.019   1_545     S
Ce3     V38    10.024   .     S
Ce4     Ce6    10.019   1_545     S
Ce4     V42    10.024   .     S
Ce5     Ce6    9.997   .     S
Ce5     Ce3    10.019   1_565     S
Ce5     Ce11    10.019   1_455     S
Ce5     V15    10.024   .     S
Ce6     Ce4    10.019   1_565     S
Ce6     Ce12    10.019   1_455     S
Ce6     V27    10.024   .     S
Ce7     Ce8    9.997   .     S
Ce7     Ce9    10.019   1_455     S
Ce7     V16    10.024   .     S
Ce8     Ce10    10.019   1_455     S
Ce8     V28    10.024   .     S
Ce9     Ce10    9.997   .     S
Ce9     Ce7    10.019   1_655     S
Ce9     Ce11    10.019   1_545     S
Ce9     V37    10.024   .     S
Ce10     Ce8    10.019   1_655     S
Ce10     Ce12    10.019   1_545     S
Ce10     V41    10.024   .     S
Ce11     Ce12    9.997   .     S
Ce11     Ce5    10.019   1_655     S
Ce11     Ce9    10.019   1_565     S
Ce11     V20    10.024   .     S
Ce12     Ce10    10.019   1_565     S
Ce12     Ce6    10.019   1_655     S
Ce12     V24    10.024   .     S
Er13     V16    9.993   1_655     S
Er13     V15    9.993   1_655     S
Er13     Er14    9.975   1_655     S
Er13     Ti30    9.999   .     S
Er14     V16    9.993   .     S
Er14     V15    9.993   .     S
Er14     Er13    9.975   1_455     S
Er14     Ti45    9.999   .     S
V15     Er13    9.993   1_455     S
V15     V16    10.008   .     S
V16     Er13    9.993   1_455     S
Er17     V20    9.993   .     S
Er17     V19    9.993   .     S
Er17     Er18    9.975   .     S
Er17     Ti29    9.999   .     S
Er18     V20    9.993   .     S
Er18     V19    9.993   .     S
Er18     Ti44    9.999   .     S
V19     V20    10.008   .     S
Er21     V24    9.993   .     S
Er21     V23    9.993   .     S
Er21     Er22    9.975   .     S
Er21     Ti32    9.999   .     S
Er22     V24    9.993   .     S
Er22     V23    9.993   .     S
Er22     Ti47    9.999   .     S
V23     V24    10.008   .     S
Er25     V28    9.993   1_655     S
Er25     V27    9.993   1_655     S
Er25     Er26    9.975   1_655     S
Er25     Ti34    9.999   .     S
Er26     V28    9.993   .     S
Er26     V27    9.993   .     S
Er26     Er25    9.975   1_455     S
Er26     Ti48    9.999   .     S
V27     Er25    9.993   1_455     S
V27     V28    10.008   .     S
V28     Er25    9.993   1_455     S
Ti29     Ti30    9.984   .     S
Ti29     Ti31    9.984   .     S
Ti29     Ti32    9.998   1_556     S
Ti30     Ti31    9.984   .     S
Ti30     Ti34    9.998   1_556     S
Ti31     Er36    9.999   .     S
Ti31     Ti33    9.998   1_556     S
Ti32     Ti34    9.984   .     S
Ti32     Ti33    9.984   .     S
Ti32     Ti29    9.998   1_554     S
Ti33     Ti34    9.984   .     S
Ti33     Er40    9.999   .     S
Ti33     Ti31    9.998   1_554     S
Ti34     Ti30    9.998   1_554     S
Er35     V37    9.993   1_565     S
Er35     V38    9.993   1_565     S
Er35     Er36    9.975   1_565     S
Er35     Ti43    9.999   .     S
Er36     V37    9.993   .     S
Er36     V38    9.993   .     S
Er36     Er35    9.975   1_545     S
V37     Er35    9.993   1_545     S
V37     V38    10.008   .     S
V38     Er35    9.993   1_545     S
Er39     V41    9.993   1_565     S
Er39     V42    9.993   1_565     S
Er39     Er40    9.975   1_565     S
Er39     Ti46    9.999   .     S
Er40     V41    9.993   .     S
Er40     V42    9.993   .     S
Er40     Er39    9.975   1_545     S
V41     Er39    9.993   1_545     S
V41     V42    10.008   .     S
V42     Er39    9.993   1_545     S
Ti43     Ti44    9.984   .     S
Ti43     Ti45    9.984   .     S
Ti43     Ti46    9.998   1_556     S
Ti44     Ti45    9.984   .     S
Ti44     Ti47    9.998   1_556     S
Ti45     Ti48    9.998   1_556     S
Ti46     Ti47    9.984   .     S
Ti46     Ti48    9.984   .     S
Ti46     Ti43    9.998   1_554     S
Ti47     Ti48    9.984   .     S
Ti47     Ti44    9.998   1_554     S
Ti48     Ti45    9.998   1_554     S
