data_knc
_audit_creation_date              2020-02-02
_audit_creation_method            'Pymatgen'
_symmetry_space_group_name_H-M    'P1'
_symmetry_Int_Tables_number       1
loop_
_symmetry_equiv_pos_as_xyz
  x,y,z
_cell_length_a                    14.6059
_cell_length_b                    14.6059
_cell_length_c                    46.188
_cell_angle_alpha                 90.0
_cell_angle_beta                 90.0
_cell_angle_gamma                 90.0
loop_
_atom_site_label
_atom_site_type_symbol
_atom_site_fract_x
_atom_site_fract_y
_atom_site_fract_z
V1     V     0.75   0.5   0.375
V2     V     0.25   0.5   0.375
Ti3     Ti     0.5   0.0   0.5
V4     V     0.75   0.5   0.625
V5     V     0.25   0.5   0.625
Er6     Er     0.0   0.0   0.25
Ti7     Ti     0.0   0.5   0.0
V8     V     0.5   0.75   0.875
V9     V     0.5   0.25   0.875
Er10     Er     0.0   0.0   0.75
V11     V     0.5   0.25   0.125
V12     V     0.5   0.75   0.125
loop_
_geom_bond_atom_site_label_1
_geom_bond_atom_site_label_2
_geom_bond_distance
_geom_bond_site_symmetry_2
_ccdc_geom_bond_type
V1     Ti3    10.0   1_565     S
V1     Ti3    10.0   .     S
V1     Er6    10.0   1_665     S
V1     Er6    10.0   1_655     S
V2     Ti3    10.0   1_565     S
V2     Ti3    10.0   .     S
V2     Er6    10.0   1_565     S
V2     Er6    10.0   .     S
Ti3     V1    10.0   1_545     S
Ti3     V2    10.0   1_545     S
Ti3     V5    10.0   1_545     S
Ti3     V4    10.0   1_545     S
Ti3     V4    10.0   .     S
Ti3     V5    10.0   .     S
V4     Er10    10.0   1_665     S
V4     Er10    10.0   1_655     S
V4     Ti3    10.0   1_565     S
V5     Er10    10.0   1_565     S
V5     Er10    10.0   .     S
V5     Ti3    10.0   1_565     S
Er6     V1    10.0   1_445     S
Er6     V2    10.0   1_545     S
Er6     V1    10.0   1_455     S
Er6     V11    10.0   .     S
Er6     V12    10.0   1_545     S
Er6     V12    10.0   1_445     S
Er6     V11    10.0   1_455     S
Ti7     V9    10.0   1_454     S
Ti7     V8    10.0   1_454     S
Ti7     V8    10.0   1_554     S
Ti7     V9    10.0   1_554     S
Ti7     V12    10.0   1_455     S
Ti7     V11    10.0   1_455     S
Ti7     V11    10.0   .     S
Ti7     V12    10.0   .     S
V8     Er10    10.0   1_665     S
V8     Er10    10.0   1_565     S
V8     Ti7    10.0   1_656     S
V8     Ti7    10.0   1_556     S
V9     Er10    10.0   1_655     S
V9     Er10    10.0   .     S
V9     Ti7    10.0   1_656     S
V9     Ti7    10.0   1_556     S
Er10     V5    10.0   1_545     S
Er10     V4    10.0   1_445     S
Er10     V4    10.0   1_455     S
Er10     V9    10.0   1_455     S
Er10     V8    10.0   1_445     S
Er10     V8    10.0   1_545     S
V11     Er6    10.0   1_655     S
V11     Ti7    10.0   1_655     S
V12     Er6    10.0   1_565     S
V12     Er6    10.0   1_665     S
V12     Ti7    10.0   1_655     S
