data_knca
_audit_creation_date              2020-02-02
_audit_creation_method            'Pymatgen'
_symmetry_space_group_name_H-M    'P1'
_symmetry_Int_Tables_number       1
loop_
_symmetry_equiv_pos_as_xyz
  x,y,z
_cell_length_a                    36.1824
_cell_length_b                    36.1824
_cell_length_c                    120.8659
_cell_angle_alpha                 90.0
_cell_angle_beta                 90.0
_cell_angle_gamma                 90.0
loop_
_atom_site_label
_atom_site_type_symbol
_atom_site_fract_x
_atom_site_fract_y
_atom_site_fract_z
Ti1     Ti     0.6382   0.138   0.4586
Ti2     Ti     0.6382   0.862   0.4586
Ti3     Ti     0.6382   0.138   0.5414
Ti4     Ti     0.6382   0.862   0.5414
Ti5     Ti     0.3618   0.138   0.4586
Ti6     Ti     0.3618   0.862   0.4586
Ti7     Ti     0.3618   0.138   0.5414
Ti8     Ti     0.3618   0.862   0.5414
V9     V     0.1382   0.1995   0.5865
Er10     Er     0.1382   0.303   0.6632
V11     V     0.8618   0.1995   0.5865
Er12     Er     0.8618   0.303   0.6632
V13     V     0.1995   0.1382   0.9135
Er14     Er     0.303   0.1382   0.8368
V15     V     0.1995   0.8618   0.9135
Er16     Er     0.303   0.8618   0.8368
V17     V     0.1382   0.8005   0.5865
Er18     Er     0.1382   0.697   0.6632
V19     V     0.8618   0.8005   0.5865
Er20     Er     0.8618   0.697   0.6632
V21     V     0.8005   0.1382   0.9135
Er22     Er     0.697   0.1382   0.8368
V23     V     0.8005   0.8618   0.9135
Er24     Er     0.697   0.8618   0.8368
Ce25     Ce     0.3618   0.362   0.7086
Ce26     Ce     0.3618   0.638   0.7086
Ce27     Ce     0.362   0.6382   0.7914
Ce28     Ce     0.638   0.6382   0.7914
Ce29     Ce     0.6382   0.362   0.7086
Ce30     Ce     0.6382   0.638   0.7086
Ce31     Ce     0.362   0.3618   0.7914
Ce32     Ce     0.638   0.3618   0.7914
Ti33     Ti     0.138   0.6382   0.9586
Ti34     Ti     0.862   0.6382   0.9586
Ti35     Ti     0.138   0.6382   0.0414
Ti36     Ti     0.862   0.6382   0.0414
Ti37     Ti     0.138   0.3618   0.9586
Ti38     Ti     0.862   0.3618   0.9586
Ti39     Ti     0.138   0.3618   0.0414
Ti40     Ti     0.862   0.3618   0.0414
V41     V     0.8005   0.1382   0.0865
Er42     Er     0.697   0.1382   0.1632
V43     V     0.8005   0.8618   0.0865
Er44     Er     0.697   0.8618   0.1632
V45     V     0.1995   0.1382   0.0865
Er46     Er     0.303   0.1382   0.1632
V47     V     0.1995   0.8618   0.0865
Er48     Er     0.303   0.8618   0.1632
V49     V     0.1382   0.8005   0.4135
Er50     Er     0.1382   0.697   0.3368
V51     V     0.8618   0.8005   0.4135
Er52     Er     0.8618   0.697   0.3368
V53     V     0.1382   0.1995   0.4135
Er54     Er     0.1382   0.303   0.3368
V55     V     0.8618   0.1995   0.4135
Er56     Er     0.8618   0.303   0.3368
Ce57     Ce     0.6382   0.362   0.2914
Ce58     Ce     0.6382   0.638   0.2914
Ce59     Ce     0.362   0.6382   0.2086
Ce60     Ce     0.638   0.6382   0.2086
Ce61     Ce     0.362   0.3618   0.2086
Ce62     Ce     0.638   0.3618   0.2086
Ce63     Ce     0.3618   0.362   0.2914
Ce64     Ce     0.3618   0.638   0.2914
loop_
_geom_bond_atom_site_label_1
_geom_bond_atom_site_label_2
_geom_bond_distance
_geom_bond_site_symmetry_2
_ccdc_geom_bond_type
Ti1     Ti2    9.986   1_545     S
Ti1     Ti3    9.996   .     S
Ti1     Ti5    10.003   .     S
Ti1     V55    10.008   .     S
Ti2     Ti1    9.986   1_565     S
Ti2     Ti4    9.996   .     S
Ti2     Ti6    10.003   .     S
Ti2     V51    10.008   .     S
Ti3     Ti4    9.986   1_545     S
Ti3     Ti7    10.003   .     S
Ti3     V11    10.008   .     S
Ti4     Ti3    9.986   1_565     S
Ti4     Ti8    10.003   .     S
Ti4     V19    10.008   .     S
Ti5     Ti6    9.986   1_545     S
Ti5     Ti7    9.996   .     S
Ti5     V53    10.008   .     S
Ti6     Ti5    9.986   1_565     S
Ti6     Ti8    9.996   .     S
Ti6     V49    10.008   .     S
Ti7     Ti8    9.986   1_545     S
Ti7     V9    10.008   .     S
Ti8     Ti7    9.986   1_565     S
Ti8     V17    10.008   .     S
V9     Er10    9.997   .     S
V9     V11    10.003   1_455     S
Er10     Er12    10.003   1_455     S
Er10     Ce25    10.008   .     S
V11     Er12    9.997   .     S
V11     V9    10.003   1_655     S
Er12     Er10    10.003   1_655     S
Er12     Ce29    10.008   .     S
V13     Er14    9.997   .     S
V13     V15    10.003   1_545     S
V13     Ti37    10.008   .     S
Er14     Er16    10.003   1_545     S
Er14     Ce31    10.008   .     S
V15     Er16    9.997   .     S
V15     V13    10.003   1_565     S
V15     Ti33    10.008   .     S
Er16     Er14    10.003   1_565     S
Er16     Ce27    10.008   .     S
V17     Er18    9.997   .     S
V17     V19    10.003   1_455     S
Er18     Er20    10.003   1_455     S
Er18     Ce26    10.008   .     S
V19     Er20    9.997   .     S
V19     V17    10.003   1_655     S
Er20     Er18    10.003   1_655     S
Er20     Ce30    10.008   .     S
V21     Er22    9.997   .     S
V21     V23    10.003   1_545     S
V21     Ti38    10.008   .     S
Er22     Er24    10.003   1_545     S
Er22     Ce32    10.008   .     S
V23     Er24    9.997   .     S
V23     V21    10.003   1_565     S
V23     Ti34    10.008   .     S
Er24     Er22    10.003   1_565     S
Er24     Ce28    10.008   .     S
Ce25     Ce26    9.986   .     S
Ce25     Ce31    9.996   .     S
Ce25     Ce29    10.003   .     S
Ce26     Ce27    9.996   .     S
Ce26     Ce30    10.003   .     S
Ce27     Ce28    9.986   .     S
Ce27     Ce31    10.003   .     S
Ce28     Ce30    9.996   .     S
Ce28     Ce32    10.003   .     S
Ce29     Ce30    9.986   .     S
Ce29     Ce32    9.996   .     S
Ce31     Ce32    9.986   .     S
Ti33     Ti34    9.986   1_455     S
Ti33     Ti35    9.996   1_556     S
Ti33     Ti37    10.003   .     S
Ti34     Ti33    9.986   1_655     S
Ti34     Ti36    9.996   1_556     S
Ti34     Ti38    10.003   .     S
Ti35     Ti36    9.986   1_455     S
Ti35     Ti33    9.996   1_554     S
Ti35     Ti39    10.003   .     S
Ti35     V47    10.008   .     S
Ti36     Ti35    9.986   1_655     S
Ti36     Ti34    9.996   1_554     S
Ti36     Ti40    10.003   .     S
Ti36     V43    10.008   .     S
Ti37     Ti38    9.986   1_455     S
Ti37     Ti39    9.996   1_556     S
Ti38     Ti37    9.986   1_655     S
Ti38     Ti40    9.996   1_556     S
Ti39     Ti40    9.986   1_455     S
Ti39     Ti37    9.996   1_554     S
Ti39     V45    10.008   .     S
Ti40     Ti39    9.986   1_655     S
Ti40     Ti38    9.996   1_554     S
Ti40     V41    10.008   .     S
V41     Er42    9.997   .     S
V41     V43    10.003   1_545     S
Er42     Er44    10.003   1_545     S
Er42     Ce62    10.008   .     S
V43     Er44    9.997   .     S
V43     V41    10.003   1_565     S
Er44     Er42    10.003   1_565     S
Er44     Ce60    10.008   .     S
V45     Er46    9.997   .     S
V45     V47    10.003   1_545     S
Er46     Er48    10.003   1_545     S
Er46     Ce61    10.008   .     S
V47     Er48    9.997   .     S
V47     V45    10.003   1_565     S
Er48     Er46    10.003   1_565     S
Er48     Ce59    10.008   .     S
V49     Er50    9.997   .     S
V49     V51    10.003   1_455     S
Er50     Er52    10.003   1_455     S
Er50     Ce64    10.008   .     S
V51     Er52    9.997   .     S
V51     V49    10.003   1_655     S
Er52     Er50    10.003   1_655     S
Er52     Ce58    10.008   .     S
V53     Er54    9.997   .     S
V53     V55    10.003   1_455     S
Er54     Er56    10.003   1_455     S
Er54     Ce63    10.008   .     S
V55     Er56    9.997   .     S
V55     V53    10.003   1_655     S
Er56     Er54    10.003   1_655     S
Er56     Ce57    10.008   .     S
Ce57     Ce58    9.986   .     S
Ce57     Ce62    9.996   .     S
Ce57     Ce63    10.003   .     S
Ce58     Ce60    9.996   .     S
Ce58     Ce64    10.003   .     S
Ce59     Ce60    9.986   .     S
Ce59     Ce64    9.996   .     S
Ce59     Ce61    10.003   .     S
Ce60     Ce62    10.003   .     S
Ce61     Ce62    9.986   .     S
Ce61     Ce63    9.996   .     S
Ce63     Ce64    9.986   .     S
