data_koha
_audit_creation_date              2020-02-02
_audit_creation_method            'Pymatgen'
_symmetry_space_group_name_H-M    'P1'
_symmetry_Int_Tables_number       1
loop_
_symmetry_equiv_pos_as_xyz
  x,y,z
_cell_length_a                    92.669
_cell_length_b                    92.669
_cell_length_c                    92.669
_cell_angle_alpha                 90.0
_cell_angle_beta                 90.0
_cell_angle_gamma                 90.0
loop_
_atom_site_label
_atom_site_type_symbol
_atom_site_fract_x
_atom_site_fract_y
_atom_site_fract_z
Ce1     Ce     0.3899   0.1101   0.1864
Ce2     Ce     0.3899   0.1864   0.1101
Ce3     Ce     0.3136   0.1101   0.1101
Ce4     Ce     0.1101   0.1864   0.3899
Ce5     Ce     0.1864   0.1101   0.3899
Ce6     Ce     0.1101   0.1101   0.3136
Ce7     Ce     0.1101   0.3899   0.1864
Ce8     Ce     0.1864   0.3899   0.1101
Ce9     Ce     0.1101   0.3136   0.1101
Ce10     Ce     0.3136   0.3899   0.3899
Ce11     Ce     0.3899   0.3899   0.3136
Ce12     Ce     0.3899   0.3136   0.3899
S13     S     0.2118   0.1355   0.2882
S14     S     0.2882   0.1355   0.2118
S15     S     0.2118   0.2882   0.1355
S16     S     0.2882   0.2118   0.1355
S17     S     0.1355   0.2882   0.2118
S18     S     0.1355   0.2118   0.2882
S19     S     0.3645   0.2118   0.2118
S20     S     0.3645   0.2882   0.2882
S21     S     0.2118   0.2118   0.3645
S22     S     0.2882   0.2882   0.3645
S23     S     0.2118   0.3645   0.2118
S24     S     0.2882   0.3645   0.2882
Ti25     Ti     0.7223   0.9618   0.0382
Ti26     Ti     0.7223   0.0382   0.9618
Er27     Er     0.8158   0.0   0.0
Ti28     Ti     0.9618   0.7223   0.0382
Ti29     Ti     0.0382   0.7223   0.9618
Er30     Er     0.0   0.8158   0.0
Ti31     Ti     0.0382   0.9618   0.7223
Ti32     Ti     0.9618   0.0382   0.7223
Er33     Er     0.0   0.0   0.8158
Ti34     Ti     0.0382   0.2777   0.0382
Ti35     Ti     0.9618   0.2777   0.9618
Er36     Er     0.0   0.1842   0.0
Ti37     Ti     0.2777   0.0382   0.0382
Ti38     Ti     0.2777   0.9618   0.9618
Er39     Er     0.1842   0.0   0.0
Ti40     Ti     0.0382   0.0382   0.2777
Ti41     Ti     0.9618   0.9618   0.2777
Er42     Er     0.0   0.0   0.1842
V43     V     0.0   0.0   0.0763
V44     V     0.0   0.0763   0.0
V45     V     0.0   0.9237   0.0
V46     V     0.9237   0.0   0.0
V47     V     0.0   0.0   0.9237
V48     V     0.0763   0.0   0.0
Ti49     Ti     0.2223   0.4618   0.0382
Ti50     Ti     0.2223   0.5382   0.9618
Er51     Er     0.3158   0.5   0.0
Ti52     Ti     0.4618   0.2223   0.0382
Ti53     Ti     0.5382   0.2223   0.9618
Er54     Er     0.5   0.3158   0.0
Ti55     Ti     0.5382   0.7777   0.0382
Ti56     Ti     0.4618   0.7777   0.9618
Er57     Er     0.5   0.6842   0.0
Ti58     Ti     0.7777   0.5382   0.0382
Ti59     Ti     0.7777   0.4618   0.9618
Er60     Er     0.6842   0.5   0.0
Ti61     Ti     0.5382   0.5382   0.2777
Ti62     Ti     0.4618   0.4618   0.2777
Er63     Er     0.5   0.5   0.1842
V64     V     0.4237   0.5   0.0
V65     V     0.5   0.4237   0.0
V66     V     0.5763   0.5   0.0
V67     V     0.5   0.5   0.0763
V68     V     0.5   0.5763   0.0
V69     V     0.5   0.5   0.9237
Ti70     Ti     0.5382   0.4618   0.7223
Ti71     Ti     0.4618   0.5382   0.7223
Er72     Er     0.5   0.5   0.8158
Ce73     Ce     0.6864   0.1101   0.8899
Ce74     Ce     0.6101   0.1101   0.8136
Ce75     Ce     0.6101   0.1864   0.8899
Ce76     Ce     0.8899   0.1101   0.6864
Ce77     Ce     0.8899   0.1864   0.6101
Ce78     Ce     0.8136   0.1101   0.6101
Ce79     Ce     0.6864   0.3899   0.6101
Ce80     Ce     0.6101   0.3136   0.6101
Ce81     Ce     0.6101   0.3899   0.6864
Ce82     Ce     0.8899   0.3899   0.8136
Ce83     Ce     0.8899   0.3136   0.8899
Ce84     Ce     0.8136   0.3899   0.8899
S85     S     0.7118   0.2118   0.8645
S86     S     0.7882   0.2882   0.8645
S87     S     0.8645   0.2118   0.7118
S88     S     0.8645   0.2882   0.7882
S89     S     0.7882   0.3645   0.7882
S90     S     0.7118   0.3645   0.7118
S91     S     0.7882   0.1355   0.7118
S92     S     0.7118   0.1355   0.7882
S93     S     0.6355   0.2118   0.7882
S94     S     0.6355   0.2882   0.7118
S95     S     0.7882   0.2118   0.6355
S96     S     0.7118   0.2882   0.6355
Ti97     Ti     0.0382   0.2223   0.4618
Ti98     Ti     0.9618   0.2223   0.5382
Er99     Er     0.0   0.3158   0.5
Ti100     Ti     0.0382   0.4618   0.2223
Ti101     Ti     0.9618   0.5382   0.2223
Er102     Er     0.0   0.5   0.3158
Ti103     Ti     0.0382   0.7777   0.5382
Ti104     Ti     0.9618   0.7777   0.4618
Er105     Er     0.0   0.6842   0.5
Ti106     Ti     0.7223   0.4618   0.5382
Ti107     Ti     0.7223   0.5382   0.4618
Er108     Er     0.8158   0.5   0.5
Ti109     Ti     0.0382   0.5382   0.7777
Ti110     Ti     0.9618   0.4618   0.7777
Er111     Er     0.0   0.5   0.6842
Ti112     Ti     0.2777   0.5382   0.5382
Ti113     Ti     0.2777   0.4618   0.4618
Er114     Er     0.1842   0.5   0.5
V115     V     0.0   0.4237   0.5
V116     V     0.0   0.5   0.4237
V117     V     0.0763   0.5   0.5
V118     V     0.0   0.5   0.5763
V119     V     0.0   0.5763   0.5
V120     V     0.9237   0.5   0.5
Ce121     Ce     0.8899   0.6864   0.1101
Ce122     Ce     0.8899   0.6101   0.1864
Ce123     Ce     0.8136   0.6101   0.1101
Ce124     Ce     0.6864   0.8899   0.1101
Ce125     Ce     0.6101   0.8899   0.1864
Ce126     Ce     0.6101   0.8136   0.1101
Ce127     Ce     0.6864   0.6101   0.3899
Ce128     Ce     0.6101   0.6864   0.3899
Ce129     Ce     0.6101   0.6101   0.3136
Ce130     Ce     0.8899   0.8899   0.3136
Ce131     Ce     0.8899   0.8136   0.3899
Ce132     Ce     0.8136   0.8899   0.3899
S133     S     0.7118   0.7882   0.1355
S134     S     0.7882   0.7118   0.1355
S135     S     0.6355   0.7882   0.2118
S136     S     0.6355   0.7118   0.2882
S137     S     0.7882   0.6355   0.2118
S138     S     0.7118   0.6355   0.2882
S139     S     0.8645   0.7118   0.2118
S140     S     0.8645   0.7882   0.2882
S141     S     0.7118   0.8645   0.2118
S142     S     0.7882   0.8645   0.2882
S143     S     0.7882   0.7882   0.3645
S144     S     0.7118   0.7118   0.3645
Ti145     Ti     0.2223   0.0382   0.4618
Ti146     Ti     0.2223   0.9618   0.5382
Er147     Er     0.3158   0.0   0.5
Ti148     Ti     0.4618   0.0382   0.2223
Ti149     Ti     0.5382   0.9618   0.2223
Er150     Er     0.5   0.0   0.3158
Ti151     Ti     0.5382   0.7223   0.4618
Ti152     Ti     0.4618   0.7223   0.5382
Er153     Er     0.5   0.8158   0.5
Ti154     Ti     0.7777   0.0382   0.5382
Ti155     Ti     0.7777   0.9618   0.4618
Er156     Er     0.6842   0.0   0.5
Ti157     Ti     0.4618   0.2777   0.4618
Ti158     Ti     0.5382   0.2777   0.5382
Er159     Er     0.5   0.1842   0.5
V160     V     0.5   0.0   0.4237
V161     V     0.4237   0.0   0.5
V162     V     0.5   0.0   0.5763
V163     V     0.5   0.0763   0.5
V164     V     0.5763   0.0   0.5
V165     V     0.5   0.9237   0.5
Ti166     Ti     0.5382   0.0382   0.7777
Ti167     Ti     0.4618   0.9618   0.7777
Er168     Er     0.5   0.0   0.6842
Ce169     Ce     0.1101   0.6864   0.8899
Ce170     Ce     0.1101   0.6101   0.8136
Ce171     Ce     0.1864   0.6101   0.8899
Ce172     Ce     0.1101   0.8899   0.6864
Ce173     Ce     0.1864   0.8899   0.6101
Ce174     Ce     0.1101   0.8136   0.6101
Ce175     Ce     0.3899   0.6864   0.6101
Ce176     Ce     0.3136   0.6101   0.6101
Ce177     Ce     0.3899   0.6101   0.6864
Ce178     Ce     0.3136   0.8899   0.8899
Ce179     Ce     0.3899   0.8899   0.8136
Ce180     Ce     0.3899   0.8136   0.8899
S181     S     0.1355   0.7882   0.7118
S182     S     0.1355   0.7118   0.7882
S183     S     0.2118   0.7882   0.6355
S184     S     0.2882   0.7118   0.6355
S185     S     0.2118   0.6355   0.7882
S186     S     0.2882   0.6355   0.7118
S187     S     0.2118   0.7118   0.8645
S188     S     0.2882   0.7882   0.8645
S189     S     0.2118   0.8645   0.7118
S190     S     0.2882   0.8645   0.7882
S191     S     0.3645   0.7882   0.7882
S192     S     0.3645   0.7118   0.7118
loop_
_geom_bond_atom_site_label_1
_geom_bond_atom_site_label_2
_geom_bond_distance
_geom_bond_site_symmetry_2
_ccdc_geom_bond_type
Ce1     Ce2    9.999   .     S
Ce1     Ce3    9.999   .     S
Ce1     S14    10.0   .     S
Ce1     S19    10.0   .     S
Ce1     Ti148    10.001   .     S
Ce2     Ce3    9.999   .     S
Ce2     S16    10.0   .     S
Ce2     S19    10.0   .     S
Ce2     Ti52    10.001   .     S
Ce3     S14    10.0   .     S
Ce3     S16    10.0   .     S
Ce3     Ti37    10.001   .     S
Ce4     Ce5    9.999   .     S
Ce4     Ce6    9.999   .     S
Ce4     S18    10.0   .     S
Ce4     S21    10.0   .     S
Ce4     Ti97    10.001   .     S
Ce5     Ce6    9.999   .     S
Ce5     S13    10.0   .     S
Ce5     S21    10.0   .     S
Ce5     Ti145    10.001   .     S
Ce6     S18    10.0   .     S
Ce6     S13    10.0   .     S
Ce6     Ti40    10.001   .     S
Ce7     Ce8    9.999   .     S
Ce7     Ce9    9.999   .     S
Ce7     S17    10.0   .     S
Ce7     S23    10.0   .     S
Ce7     Ti100    10.001   .     S
Ce8     Ce9    9.999   .     S
Ce8     S15    10.0   .     S
Ce8     S23    10.0   .     S
Ce8     Ti49    10.001   .     S
Ce9     S17    10.0   .     S
Ce9     S15    10.0   .     S
Ce9     Ti34    10.001   .     S
Ce10     Ce11    9.999   .     S
Ce10     Ce12    9.999   .     S
Ce10     S24    10.0   .     S
Ce10     S22    10.0   .     S
Ce10     Ti113    10.001   .     S
Ce11     Ce12    9.999   .     S
Ce11     S20    10.0   .     S
Ce11     S24    10.0   .     S
Ce11     Ti62    10.001   .     S
Ce12     S22    10.0   .     S
Ce12     S20    10.0   .     S
Ce12     Ti157    10.001   .     S
S13     S14    9.999   .     S
S13     S21    10.001   .     S
S13     S18    10.001   .     S
S14     S16    10.001   .     S
S14     S19    10.001   .     S
S15     S16    9.999   .     S
S15     S23    10.001   .     S
S15     S17    10.001   .     S
S16     S19    10.001   .     S
S17     S23    10.001   .     S
S17     S18    9.999   .     S
S18     S21    10.001   .     S
S19     S20    9.999   .     S
S20     S24    10.001   .     S
S20     S22    10.001   .     S
S21     S22    9.999   .     S
S22     S24    10.001   .     S
S23     S24    9.999   .     S
Ti25     Ti26    9.999   1_564     S
Ti25     Er27    10.0   1_565     S
Ti25     Ce124    10.001   .     S
Ti26     Ti25    9.999   1_546     S
Ti26     Er27    10.0   1_556     S
Ti26     Ce73    10.001   .     S
Er27     Ti25    10.0   1_545     S
Er27     Ti26    10.0   1_554     S
Er27     V46    10.001   .     S
Ti28     Ti29    9.999   1_654     S
Ti28     Er30    10.0   1_655     S
Ti28     Ce121    10.001   .     S
Ti29     Ti28    9.999   1_456     S
Ti29     Er30    10.0   1_556     S
Ti29     Ce169    10.001   .     S
Er30     Ti29    10.0   1_554     S
Er30     Ti28    10.0   1_455     S
Er30     V45    10.001   .     S
Ti31     Ti32    9.999   1_465     S
Ti31     Er33    10.0   1_565     S
Ti31     Ce172    10.001   .     S
Ti32     Ti31    9.999   1_645     S
Ti32     Er33    10.0   1_655     S
Ti32     Ce76    10.001   .     S
Er33     Ti31    10.0   1_545     S
Er33     Ti32    10.0   1_455     S
Er33     V47    10.001   .     S
Ti34     Ti35    9.999   1_454     S
Ti34     Er36    10.0   .     S
Ti35     Ti34    9.999   1_656     S
Ti35     Er36    10.0   1_656     S
Ti35     Ce83    10.001   .     S
Er36     Ti35    10.0   1_454     S
Er36     V44    10.001   .     S
Ti37     Ti38    9.999   1_544     S
Ti37     Er39    10.0   .     S
Ti38     Ti37    9.999   1_566     S
Ti38     Er39    10.0   1_566     S
Ti38     Ce178    10.001   .     S
Er39     Ti38    10.0   1_544     S
Er39     V48    10.001   .     S
Ti40     Ti41    9.999   1_445     S
Ti40     Er42    10.0   .     S
Ti41     Ti40    9.999   1_665     S
Ti41     Er42    10.0   1_665     S
Ti41     Ce130    10.001   .     S
Er42     Ti41    10.0   1_445     S
Er42     V43    10.001   .     S
V43     V44    9.999   .     S
V43     V45    9.999   1_545     S
V43     V46    9.999   1_455     S
V43     V48    9.999   .     S
V44     V47    9.999   1_554     S
V44     V48    9.999   .     S
V44     V46    9.999   1_455     S
V45     V43    9.999   1_565     S
V45     V47    9.999   1_564     S
V45     V48    9.999   1_565     S
V45     V46    9.999   1_465     S
V46     V43    9.999   1_655     S
V46     V47    9.999   1_654     S
V46     V45    9.999   1_645     S
V46     V44    9.999   1_655     S
V47     V44    9.999   1_556     S
V47     V48    9.999   1_556     S
V47     V46    9.999   1_456     S
V47     V45    9.999   1_546     S
V48     V47    9.999   1_554     S
V48     V45    9.999   1_545     S
Ti49     Ti50    9.999   1_554     S
Ti49     Er51    10.0   .     S
Ti50     Ti49    9.999   1_556     S
Ti50     Er51    10.0   1_556     S
Ti50     Ce171    10.001   .     S
Er51     Ti50    10.0   1_554     S
Er51     V64    10.001   .     S
Ti52     Ti53    9.999   1_554     S
Ti52     Er54    10.0   .     S
Ti53     Ti52    9.999   1_556     S
Ti53     Er54    10.0   1_556     S
Ti53     Ce75    10.001   .     S
Er54     Ti53    10.0   1_554     S
Er54     V65    10.001   .     S
Ti55     Ti56    9.999   1_554     S
Ti55     Er57    10.0   .     S
Ti55     Ce126    10.001   .     S
Ti56     Ti55    9.999   1_556     S
Ti56     Er57    10.0   1_556     S
Ti56     Ce180    10.001   .     S
Er57     Ti56    10.0   1_554     S
Er57     V68    10.001   .     S
Ti58     Ti59    9.999   1_554     S
Ti58     Er60    10.0   .     S
Ti58     Ce123    10.001   .     S
Ti59     Ti58    9.999   1_556     S
Ti59     Er60    10.0   1_556     S
Ti59     Ce84    10.001   .     S
Er60     Ti59    10.0   1_554     S
Er60     V66    10.001   .     S
Ti61     Ti62    9.999   .     S
Ti61     Er63    10.0   .     S
Ti61     Ce129    10.001   .     S
Ti62     Er63    10.0   .     S
Er63     V67    10.001   .     S
V64     V67    9.999   .     S
V64     V65    9.999   .     S
V64     V69    9.999   1_554     S
V64     V68    9.999   .     S
V65     V67    9.999   .     S
V65     V69    9.999   1_554     S
V65     V66    9.999   .     S
V66     V67    9.999   .     S
V66     V68    9.999   .     S
V66     V69    9.999   1_554     S
V67     V68    9.999   .     S
V68     V69    9.999   1_554     S
V69     V65    9.999   1_556     S
V69     V64    9.999   1_556     S
V69     V66    9.999   1_556     S
V69     V68    9.999   1_556     S
V69     Er72    10.001   .     S
Ti70     Ti71    9.999   .     S
Ti70     Er72    10.0   .     S
Ti70     Ce81    10.001   .     S
Ti71     Er72    10.0   .     S
Ti71     Ce177    10.001   .     S
Ce73     Ce75    9.999   .     S
Ce73     Ce74    9.999   .     S
Ce73     S92    10.0   .     S
Ce73     S85    10.0   .     S
Ce74     Ce75    9.999   .     S
Ce74     S92    10.0   .     S
Ce74     S93    10.0   .     S
Ce74     Ti166    10.001   .     S
Ce75     S93    10.0   .     S
Ce75     S85    10.0   .     S
Ce76     Ce77    9.999   .     S
Ce76     Ce78    9.999   .     S
Ce76     S91    10.0   .     S
Ce76     S87    10.0   .     S
Ce77     Ce78    9.999   .     S
Ce77     S95    10.0   .     S
Ce77     S87    10.0   .     S
Ce77     Ti98    10.001   .     S
Ce78     S91    10.0   .     S
Ce78     S95    10.0   .     S
Ce78     Ti154    10.001   .     S
Ce79     Ce81    9.999   .     S
Ce79     Ce80    9.999   .     S
Ce79     S96    10.0   .     S
Ce79     S90    10.0   .     S
Ce79     Ti106    10.001   .     S
Ce80     Ce81    9.999   .     S
Ce80     S96    10.0   .     S
Ce80     S94    10.0   .     S
Ce80     Ti158    10.001   .     S
Ce81     S94    10.0   .     S
Ce81     S90    10.0   .     S
Ce82     Ce83    9.999   .     S
Ce82     Ce84    9.999   .     S
Ce82     S89    10.0   .     S
Ce82     S88    10.0   .     S
Ce82     Ti110    10.001   .     S
Ce83     Ce84    9.999   .     S
Ce83     S88    10.0   .     S
Ce83     S86    10.0   .     S
Ce84     S89    10.0   .     S
Ce84     S86    10.0   .     S
S85     S86    9.999   .     S
S85     S92    10.001   .     S
S85     S93    10.001   .     S
S86     S89    10.001   .     S
S86     S88    10.001   .     S
S87     S88    9.999   .     S
S87     S91    10.001   .     S
S87     S95    10.001   .     S
S88     S89    10.001   .     S
S89     S90    9.999   .     S
S90     S94    10.001   .     S
S90     S96    10.001   .     S
S91     S92    9.999   .     S
S91     S95    10.001   .     S
S92     S93    10.001   .     S
S93     S94    9.999   .     S
S94     S96    10.001   .     S
S95     S96    9.999   .     S
Ti97     Ti98    9.999   1_455     S
Ti97     Er99    10.0   .     S
Ti98     Ti97    9.999   1_655     S
Ti98     Er99    10.0   1_655     S
Er99     Ti98    10.0   1_455     S
Er99     V115    10.001   .     S
Ti100     Ti101    9.999   1_455     S
Ti100     Er102    10.0   .     S
Ti101     Ti100    9.999   1_655     S
Ti101     Er102    10.0   1_655     S
Ti101     Ce122    10.001   .     S
Er102     Ti101    10.0   1_455     S
Er102     V116    10.001   .     S
Ti103     Ti104    9.999   1_455     S
Ti103     Er105    10.0   .     S
Ti103     Ce174    10.001   .     S
Ti104     Ti103    9.999   1_655     S
Ti104     Er105    10.0   1_655     S
Ti104     Ce131    10.001   .     S
Er105     Ti104    10.0   1_455     S
Er105     V119    10.001   .     S
Ti106     Ti107    9.999   .     S
Ti106     Er108    10.0   .     S
Ti107     Er108    10.0   .     S
Ti107     Ce127    10.001   .     S
Er108     V120    10.001   .     S
Ti109     Ti110    9.999   1_455     S
Ti109     Er111    10.0   .     S
Ti109     Ce170    10.001   .     S
Ti110     Ti109    9.999   1_655     S
Ti110     Er111    10.0   1_655     S
Er111     Ti110    10.0   1_455     S
Er111     V118    10.001   .     S
Ti112     Ti113    9.999   .     S
Ti112     Er114    10.0   .     S
Ti112     Ce176    10.001   .     S
Ti113     Er114    10.0   .     S
Er114     V117    10.001   .     S
V115     V117    9.999   .     S
V115     V116    9.999   .     S
V115     V118    9.999   .     S
V115     V120    9.999   1_455     S
V116     V117    9.999   .     S
V116     V120    9.999   1_455     S
V116     V119    9.999   .     S
V117     V118    9.999   .     S
V117     V119    9.999   .     S
V118     V119    9.999   .     S
V118     V120    9.999   1_455     S
V119     V120    9.999   1_455     S
V120     V116    9.999   1_655     S
V120     V115    9.999   1_655     S
V120     V118    9.999   1_655     S
V120     V119    9.999   1_655     S
Ce121     Ce122    9.999   .     S
Ce121     Ce123    9.999   .     S
Ce121     S134    10.0   .     S
Ce121     S139    10.0   .     S
Ce122     Ce123    9.999   .     S
Ce122     S137    10.0   .     S
Ce122     S139    10.0   .     S
Ce123     S134    10.0   .     S
Ce123     S137    10.0   .     S
Ce124     Ce125    9.999   .     S
Ce124     Ce126    9.999   .     S
Ce124     S133    10.0   .     S
Ce124     S141    10.0   .     S
Ce125     Ce126    9.999   .     S
Ce125     S135    10.0   .     S
Ce125     S141    10.0   .     S
Ce125     Ti149    10.001   .     S
Ce126     S133    10.0   .     S
Ce126     S135    10.0   .     S
Ce127     Ce128    9.999   .     S
Ce127     Ce129    9.999   .     S
Ce127     S138    10.0   .     S
Ce127     S144    10.0   .     S
Ce128     Ce129    9.999   .     S
Ce128     S136    10.0   .     S
Ce128     S144    10.0   .     S
Ce128     Ti151    10.001   .     S
Ce129     S138    10.0   .     S
Ce129     S136    10.0   .     S
Ce130     Ce131    9.999   .     S
Ce130     Ce132    9.999   .     S
Ce130     S142    10.0   .     S
Ce130     S140    10.0   .     S
Ce131     Ce132    9.999   .     S
Ce131     S143    10.0   .     S
Ce131     S140    10.0   .     S
Ce132     S143    10.0   .     S
Ce132     S142    10.0   .     S
Ce132     Ti155    10.001   .     S
S133     S134    9.999   .     S
S133     S141    10.001   .     S
S133     S135    10.001   .     S
S134     S139    10.001   .     S
S134     S137    10.001   .     S
S135     S141    10.001   .     S
S135     S136    9.999   .     S
S136     S144    10.001   .     S
S136     S138    10.001   .     S
S137     S139    10.001   .     S
S137     S138    9.999   .     S
S138     S144    10.001   .     S
S139     S140    9.999   .     S
S140     S143    10.001   .     S
S140     S142    10.001   .     S
S141     S142    9.999   .     S
S142     S143    10.001   .     S
S143     S144    9.999   .     S
Ti145     Ti146    9.999   1_545     S
Ti145     Er147    10.0   .     S
Ti146     Ti145    9.999   1_565     S
Ti146     Er147    10.0   1_565     S
Ti146     Ce173    10.001   .     S
Er147     Ti146    10.0   1_545     S
Er147     V161    10.001   .     S
Ti148     Ti149    9.999   1_545     S
Ti148     Er150    10.0   .     S
Ti149     Ti148    9.999   1_565     S
Ti149     Er150    10.0   1_565     S
Er150     Ti149    10.0   1_545     S
Er150     V160    10.001   .     S
Ti151     Ti152    9.999   .     S
Ti151     Er153    10.0   .     S
Ti152     Er153    10.0   .     S
Ti152     Ce175    10.001   .     S
Er153     V165    10.001   .     S
Ti154     Ti155    9.999   1_545     S
Ti154     Er156    10.0   .     S
Ti155     Ti154    9.999   1_565     S
Ti155     Er156    10.0   1_565     S
Er156     Ti155    10.0   1_545     S
Er156     V164    10.001   .     S
Ti157     Ti158    9.999   .     S
Ti157     Er159    10.0   .     S
Ti158     Er159    10.0   .     S
Er159     V163    10.001   .     S
V160     V163    9.999   .     S
V160     V161    9.999   .     S
V160     V164    9.999   .     S
V160     V165    9.999   1_545     S
V161     V163    9.999   .     S
V161     V162    9.999   .     S
V161     V165    9.999   1_545     S
V162     V163    9.999   .     S
V162     V164    9.999   .     S
V162     V165    9.999   1_545     S
V162     Er168    10.001   .     S
V163     V164    9.999   .     S
V164     V165    9.999   1_545     S
V165     V160    9.999   1_565     S
V165     V161    9.999   1_565     S
V165     V162    9.999   1_565     S
V165     V164    9.999   1_565     S
Ti166     Ti167    9.999   1_545     S
Ti166     Er168    10.0   .     S
Ti167     Ti166    9.999   1_565     S
Ti167     Er168    10.0   1_565     S
Ti167     Ce179    10.001   .     S
Er168     Ti167    10.0   1_545     S
Ce169     Ce171    9.999   .     S
Ce169     Ce170    9.999   .     S
Ce169     S182    10.0   .     S
Ce169     S187    10.0   .     S
Ce170     Ce171    9.999   .     S
Ce170     S182    10.0   .     S
Ce170     S185    10.0   .     S
Ce171     S185    10.0   .     S
Ce171     S187    10.0   .     S
Ce172     Ce173    9.999   .     S
Ce172     Ce174    9.999   .     S
Ce172     S181    10.0   .     S
Ce172     S189    10.0   .     S
Ce173     Ce174    9.999   .     S
Ce173     S183    10.0   .     S
Ce173     S189    10.0   .     S
Ce174     S181    10.0   .     S
Ce174     S183    10.0   .     S
Ce175     Ce177    9.999   .     S
Ce175     Ce176    9.999   .     S
Ce175     S184    10.0   .     S
Ce175     S192    10.0   .     S
Ce176     Ce177    9.999   .     S
Ce176     S186    10.0   .     S
Ce176     S184    10.0   .     S
Ce177     S186    10.0   .     S
Ce177     S192    10.0   .     S
Ce178     Ce179    9.999   .     S
Ce178     Ce180    9.999   .     S
Ce178     S190    10.0   .     S
Ce178     S188    10.0   .     S
Ce179     Ce180    9.999   .     S
Ce179     S191    10.0   .     S
Ce179     S190    10.0   .     S
Ce180     S191    10.0   .     S
Ce180     S188    10.0   .     S
S181     S182    9.999   .     S
S181     S189    10.001   .     S
S181     S183    10.001   .     S
S182     S187    10.001   .     S
S182     S185    10.001   .     S
S183     S189    10.001   .     S
S183     S184    9.999   .     S
S184     S192    10.001   .     S
S184     S186    10.001   .     S
S185     S187    10.001   .     S
S185     S186    9.999   .     S
S186     S192    10.001   .     S
S187     S188    9.999   .     S
S188     S191    10.001   .     S
S188     S190    10.001   .     S
S189     S190    9.999   .     S
S190     S191    10.001   .     S
S191     S192    9.999   .     S
