data_ksx
_audit_creation_date              2020-02-02
_audit_creation_method            'Pymatgen'
_symmetry_space_group_name_H-M    'P1'
_symmetry_Int_Tables_number       1
loop_
_symmetry_equiv_pos_as_xyz
  x,y,z
_cell_length_a                    23.9945
_cell_length_b                    23.9945
_cell_length_c                    50.5903
_cell_angle_alpha                 90.0
_cell_angle_beta                 90.0
_cell_angle_gamma                 90.0
loop_
_atom_site_label
_atom_site_type_symbol
_atom_site_fract_x
_atom_site_fract_y
_atom_site_fract_z
Ti1     Ti     0.6474   0.6474   0.6712
Ti2     Ti     0.3526   0.3526   0.6712
Ti3     Ti     0.3526   0.6474   0.3288
V4     V     0.5   0.5   0.5
Ti5     Ti     0.6474   0.3526   0.3288
Er6     Er     0.5   0.0   0.75
Er7     Er     0.0   0.5   0.75
Ti8     Ti     0.8526   0.1474   0.8288
Ti9     Ti     0.1474   0.8526   0.8288
Ti10     Ti     0.8526   0.8526   0.1712
V11     V     0.0   0.0   0.0
Ti12     Ti     0.1474   0.1474   0.1712
Er13     Er     0.0   0.5   0.25
Er14     Er     0.5   0.0   0.25
loop_
_geom_bond_atom_site_label_1
_geom_bond_atom_site_label_2
_geom_bond_distance
_geom_bond_site_symmetry_2
_ccdc_geom_bond_type
Ti1     Er6    10.0   1_565     S
Ti1     Er7    10.0   1_655     S
Ti1     V4    10.0   .     S
Ti1     Ti2    10.0   .     S
Ti2     Er6    10.0   .     S
Ti2     Er7    10.0   .     S
Ti2     V4    10.0   .     S
Ti3     Er14    10.0   1_565     S
Ti3     Er13    10.0   .     S
Ti3     V4    10.0   .     S
Ti3     Ti5    10.0   .     S
V4     Ti5    10.0   .     S
Ti5     Er13    10.0   1_655     S
Ti5     Er14    10.0   .     S
Er6     Ti1    10.0   1_545     S
Er6     Ti8    10.0   .     S
Er6     Ti9    10.0   1_545     S
Er7     Ti1    10.0   1_455     S
Er7     Ti8    10.0   1_455     S
Er7     Ti9    10.0   .     S
Ti8     Er7    10.0   1_655     S
Ti8     V11    10.0   1_656     S
Ti8     Ti9    10.0   1_645     S
Ti9     Er6    10.0   1_565     S
Ti9     V11    10.0   1_566     S
Ti9     Ti8    10.0   1_465     S
Ti10     Er13    10.0   1_655     S
Ti10     Er14    10.0   1_565     S
Ti10     V11    10.0   1_665     S
Ti10     Ti12    10.0   1_665     S
V11     Ti9    10.0   1_544     S
V11     Ti8    10.0   1_454     S
V11     Ti12    10.0   .     S
V11     Ti10    10.0   1_445     S
Ti12     Ti10    10.0   1_445     S
Ti12     Er13    10.0   .     S
Ti12     Er14    10.0   .     S
Er13     Ti5    10.0   1_455     S
Er13     Ti10    10.0   1_455     S
Er14     Ti3    10.0   1_545     S
Er14     Ti10    10.0   1_545     S
