data_ktya
_audit_creation_date              2020-02-02
_audit_creation_method            'Pymatgen'
_symmetry_space_group_name_H-M    'P1'
_symmetry_Int_Tables_number       1
loop_
_symmetry_equiv_pos_as_xyz
  x,y,z
_cell_length_a                    45.3094
_cell_length_b                    45.3094
_cell_length_c                    23.6226
_cell_angle_alpha                 90.0
_cell_angle_beta                 90.0
_cell_angle_gamma                 90.0
loop_
_atom_site_label
_atom_site_type_symbol
_atom_site_fract_x
_atom_site_fract_y
_atom_site_fract_z
V1     V     0.3572   0.0   0.0
Ti2     Ti     0.1497   0.0   0.0
V3     V     0.0   0.6428   0.0
Ti4     Ti     0.0   0.8503   0.0
V5     V     0.6428   0.0   0.0
Ti6     Ti     0.8503   0.0   0.0
V7     V     0.0   0.3572   0.0
Ti8     Ti     0.0   0.1497   0.0
Er9     Er     0.8841   0.5   0.217
Er10     Er     0.5   0.8841   0.217
Er11     Er     0.8841   0.5   0.783
Er12     Er     0.5   0.8841   0.783
Er13     Er     0.1159   0.5   0.217
Er14     Er     0.5   0.1159   0.217
Er15     Er     0.1159   0.5   0.783
Er16     Er     0.5   0.1159   0.783
Ce17     Ce     0.5   0.6595   0.2874
Ce18     Ce     0.5   0.6595   0.7126
Ce19     Ce     0.6595   0.5   0.2874
Ce20     Ce     0.6595   0.5   0.7126
Ce21     Ce     0.5   0.3405   0.2874
Ce22     Ce     0.5   0.3405   0.7126
Ce23     Ce     0.3405   0.5   0.2874
Ce24     Ce     0.3405   0.5   0.7126
loop_
_geom_bond_atom_site_label_1
_geom_bond_atom_site_label_2
_geom_bond_distance
_geom_bond_site_symmetry_2
_ccdc_geom_bond_type
V1     Ti2    9.4   .     S
V1     Er12    9.786   1_544     S
V1     Er10    9.786   1_545     S
V1     Er16    9.786   1_554     S
V1     Er14    9.786   .     S
Ti2     Ti4    9.592   1_545     S
Ti2     Ti8    9.592   .     S
V3     Ti4    9.4   .     S
V3     Er11    9.786   1_454     S
V3     Er9    9.786   1_455     S
V3     Er15    9.786   1_554     S
V3     Er13    9.786   .     S
Ti4     Ti6    9.592   1_465     S
Ti4     Ti2    9.592   1_565     S
V5     Ti6    9.4   .     S
V5     Er12    9.786   1_544     S
V5     Er10    9.786   1_545     S
V5     Er16    9.786   1_554     S
V5     Er14    9.786   .     S
Ti6     Ti4    9.592   1_645     S
Ti6     Ti8    9.592   1_655     S
V7     Ti8    9.4   .     S
V7     Er11    9.786   1_454     S
V7     Er9    9.786   1_455     S
V7     Er15    9.786   1_554     S
V7     Er13    9.786   .     S
Ti8     Ti6    9.592   1_455     S
Er9     Ce19    10.311   .     S
Er9     Er11    10.255   1_554     S
Er9     Er13    10.505   1_655     S
Er9     V7    9.786   1_655     S
Er9     V3    9.786   1_655     S
Er10     Ce17    10.311   .     S
Er10     Er12    10.255   1_554     S
Er10     Er14    10.505   1_565     S
Er10     V1    9.786   1_565     S
Er10     V5    9.786   1_565     S
Er11     Ce20    10.311   .     S
Er11     Er9    10.255   1_556     S
Er11     Er15    10.505   1_655     S
Er11     V7    9.786   1_656     S
Er11     V3    9.786   1_656     S
Er12     Ce18    10.311   .     S
Er12     Er10    10.255   1_556     S
Er12     Er16    10.505   1_565     S
Er12     V1    9.786   1_566     S
Er12     V5    9.786   1_566     S
Er13     Ce23    10.311   .     S
Er13     Er15    10.255   1_554     S
Er13     Er9    10.505   1_455     S
Er14     Ce21    10.311   .     S
Er14     Er16    10.255   1_554     S
Er14     Er10    10.505   1_545     S
Er15     Ce24    10.311   .     S
Er15     Er13    10.255   1_556     S
Er15     Er11    10.505   1_455     S
Er15     V7    9.786   1_556     S
Er15     V3    9.786   1_556     S
Er16     Ce22    10.311   .     S
Er16     Er14    10.255   1_556     S
Er16     Er12    10.505   1_545     S
Er16     V1    9.786   1_556     S
Er16     V5    9.786   1_556     S
Ce17     Ce19    10.22   .     S
Ce17     Ce23    10.22   .     S
Ce17     Ce18    10.045   .     S
Ce18     Ce24    10.22   .     S
Ce18     Ce20    10.22   .     S
Ce19     Ce21    10.22   .     S
Ce19     Ce20    10.045   .     S
Ce20     Ce22    10.22   .     S
Ce21     Ce23    10.22   .     S
Ce21     Ce22    10.045   .     S
Ce22     Ce24    10.22   .     S
Ce23     Ce24    10.045   .     S
