data_law
_audit_creation_date              2020-02-02
_audit_creation_method            'Pymatgen'
_symmetry_space_group_name_H-M    'P1'
_symmetry_Int_Tables_number       1
loop_
_symmetry_equiv_pos_as_xyz
  x,y,z
_cell_length_a                    57.5495
_cell_length_b                    57.5495
_cell_length_c                    57.5495
_cell_angle_alpha                 90.0
_cell_angle_beta                 90.0
_cell_angle_gamma                 90.0
loop_
_atom_site_label
_atom_site_type_symbol
_atom_site_fract_x
_atom_site_fract_y
_atom_site_fract_z
V1     V     0.6653   0.8096   0.8604
V2     V     0.6396   0.8347   0.6904
V3     V     0.8604   0.6653   0.8096
V4     V     0.6904   0.6396   0.8347
V5     V     0.8096   0.8604   0.6653
V6     V     0.8347   0.6904   0.6396
V7     V     0.8096   0.1396   0.6653
V8     V     0.8347   0.3096   0.6396
V9     V     0.8604   0.3347   0.8096
V10     V     0.6653   0.1904   0.8604
V11     V     0.6904   0.3604   0.8347
V12     V     0.6396   0.1653   0.6904
V13     V     0.1396   0.6653   0.8096
V14     V     0.3096   0.6396   0.8347
V15     V     0.3347   0.8096   0.8604
V16     V     0.1904   0.8604   0.6653
V17     V     0.3604   0.8347   0.6904
V18     V     0.1653   0.6904   0.6396
V19     V     0.6653   0.8096   0.1396
V20     V     0.6396   0.8347   0.3096
V21     V     0.8096   0.8604   0.3347
V22     V     0.8604   0.6653   0.1904
V23     V     0.8347   0.6904   0.3604
V24     V     0.6904   0.6396   0.1653
V25     V     0.1904   0.1396   0.6653
V26     V     0.3604   0.1653   0.6904
V27     V     0.1653   0.3096   0.6396
V28     V     0.3347   0.1904   0.8604
V29     V     0.3096   0.3604   0.8347
V30     V     0.1396   0.3347   0.8096
V31     V     0.1396   0.6653   0.1904
V32     V     0.1653   0.6904   0.3604
V33     V     0.3096   0.6396   0.1653
V34     V     0.1904   0.8604   0.3347
V35     V     0.3604   0.8347   0.3096
V36     V     0.3347   0.8096   0.1396
V37     V     0.6653   0.1904   0.1396
V38     V     0.6904   0.3604   0.1653
V39     V     0.6396   0.1653   0.3096
V40     V     0.8604   0.3347   0.1904
V41     V     0.8347   0.3096   0.3604
V42     V     0.8096   0.1396   0.3347
V43     V     0.3096   0.3604   0.1653
V44     V     0.3347   0.1904   0.1396
V45     V     0.3604   0.1653   0.3096
V46     V     0.1904   0.1396   0.3347
V47     V     0.1396   0.3347   0.1904
V48     V     0.1653   0.3096   0.3604
Er49     Er     0.5   0.1652   0.4131
Er50     Er     0.4131   0.5   0.1652
Er51     Er     0.1652   0.4131   0.5
Er52     Er     0.8348   0.4131   0.5
Er53     Er     0.5   0.8348   0.4131
Er54     Er     0.4131   0.5   0.8348
Er55     Er     0.0   0.6652   0.9131
Er56     Er     0.0   0.3348   0.9131
Er57     Er     0.9131   0.0   0.3348
Er58     Er     0.9131   0.0   0.6652
Er59     Er     0.3348   0.9131   0.0
Er60     Er     0.6652   0.9131   0.0
Er61     Er     0.0   0.3348   0.0869
Er62     Er     0.0   0.6652   0.0869
Er63     Er     0.0869   0.0   0.3348
Er64     Er     0.0869   0.0   0.6652
Er65     Er     0.3348   0.0869   0.0
Er66     Er     0.6652   0.0869   0.0
Er67     Er     0.5   0.8348   0.5869
Er68     Er     0.5   0.1652   0.5869
Er69     Er     0.5869   0.5   0.8348
Er70     Er     0.5869   0.5   0.1652
Er71     Er     0.8348   0.5869   0.5
Er72     Er     0.1652   0.5869   0.5
loop_
_geom_bond_atom_site_label_1
_geom_bond_atom_site_label_2
_geom_bond_distance
_geom_bond_site_symmetry_2
_ccdc_geom_bond_type
V1     V2    9.996   .     S
V1     V4    9.996   .     S
V1     Er60    10.002   1_556     S
V2     V5    9.996   .     S
V2     Er67    10.002   .     S
V3     V4    9.996   .     S
V3     V6    9.996   .     S
V3     Er55    10.002   1_655     S
V4     Er69    10.002   .     S
V5     V6    9.996   .     S
V5     Er58    10.002   1_565     S
V6     Er71    10.002   .     S
V7     V12    9.996   .     S
V7     V8    9.996   .     S
V7     Er58    10.002   .     S
V8     V9    9.996   .     S
V8     Er52    10.002   .     S
V9     V11    9.996   .     S
V9     Er56    10.002   1_655     S
V10     V12    9.996   .     S
V10     V11    9.996   .     S
V10     Er66    10.002   1_556     S
V11     Er69    10.002   .     S
V12     Er68    10.002   .     S
V13     V18    9.996   .     S
V13     V14    9.996   .     S
V13     Er55    10.002   .     S
V14     V15    9.996   .     S
V14     Er54    10.002   .     S
V15     V17    9.996   .     S
V15     Er59    10.002   1_556     S
V16     V18    9.996   .     S
V16     V17    9.996   .     S
V16     Er64    10.002   1_565     S
V17     Er67    10.002   .     S
V18     Er72    10.002   .     S
V19     V24    9.996   .     S
V19     V20    9.996   .     S
V19     Er60    10.002   .     S
V20     V21    9.996   .     S
V20     Er53    10.002   .     S
V21     V23    9.996   .     S
V21     Er57    10.002   1_565     S
V22     V24    9.996   .     S
V22     V23    9.996   .     S
V22     Er62    10.002   1_655     S
V23     Er71    10.002   .     S
V24     Er70    10.002   .     S
V25     V26    9.996   .     S
V25     V27    9.996   .     S
V25     Er64    10.002   .     S
V26     V28    9.996   .     S
V26     Er68    10.002   .     S
V27     V30    9.996   .     S
V27     Er51    10.002   .     S
V28     V29    9.996   .     S
V28     Er65    10.002   1_556     S
V29     V30    9.996   .     S
V29     Er54    10.002   .     S
V30     Er56    10.002   .     S
V31     V32    9.996   .     S
V31     V33    9.996   .     S
V31     Er62    10.002   .     S
V32     V34    9.996   .     S
V32     Er72    10.002   .     S
V33     V36    9.996   .     S
V33     Er50    10.002   .     S
V34     V35    9.996   .     S
V34     Er63    10.002   1_565     S
V35     V36    9.996   .     S
V35     Er53    10.002   .     S
V36     Er59    10.002   .     S
V37     V38    9.996   .     S
V37     V39    9.996   .     S
V37     Er66    10.002   .     S
V38     V40    9.996   .     S
V38     Er70    10.002   .     S
V39     V42    9.996   .     S
V39     Er49    10.002   .     S
V40     V41    9.996   .     S
V40     Er61    10.002   1_655     S
V41     V42    9.996   .     S
V41     Er52    10.002   .     S
V42     Er57    10.002   .     S
V43     V47    9.996   .     S
V43     V44    9.996   .     S
V43     Er50    10.002   .     S
V44     V45    9.996   .     S
V44     Er65    10.002   .     S
V45     V46    9.996   .     S
V45     Er49    10.002   .     S
V46     V48    9.996   .     S
V46     Er63    10.002   .     S
V47     V48    9.996   .     S
V47     Er61    10.002   .     S
V48     Er51    10.002   .     S
Er49     Er68    10.006   .     S
Er50     Er70    10.006   .     S
Er51     Er72    10.006   .     S
Er52     Er71    10.006   .     S
Er53     Er67    10.006   .     S
Er54     Er69    10.006   .     S
Er55     V3    10.002   1_455     S
Er55     Er62    10.006   1_556     S
Er56     V9    10.002   1_455     S
Er56     Er61    10.006   1_556     S
Er57     V21    10.002   1_545     S
Er57     Er63    10.006   1_655     S
Er58     V5    10.002   1_545     S
Er58     Er64    10.006   1_655     S
Er59     V15    10.002   1_554     S
Er59     Er65    10.006   1_565     S
Er60     V1    10.002   1_554     S
Er60     Er66    10.006   1_565     S
Er61     V40    10.002   1_455     S
Er61     Er56    10.006   1_554     S
Er62     V22    10.002   1_455     S
Er62     Er55    10.006   1_554     S
Er63     V34    10.002   1_545     S
Er63     Er57    10.006   1_455     S
Er64     V16    10.002   1_545     S
Er64     Er58    10.006   1_455     S
Er65     V28    10.002   1_554     S
Er65     Er59    10.006   1_545     S
Er66     V10    10.002   1_554     S
Er66     Er60    10.006   1_545     S
