data_lcvf
_audit_creation_date              2020-02-02
_audit_creation_method            'Pymatgen'
_symmetry_space_group_name_H-M    'P1'
_symmetry_Int_Tables_number       1
loop_
_symmetry_equiv_pos_as_xyz
  x,y,z
_cell_length_a                    73.91
_cell_length_b                    73.91
_cell_length_c                    73.91
_cell_angle_alpha                 90.0
_cell_angle_beta                 90.0
_cell_angle_gamma                 90.0
loop_
_atom_site_label
_atom_site_type_symbol
_atom_site_fract_x
_atom_site_fract_y
_atom_site_fract_z
V1     V     0.4743   0.1874   0.8126
V2     V     0.3126   0.0257   0.8126
V3     V     0.4374   0.0626   0.7757
V4     V     0.3126   0.1874   0.9743
V5     V     0.2757   0.0626   0.9374
V6     V     0.4374   0.2243   0.9374
V7     V     0.3126   0.9743   0.6874
V8     V     0.4374   0.9374   0.7243
V9     V     0.2757   0.9374   0.5626
V10     V     0.4374   0.7757   0.5626
V11     V     0.3126   0.8126   0.5257
V12     V     0.4743   0.8126   0.6874
V13     V     0.7757   0.4374   0.0626
V14     V     0.8126   0.4743   0.1874
V15     V     0.8126   0.3126   0.0257
V16     V     0.9374   0.2757   0.0626
V17     V     0.9743   0.3126   0.1874
V18     V     0.9374   0.4374   0.2243
V19     V     0.6874   0.3126   0.9743
V20     V     0.7243   0.4374   0.9374
V21     V     0.5257   0.3126   0.8126
V22     V     0.5626   0.4374   0.7757
V23     V     0.5626   0.2757   0.9374
V24     V     0.6874   0.4743   0.8126
V25     V     0.5626   0.7243   0.5626
V26     V     0.5626   0.5626   0.7243
V27     V     0.6874   0.5257   0.6874
V28     V     0.5257   0.6874   0.6874
V29     V     0.7243   0.5626   0.5626
V30     V     0.6874   0.6874   0.5257
V31     V     0.8126   0.5257   0.3126
V32     V     0.7757   0.5626   0.4374
V33     V     0.9743   0.6874   0.3126
V34     V     0.9374   0.7243   0.4374
V35     V     0.9374   0.5626   0.2757
V36     V     0.8126   0.6874   0.4743
V37     V     0.1874   0.9743   0.3126
V38     V     0.2243   0.9374   0.4374
V39     V     0.0626   0.9374   0.2757
V40     V     0.0626   0.7757   0.4374
V41     V     0.0257   0.8126   0.3126
V42     V     0.1874   0.8126   0.4743
V43     V     0.0626   0.0626   0.2243
V44     V     0.1874   0.0257   0.1874
V45     V     0.0257   0.1874   0.1874
V46     V     0.0626   0.2243   0.0626
V47     V     0.1874   0.1874   0.0257
V48     V     0.2243   0.0626   0.0626
loop_
_geom_bond_atom_site_label_1
_geom_bond_atom_site_label_2
_geom_bond_distance
_geom_bond_site_symmetry_2
_ccdc_geom_bond_type
V1     V3    9.999   .     S
V1     V6    9.999   .     S
V1     V21    10.001   .     S
V2     V3    9.999   .     S
V2     V5    9.999   .     S
V2     V7    10.001   1_545     S
V3     V8    10.001   1_545     S
V4     V6    9.999   .     S
V4     V5    9.999   .     S
V4     V47    10.001   1_556     S
V5     V48    10.001   1_556     S
V6     V23    10.001   .     S
V7     V8    9.999   .     S
V7     V9    9.999   .     S
V7     V2    10.001   1_565     S
V8     V12    9.999   .     S
V8     V3    10.001   1_565     S
V9     V11    9.999   .     S
V9     V38    10.001   .     S
V10     V11    9.999   .     S
V10     V12    9.999   .     S
V10     V25    10.001   .     S
V11     V42    10.001   .     S
V12     V28    10.001   .     S
V13     V14    9.999   .     S
V13     V15    9.999   .     S
V13     V20    10.001   1_554     S
V14     V18    9.999   .     S
V14     V31    10.001   .     S
V15     V16    9.999   .     S
V15     V19    10.001   1_554     S
V16     V17    9.999   .     S
V16     V46    10.001   1_655     S
V17     V18    9.999   .     S
V17     V45    10.001   1_655     S
V18     V35    10.001   .     S
V19     V15    10.001   1_556     S
V19     V20    9.999   .     S
V19     V23    9.999   .     S
V20     V24    9.999   .     S
V20     V13    10.001   1_556     S
V21     V22    9.999   .     S
V21     V23    9.999   .     S
V22     V24    9.999   .     S
V22     V26    10.001   .     S
V24     V27    10.001   .     S
V25     V28    9.999   .     S
V25     V30    9.999   .     S
V26     V27    9.999   .     S
V26     V28    9.999   .     S
V27     V29    9.999   .     S
V29     V30    9.999   .     S
V29     V32    10.001   .     S
V30     V36    10.001   .     S
V31     V32    9.999   .     S
V31     V35    9.999   .     S
V32     V36    9.999   .     S
V33     V34    9.999   .     S
V33     V35    9.999   .     S
V33     V41    10.001   1_655     S
V34     V36    9.999   .     S
V34     V40    10.001   1_655     S
V37     V38    9.999   .     S
V37     V39    9.999   .     S
V37     V44    10.001   1_565     S
V38     V42    9.999   .     S
V39     V41    9.999   .     S
V39     V43    10.001   1_565     S
V40     V42    9.999   .     S
V40     V41    9.999   .     S
V40     V34    10.001   1_455     S
V41     V33    10.001   1_455     S
V43     V39    10.001   1_545     S
V43     V44    9.999   .     S
V43     V45    9.999   .     S
V44     V48    9.999   .     S
V44     V37    10.001   1_545     S
V45     V46    9.999   .     S
V45     V17    10.001   1_455     S
V46     V16    10.001   1_455     S
V46     V47    9.999   .     S
V47     V48    9.999   .     S
V47     V4    10.001   1_554     S
V48     V5    10.001   1_554     S
