data_lcwx
_audit_creation_date              2020-02-02
_audit_creation_method            'Pymatgen'
_symmetry_space_group_name_H-M    'P1'
_symmetry_Int_Tables_number       1
loop_
_symmetry_equiv_pos_as_xyz
  x,y,z
_cell_length_a                    16.9521
_cell_length_b                    16.9521
_cell_length_c                    16.9521
_cell_angle_alpha                 90.0
_cell_angle_beta                 90.0
_cell_angle_gamma                 90.0
loop_
_atom_site_label
_atom_site_type_symbol
_atom_site_fract_x
_atom_site_fract_y
_atom_site_fract_z
V1     V     0.5   0.0   0.25
V2     V     0.5   0.0   0.75
V3     V     0.25   0.5   0.0
V4     V     0.75   0.5   0.0
V5     V     0.0   0.25   0.5
V6     V     0.0   0.75   0.5
loop_
_geom_bond_atom_site_label_1
_geom_bond_atom_site_label_2
_geom_bond_distance
_geom_bond_site_symmetry_2
_ccdc_geom_bond_type
V1     V4    10.381   .     S
V1     V3    10.381   .     S
V1     V6    10.381   1_645     S
V1     V5    10.381   1_655     S
V1     V3    10.381   1_545     S
V1     V4    10.381   1_545     S
V1     V5    10.381   .     S
V1     V6    10.381   1_545     S
V1     V2    8.476   .     S
V1     V2    8.476   1_554     S
V2     V4    10.381   1_556     S
V2     V3    10.381   1_556     S
V2     V6    10.381   1_645     S
V2     V5    10.381   1_655     S
V2     V3    10.381   1_546     S
V2     V4    10.381   1_546     S
V2     V5    10.381   .     S
V2     V6    10.381   1_545     S
V2     V1    8.476   1_556     S
V3     V2    10.381   1_554     S
V3     V2    10.381   1_564     S
V3     V1    10.381   1_565     S
V3     V6    10.381   1_554     S
V3     V5    10.381   1_554     S
V3     V5    10.381   .     S
V3     V6    10.381   .     S
V3     V4    8.476   1_455     S
V3     V4    8.476   .     S
V4     V2    10.381   1_554     S
V4     V1    10.381   1_565     S
V4     V2    10.381   1_564     S
V4     V6    10.381   1_654     S
V4     V5    10.381   1_654     S
V4     V5    10.381   1_655     S
V4     V6    10.381   1_655     S
V4     V3    8.476   1_655     S
V5     V2    10.381   1_455     S
V5     V1    10.381   1_455     S
V5     V4    10.381   1_456     S
V5     V3    10.381   1_556     S
V5     V4    10.381   1_455     S
V5     V6    8.476   .     S
V5     V6    8.476   1_545     S
V6     V1    10.381   1_465     S
V6     V2    10.381   1_465     S
V6     V2    10.381   1_565     S
V6     V1    10.381   1_565     S
V6     V3    10.381   1_556     S
V6     V4    10.381   1_456     S
V6     V4    10.381   1_455     S
V6     V5    8.476   1_565     S
