data_lcyax
_audit_creation_date              2020-02-02
_audit_creation_method            'Pymatgen'
_symmetry_space_group_name_H-M    'P1'
_symmetry_Int_Tables_number       1
loop_
_symmetry_equiv_pos_as_xyz
  x,y,z
_cell_length_a                    37.7123
_cell_length_b                    37.7123
_cell_length_c                    37.7123
_cell_angle_alpha                 90.0
_cell_angle_beta                 90.0
_cell_angle_gamma                 90.0
loop_
_atom_site_label
_atom_site_type_symbol
_atom_site_fract_x
_atom_site_fract_y
_atom_site_fract_z
V1     V     0.0625   0.75   0.75
V2     V     0.25   0.5625   0.75
V3     V     0.25   0.75   0.9375
V4     V     0.75   0.0625   0.75
V5     V     0.75   0.25   0.5625
V6     V     0.9375   0.25   0.75
V7     V     0.75   0.75   0.0625
V8     V     0.5625   0.75   0.25
V9     V     0.75   0.9375   0.25
V10     V     0.0   0.5   0.8125
V11     V     0.0   0.6875   0.0
V12     V     0.1875   0.5   0.0
V13     V     0.6875   0.0   0.0
V14     V     0.5   0.8125   0.0
V15     V     0.5   0.0   0.1875
V16     V     0.25   0.25   0.4375
V17     V     0.4375   0.25   0.25
V18     V     0.25   0.4375   0.25
V19     V     0.0   0.0   0.6875
V20     V     0.8125   0.0   0.5
V21     V     0.0   0.1875   0.5
V22     V     0.5   0.5   0.3125
V23     V     0.3125   0.5   0.5
V24     V     0.5   0.3125   0.5
loop_
_geom_bond_atom_site_label_1
_geom_bond_atom_site_label_2
_geom_bond_distance
_geom_bond_site_symmetry_2
_ccdc_geom_bond_type
V1     V10    10.0   .     S
V1     V11    10.0   1_556     S
V1     V19    10.0   1_565     S
V1     V3    10.0   .     S
V1     V2    10.0   .     S
V2     V12    10.0   1_556     S
V2     V10    10.0   .     S
V2     V3    10.0   .     S
V2     V23    10.0   .     S
V3     V12    10.0   1_556     S
V3     V11    10.0   1_556     S
V3     V14    10.0   1_556     S
V4     V20    10.0   .     S
V4     V19    10.0   1_655     S
V4     V13    10.0   1_556     S
V4     V5    10.0   .     S
V4     V6    10.0   .     S
V5     V21    10.0   1_655     S
V5     V20    10.0   .     S
V5     V6    10.0   .     S
V5     V24    10.0   .     S
V6     V10    10.0   1_655     S
V6     V21    10.0   1_655     S
V6     V19    10.0   1_655     S
V7     V14    10.0   .     S
V7     V13    10.0   1_565     S
V7     V11    10.0   1_655     S
V7     V8    10.0   .     S
V7     V9    10.0   .     S
V8     V15    10.0   1_565     S
V8     V14    10.0   .     S
V8     V9    10.0   .     S
V8     V22    10.0   .     S
V9     V15    10.0   1_565     S
V9     V13    10.0   1_565     S
V9     V20    10.0   1_565     S
V10     V11    10.0   1_556     S
V10     V12    10.0   1_556     S
V10     V6    10.0   1_455     S
V11     V1    10.0   1_554     S
V11     V7    10.0   1_455     S
V11     V10    10.0   1_554     S
V11     V12    10.0   .     S
V11     V3    10.0   1_554     S
V12     V2    10.0   1_554     S
V12     V10    10.0   1_554     S
V12     V3    10.0   1_554     S
V12     V18    10.0   .     S
V13     V4    10.0   1_554     S
V13     V7    10.0   1_545     S
V13     V14    10.0   1_545     S
V13     V15    10.0   .     S
V13     V9    10.0   1_545     S
V14     V13    10.0   1_565     S
V14     V15    10.0   1_565     S
V14     V3    10.0   1_554     S
V15     V8    10.0   1_545     S
V15     V14    10.0   1_545     S
V15     V9    10.0   1_545     S
V15     V17    10.0   .     S
V16     V24    10.0   .     S
V16     V23    10.0   .     S
V16     V17    10.0   .     S
V16     V18    10.0   .     S
V16     V21    10.0   .     S
V17     V22    10.0   .     S
V17     V24    10.0   .     S
V17     V18    10.0   .     S
V18     V23    10.0   .     S
V18     V22    10.0   .     S
V19     V1    10.0   1_545     S
V19     V4    10.0   1_455     S
V19     V21    10.0   .     S
V19     V6    10.0   1_455     S
V19     V20    10.0   1_455     S
V20     V21    10.0   1_655     S
V20     V19    10.0   1_655     S
V20     V9    10.0   1_545     S
V21     V5    10.0   1_455     S
V21     V20    10.0   1_455     S
V21     V6    10.0   1_455     S
V22     V24    10.0   .     S
V22     V23    10.0   .     S
V23     V24    10.0   .     S
