data_lev
_audit_creation_date              2020-02-02
_audit_creation_method            'Pymatgen'
_symmetry_space_group_name_H-M    'P1'
_symmetry_Int_Tables_number       1
loop_
_symmetry_equiv_pos_as_xyz
  x,y,z
_cell_length_a                    42.2558
_cell_length_b                    42.2558
_cell_length_c                    72.3975
_cell_angle_alpha                 90.0
_cell_angle_beta                 90.0
_cell_angle_gamma                 120.0
loop_
_atom_site_label
_atom_site_type_symbol
_atom_site_fract_x
_atom_site_fract_y
_atom_site_fract_z
V1     V     0.0   0.7634   0.0
V2     V     0.2366   0.0   0.0
V3     V     0.0   0.2366   0.0
V4     V     0.2366   0.2366   0.0
V5     V     0.7634   0.0   0.0
V6     V     0.7634   0.7634   0.0
Er7     Er     0.0967   0.6667   0.0976
Er8     Er     0.0967   0.6667   0.2357
Er9     Er     0.3333   0.9033   0.2357
Er10     Er     0.57   0.9033   0.0976
Er11     Er     0.3333   0.9033   0.0976
Er12     Er     0.57   0.6667   0.2357
Er13     Er     0.57   0.9033   0.2357
Er14     Er     0.57   0.6667   0.0976
Er15     Er     0.3333   0.43   0.0976
Er16     Er     0.3333   0.43   0.2357
Er17     Er     0.0967   0.43   0.2357
Er18     Er     0.0967   0.43   0.0976
V19     V     0.43   0.3333   0.3333
V20     V     0.43   0.0967   0.3333
V21     V     0.6667   0.57   0.3333
V22     V     0.9033   0.57   0.3333
V23     V     0.9033   0.3333   0.3333
V24     V     0.6667   0.0967   0.3333
Er25     Er     0.2366   0.0   0.4309
Er26     Er     0.0   0.7634   0.4309
Er27     Er     0.2366   0.0   0.5691
Er28     Er     0.2366   0.2366   0.5691
Er29     Er     0.0   0.2366   0.4309
Er30     Er     0.2366   0.2366   0.4309
Er31     Er     0.0   0.2366   0.5691
Er32     Er     0.7634   0.0   0.5691
Er33     Er     0.0   0.7634   0.5691
Er34     Er     0.7634   0.7634   0.5691
Er35     Er     0.7634   0.0   0.4309
Er36     Er     0.7634   0.7634   0.4309
Er37     Er     0.6667   0.0967   0.9024
Er38     Er     0.9033   0.3333   0.7643
Er39     Er     0.6667   0.0967   0.7643
Er40     Er     0.9033   0.57   0.9024
Er41     Er     0.9033   0.3333   0.9024
Er42     Er     0.9033   0.57   0.7643
Er43     Er     0.6667   0.57   0.7643
Er44     Er     0.6667   0.57   0.9024
Er45     Er     0.43   0.3333   0.9024
Er46     Er     0.43   0.3333   0.7643
Er47     Er     0.43   0.0967   0.7643
Er48     Er     0.43   0.0967   0.9024
V49     V     0.0967   0.6667   0.6667
V50     V     0.3333   0.9033   0.6667
V51     V     0.3333   0.43   0.6667
V52     V     0.0967   0.43   0.6667
V53     V     0.57   0.9033   0.6667
V54     V     0.57   0.6667   0.6667
loop_
_geom_bond_atom_site_label_1
_geom_bond_atom_site_label_2
_geom_bond_distance
_geom_bond_site_symmetry_2
_ccdc_geom_bond_type
V1     V6    10.0   1_455     S
V1     V2    10.0   1_565     S
V1     Er40    10.0   1_454     S
V1     Er7    10.0   .     S
V2     V1    10.0   1_545     S
V2     V4    10.0   .     S
V2     Er48    10.0   1_554     S
V2     Er11    10.0   1_545     S
V3     V4    10.0   .     S
V3     V5    10.0   1_455     S
V3     Er41    10.0   1_454     S
V3     Er18    10.0   .     S
V4     Er45    10.0   1_554     S
V4     Er15    10.0   .     S
V5     V3    10.0   1_655     S
V5     V6    10.0   1_545     S
V5     Er37    10.0   1_554     S
V5     Er10    10.0   1_545     S
V6     V1    10.0   1_655     S
V6     V5    10.0   1_565     S
V6     Er44    10.0   1_554     S
V6     Er14    10.0   .     S
Er7     Er18    10.0   .     S
Er7     Er8    10.0   .     S
Er7     Er11    10.0   .     S
Er8     Er9    10.0   .     S
Er8     Er17    10.0   .     S
Er8     V22    10.0   1_455     S
Er9     Er11    10.0   .     S
Er9     Er13    10.0   .     S
Er9     V20    10.0   1_565     S
Er10     V5    10.0   1_565     S
Er10     Er11    10.0   .     S
Er10     Er13    10.0   .     S
Er10     Er14    10.0   .     S
Er11     V2    10.0   1_565     S
Er12     Er13    10.0   .     S
Er12     Er14    10.0   .     S
Er12     Er16    10.0   .     S
Er12     V21    10.0   .     S
Er13     V24    10.0   1_565     S
Er14     Er15    10.0   .     S
Er15     Er16    10.0   .     S
Er15     Er18    10.0   .     S
Er16     Er17    10.0   .     S
Er16     V19    10.0   .     S
Er17     Er18    10.0   .     S
Er17     V23    10.0   1_455     S
V19     V20    10.0   .     S
V19     V21    10.0   .     S
V19     Er30    10.0   .     S
V20     V24    10.0   .     S
V20     Er9    10.0   1_545     S
V20     Er25    10.0   .     S
V21     V22    10.0   .     S
V21     Er36    10.0   .     S
V22     V23    10.0   .     S
V22     Er8    10.0   1_655     S
V22     Er26    10.0   1_655     S
V23     V24    10.0   .     S
V23     Er17    10.0   1_655     S
V23     Er29    10.0   1_655     S
V24     Er13    10.0   1_545     S
V24     Er35    10.0   .     S
Er25     Er26    10.0   1_545     S
Er25     Er27    10.0   .     S
Er25     Er30    10.0   .     S
Er26     V22    10.0   1_455     S
Er26     Er25    10.0   1_565     S
Er26     Er33    10.0   .     S
Er26     Er36    10.0   1_455     S
Er27     Er28    10.0   .     S
Er27     Er33    10.0   1_545     S
Er27     V50    10.0   1_545     S
Er28     Er30    10.0   .     S
Er28     Er31    10.0   .     S
Er28     V51    10.0   .     S
Er29     V23    10.0   1_455     S
Er29     Er30    10.0   .     S
Er29     Er31    10.0   .     S
Er29     Er35    10.0   1_455     S
Er31     Er32    10.0   1_455     S
Er31     V52    10.0   .     S
Er32     Er31    10.0   1_655     S
Er32     Er35    10.0   .     S
Er32     Er34    10.0   1_545     S
Er32     V53    10.0   1_545     S
Er33     Er34    10.0   1_455     S
Er33     Er27    10.0   1_565     S
Er33     V49    10.0   .     S
Er34     Er33    10.0   1_655     S
Er34     Er36    10.0   .     S
Er34     Er32    10.0   1_565     S
Er34     V54    10.0   .     S
Er35     Er36    10.0   1_545     S
Er35     Er29    10.0   1_655     S
Er36     Er35    10.0   1_565     S
Er36     Er26    10.0   1_655     S
Er37     V5    10.0   1_556     S
Er37     Er48    10.0   .     S
Er37     Er39    10.0   .     S
Er37     Er41    10.0   .     S
Er38     Er39    10.0   .     S
Er38     Er41    10.0   .     S
Er38     Er42    10.0   .     S
Er38     V52    10.0   1_655     S
Er39     Er47    10.0   .     S
Er39     V53    10.0   1_545     S
Er40     V1    10.0   1_656     S
Er40     Er41    10.0   .     S
Er40     Er42    10.0   .     S
Er40     Er44    10.0   .     S
Er41     V3    10.0   1_656     S
Er42     Er43    10.0   .     S
Er42     V49    10.0   1_655     S
Er43     Er44    10.0   .     S
Er43     Er46    10.0   .     S
Er43     V54    10.0   .     S
Er44     V6    10.0   1_556     S
Er44     Er45    10.0   .     S
Er45     V4    10.0   1_556     S
Er45     Er46    10.0   .     S
Er45     Er48    10.0   .     S
Er46     Er47    10.0   .     S
Er46     V51    10.0   .     S
Er47     Er48    10.0   .     S
Er47     V50    10.0   1_545     S
Er48     V2    10.0   1_556     S
V49     V50    10.0   .     S
V49     V52    10.0   .     S
V49     Er42    10.0   1_455     S
V50     V53    10.0   .     S
V50     Er27    10.0   1_565     S
V50     Er47    10.0   1_565     S
V51     V52    10.0   .     S
V51     V54    10.0   .     S
V52     Er38    10.0   1_455     S
V53     V54    10.0   .     S
V53     Er39    10.0   1_565     S
V53     Er32    10.0   1_565     S
