data_llja
_audit_creation_date              2020-02-02
_audit_creation_method            'Pymatgen'
_symmetry_space_group_name_H-M    'P1'
_symmetry_Int_Tables_number       1
loop_
_symmetry_equiv_pos_as_xyz
  x,y,z
_cell_length_a                    64.8684
_cell_length_b                    64.8684
_cell_length_c                    40.2827
_cell_angle_alpha                 90.0
_cell_angle_beta                 90.0
_cell_angle_gamma                 90.0
loop_
_atom_site_label
_atom_site_type_symbol
_atom_site_fract_x
_atom_site_fract_y
_atom_site_fract_z
Ti1     Ti     0.1479   0.1479   0.5
Ti2     Ti     0.8521   0.1479   0.5
Ti3     Ti     0.1479   0.8521   0.5
Ti4     Ti     0.8521   0.8521   0.5
V5     V     0.0771   0.9229   0.3113
V6     V     0.0771   0.9229   0.6887
Er7     Er     0.2431   0.7569   0.0
Ce8     Ce     0.1487   0.8513   0.1241
Ce9     Ce     0.1487   0.8513   0.8759
V10     V     0.9229   0.9229   0.3113
V11     V     0.9229   0.9229   0.6887
Er12     Er     0.7569   0.7569   0.0
Ce13     Ce     0.8513   0.8513   0.1241
Ce14     Ce     0.8513   0.8513   0.8759
V15     V     0.0771   0.0771   0.3113
V16     V     0.0771   0.0771   0.6887
Ce17     Ce     0.1487   0.1487   0.1241
Er18     Er     0.2431   0.2431   0.0
Ce19     Ce     0.1487   0.1487   0.8759
V20     V     0.9229   0.0771   0.3113
V21     V     0.9229   0.0771   0.6887
Er22     Er     0.7569   0.2431   0.0
Ce23     Ce     0.8513   0.1487   0.1241
Ce24     Ce     0.8513   0.1487   0.8759
Ti25     Ti     0.3521   0.3521   0.0
Ti26     Ti     0.3521   0.6479   0.0
Ti27     Ti     0.6479   0.3521   0.0
Ti28     Ti     0.6479   0.6479   0.0
V29     V     0.5771   0.4229   0.8113
V30     V     0.5771   0.4229   0.1887
Er31     Er     0.7431   0.2569   0.5
Ce32     Ce     0.6487   0.3513   0.6241
Ce33     Ce     0.6487   0.3513   0.3759
V34     V     0.5771   0.5771   0.1887
V35     V     0.5771   0.5771   0.8113
Er36     Er     0.7431   0.7431   0.5
Ce37     Ce     0.6487   0.6487   0.3759
Ce38     Ce     0.6487   0.6487   0.6241
V39     V     0.4229   0.4229   0.8113
V40     V     0.4229   0.4229   0.1887
Ce41     Ce     0.3513   0.3513   0.3759
Ce42     Ce     0.3513   0.3513   0.6241
Er43     Er     0.2569   0.2569   0.5
V44     V     0.4229   0.5771   0.8113
V45     V     0.4229   0.5771   0.1887
Er46     Er     0.2569   0.7431   0.5
Ce47     Ce     0.3513   0.6487   0.6241
Ce48     Ce     0.3513   0.6487   0.3759
loop_
_geom_bond_atom_site_label_1
_geom_bond_atom_site_label_2
_geom_bond_distance
_geom_bond_site_symmetry_2
_ccdc_geom_bond_type
Ti1     Er43    10.0   .     S
Ti1     V15    10.0   .     S
Ti1     V16    10.0   .     S
Ti2     Er31    10.0   .     S
Ti2     V20    10.0   .     S
Ti2     V21    10.0   .     S
Ti3     Er46    10.0   .     S
Ti3     V5    10.0   .     S
Ti3     V6    10.0   .     S
Ti4     Er36    10.0   .     S
Ti4     V10    10.0   .     S
Ti4     V11    10.0   .     S
V5     Ce8    10.0   .     S
V5     V10    10.0   1_455     S
V5     V15    10.0   1_565     S
V6     Ce9    10.0   .     S
V6     V11    10.0   1_455     S
V6     V16    10.0   1_565     S
Er7     Ce8    10.0   .     S
Er7     Ce9    10.0   1_554     S
Er7     Ti26    10.0   .     S
Ce8     Ce9    10.0   1_554     S
Ce9     Er7    10.0   1_556     S
Ce9     Ce8    10.0   1_556     S
V10     V5    10.0   1_655     S
V10     Ce13    10.0   .     S
V10     V20    10.0   1_565     S
V11     V6    10.0   1_655     S
V11     Ce14    10.0   .     S
V11     V21    10.0   1_565     S
Er12     Ce13    10.0   .     S
Er12     Ce14    10.0   1_554     S
Er12     Ti28    10.0   .     S
Ce13     Ce14    10.0   1_554     S
Ce14     Er12    10.0   1_556     S
Ce14     Ce13    10.0   1_556     S
V15     Ce17    10.0   .     S
V15     V5    10.0   1_545     S
V15     V20    10.0   1_455     S
V16     Ce19    10.0   .     S
V16     V6    10.0   1_545     S
V16     V21    10.0   1_455     S
Ce17     Er18    10.0   .     S
Ce17     Ce19    10.0   1_554     S
Er18     Ce19    10.0   1_554     S
Er18     Ti25    10.0   .     S
Ce19     Ce17    10.0   1_556     S
Ce19     Er18    10.0   1_556     S
V20     V15    10.0   1_655     S
V20     Ce23    10.0   .     S
V20     V10    10.0   1_545     S
V21     V16    10.0   1_655     S
V21     Ce24    10.0   .     S
V21     V11    10.0   1_545     S
Er22     Ce23    10.0   .     S
Er22     Ce24    10.0   1_554     S
Er22     Ti27    10.0   .     S
Ce23     Ce24    10.0   1_554     S
Ce24     Er22    10.0   1_556     S
Ce24     Ce23    10.0   1_556     S
Ti25     V39    10.0   1_554     S
Ti25     V40    10.0   .     S
Ti26     V44    10.0   1_554     S
Ti26     V45    10.0   .     S
Ti27     V29    10.0   1_554     S
Ti27     V30    10.0   .     S
Ti28     V34    10.0   .     S
Ti28     V35    10.0   1_554     S
V29     Ti27    10.0   1_556     S
V29     Ce32    10.0   .     S
V29     V35    10.0   .     S
V29     V39    10.0   .     S
V30     Ce33    10.0   .     S
V30     V34    10.0   .     S
V30     V40    10.0   .     S
Er31     Ce32    10.0   .     S
Er31     Ce33    10.0   .     S
Ce32     Ce33    10.0   .     S
V34     Ce37    10.0   .     S
V34     V45    10.0   .     S
V35     Ti28    10.0   1_556     S
V35     Ce38    10.0   .     S
V35     V44    10.0   .     S
Er36     Ce38    10.0   .     S
Er36     Ce37    10.0   .     S
Ce37     Ce38    10.0   .     S
V39     Ti25    10.0   1_556     S
V39     Ce42    10.0   .     S
V39     V44    10.0   .     S
V40     Ce41    10.0   .     S
V40     V45    10.0   .     S
Ce41     Er43    10.0   .     S
Ce41     Ce42    10.0   .     S
Ce42     Er43    10.0   .     S
V44     Ti26    10.0   1_556     S
V44     Ce47    10.0   .     S
V45     Ce48    10.0   .     S
Er46     Ce47    10.0   .     S
Er46     Ce48    10.0   .     S
Ce47     Ce48    10.0   .     S
