data_llz
_audit_creation_date              2020-02-02
_audit_creation_method            'Pymatgen'
_symmetry_space_group_name_H-M    'P1'
_symmetry_Int_Tables_number       1
loop_
_symmetry_equiv_pos_as_xyz
  x,y,z
_cell_length_a                    19.7947
_cell_length_b                    19.7947
_cell_length_c                    32.7924
_cell_angle_alpha                 90.0
_cell_angle_beta                 90.0
_cell_angle_gamma                 90.0
loop_
_atom_site_label
_atom_site_type_symbol
_atom_site_fract_x
_atom_site_fract_y
_atom_site_fract_z
Ti1     Ti     0.1694   0.8306   0.702
V2     V     0.9693   0.732   0.5
Ti3     Ti     0.1694   0.8306   0.298
V4     V     0.268   0.0307   0.5
Ti5     Ti     0.8306   0.1694   0.702
Ti6     Ti     0.8306   0.1694   0.298
V7     V     0.732   0.9693   0.5
V8     V     0.0307   0.268   0.5
Er9     Er     0.5   0.5   0.5
Ti10     Ti     0.6694   0.6694   0.798
Ti11     Ti     0.6694   0.6694   0.202
V12     V     0.768   0.4693   0.0
V13     V     0.4693   0.768   0.0
Ti14     Ti     0.3306   0.3306   0.798
Ti15     Ti     0.3306   0.3306   0.202
V16     V     0.232   0.5307   0.0
V17     V     0.5307   0.232   0.0
Er18     Er     0.0   0.0   0.0
loop_
_geom_bond_atom_site_label_1
_geom_bond_atom_site_label_2
_geom_bond_distance
_geom_bond_site_symmetry_2
_ccdc_geom_bond_type
Ti1     V4    7.961   1_565     S
Ti1     V2    7.961   1_455     S
Ti1     Ti14    10.865   1_565     S
Ti1     Ti10    10.865   1_455     S
Ti1     Ti10    10.865   .     S
Ti1     Ti14    10.865   .     S
Ti1     Er18    10.861   1_566     S
Ti1     Ti5    9.483   1_465     S
Ti1     Er9    11.382   .     S
V2     Ti1    7.961   1_655     S
V2     Ti3    7.961   1_655     S
V2     Er9    10.364   .     S
Ti3     V2    7.961   1_455     S
Ti3     V4    7.961   1_565     S
Ti3     Ti15    10.865   1_565     S
Ti3     Ti11    10.865   1_455     S
Ti3     Ti15    10.865   .     S
Ti3     Ti11    10.865   .     S
Ti3     Er18    10.861   1_565     S
Ti3     Ti6    9.483   1_465     S
Ti3     Er9    11.382   .     S
V4     Ti1    7.961   1_545     S
V4     Ti3    7.961   1_545     S
V4     Er9    10.364   .     S
Ti5     V7    7.961   1_545     S
Ti5     V8    7.961   1_655     S
Ti5     Ti14    10.865   1_655     S
Ti5     Ti10    10.865   1_545     S
Ti5     Ti14    10.865   .     S
Ti5     Ti10    10.865   .     S
Ti5     Er18    10.861   1_656     S
Ti5     Ti1    9.483   1_645     S
Ti5     Er9    11.382   .     S
Ti6     V8    7.961   1_655     S
Ti6     V7    7.961   1_545     S
Ti6     Ti15    10.865   1_655     S
Ti6     Ti11    10.865   1_545     S
Ti6     Ti11    10.865   .     S
Ti6     Ti15    10.865   .     S
Ti6     Er18    10.861   1_655     S
Ti6     Ti3    9.483   1_645     S
Ti6     Er9    11.382   .     S
V7     Ti5    7.961   1_565     S
V7     Ti6    7.961   1_565     S
V7     Er9    10.364   .     S
V8     Ti5    7.961   1_455     S
V8     Ti6    7.961   1_455     S
V8     Er9    10.364   .     S
Er9     Ti11    10.861   .     S
Er9     Ti15    10.861   .     S
Er9     Ti10    10.861   .     S
Er9     Ti14    10.861   .     S
Ti10     V13    7.961   1_556     S
Ti10     V12    7.961   1_556     S
Ti10     Ti1    10.865   1_655     S
Ti10     Ti5    10.865   1_565     S
Ti10     Ti14    9.483   .     S
Ti10     Er18    11.382   1_666     S
Ti11     V12    7.961   .     S
Ti11     V13    7.961   .     S
Ti11     Ti6    10.865   1_565     S
Ti11     Ti3    10.865   1_655     S
Ti11     Ti15    9.483   .     S
Ti11     Er18    11.382   1_665     S
V12     Ti10    7.961   1_554     S
V12     Er18    10.364   1_655     S
V13     Ti10    7.961   1_554     S
V13     Er18    10.364   1_565     S
Ti14     V17    7.961   1_556     S
Ti14     V16    7.961   1_556     S
Ti14     Ti5    10.865   1_455     S
Ti14     Ti1    10.865   1_545     S
Ti14     Er18    11.382   1_556     S
Ti15     V16    7.961   .     S
Ti15     V17    7.961   .     S
Ti15     Ti3    10.865   1_545     S
Ti15     Ti6    10.865   1_455     S
Ti15     Er18    11.382   .     S
V16     Ti14    7.961   1_554     S
V16     Er18    10.364   1_565     S
V17     Ti14    7.961   1_554     S
V17     Er18    10.364   1_655     S
Er18     Ti5    10.861   1_454     S
Er18     Ti1    10.861   1_544     S
Er18     Ti3    10.861   1_545     S
Er18     Ti6    10.861   1_455     S
Er18     V12    10.364   1_455     S
Er18     V17    10.364   1_455     S
Er18     V16    10.364   1_545     S
Er18     V13    10.364   1_545     S
Er18     Ti14    11.382   1_554     S
Er18     Ti10    11.382   1_444     S
Er18     Ti11    11.382   1_445     S
