data_lng
_audit_creation_date              2020-02-02
_audit_creation_method            'Pymatgen'
_symmetry_space_group_name_H-M    'P1'
_symmetry_Int_Tables_number       1
loop_
_symmetry_equiv_pos_as_xyz
  x,y,z
_cell_length_a                    29.2707
_cell_length_b                    29.2707
_cell_length_c                    29.2707
_cell_angle_alpha                 90.0
_cell_angle_beta                 90.0
_cell_angle_gamma                 90.0
loop_
_atom_site_label
_atom_site_type_symbol
_atom_site_fract_x
_atom_site_fract_y
_atom_site_fract_z
Er1     Er     0.1336   0.1336   0.1336
Er2     Er     0.8664   0.6335   0.3664
Ti3     Ti     0.9657   0.2874   0.8788
Ti4     Ti     0.7126   0.3788   0.5343
Ti5     Ti     0.6212   0.0343   0.7874
V6     V     0.8994   0.1006   0.6006
Er7     Er     0.6335   0.3664   0.8664
Ti8     Ti     0.2874   0.8788   0.9657
Ti9     Ti     0.3788   0.5343   0.7126
Ti10     Ti     0.0343   0.7874   0.6212
V11     V     0.1006   0.6006   0.8994
Ti12     Ti     0.4657   0.2126   0.1212
Ti13     Ti     0.2126   0.1212   0.4657
Ti14     Ti     0.1212   0.4657   0.2126
V15     V     0.3994   0.3994   0.3994
Er16     Er     0.3664   0.8664   0.6335
Ti17     Ti     0.8788   0.9657   0.2874
Ti18     Ti     0.5343   0.7126   0.3788
Ti19     Ti     0.7874   0.6212   0.0343
V20     V     0.6006   0.8994   0.1006
loop_
_geom_bond_atom_site_label_1
_geom_bond_atom_site_label_2
_geom_bond_distance
_geom_bond_site_symmetry_2
_ccdc_geom_bond_type
Er1     Ti8    10.0   1_544     S
Er1     Ti3    10.0   1_454     S
Er1     Ti17    10.0   1_445     S
Er1     Ti12    10.0   .     S
Er1     Ti13    10.0   .     S
Er1     Ti14    10.0   .     S
Er2     Ti4    10.0   .     S
Er2     Ti14    10.0   1_655     S
Er2     Ti10    10.0   1_655     S
Er2     Ti17    10.0   .     S
Er2     Ti18    10.0   .     S
Er2     Ti19    10.0   .     S
Ti3     Er1    10.0   1_656     S
Ti3     V6    10.0   .     S
Ti3     Er7    10.0   .     S
Ti3     V11    10.0   1_655     S
Ti4     V6    10.0   .     S
Ti4     Er7    10.0   .     S
Ti4     V15    10.0   .     S
Ti5     Er7    10.0   .     S
Ti5     V6    10.0   .     S
Ti5     V20    10.0   1_546     S
Ti5     Er16    10.0   1_545     S
V6     Ti10    10.0   1_645     S
V6     Ti13    10.0   1_655     S
V6     Ti17    10.0   1_545     S
Er7     Ti9    10.0   .     S
Er7     Ti12    10.0   1_556     S
Er7     Ti19    10.0   1_556     S
Ti8     Er1    10.0   1_566     S
Ti8     V11    10.0   .     S
Ti8     Er16    10.0   .     S
Ti8     V20    10.0   1_556     S
Ti9     V11    10.0   .     S
Ti9     Er16    10.0   .     S
Ti9     V15    10.0   .     S
Ti10     Er2    10.0   1_455     S
Ti10     Er16    10.0   .     S
Ti10     V11    10.0   .     S
Ti10     V6    10.0   1_465     S
V11     Ti3    10.0   1_455     S
V11     Ti14    10.0   1_556     S
V11     Ti19    10.0   1_456     S
Ti12     Er7    10.0   1_554     S
Ti12     V15    10.0   .     S
Ti12     V20    10.0   1_545     S
Ti13     V15    10.0   .     S
Ti13     V6    10.0   1_455     S
Ti13     Er16    10.0   1_545     S
Ti14     Er2    10.0   1_455     S
Ti14     V15    10.0   .     S
Ti14     V11    10.0   1_554     S
V15     Ti18    10.0   .     S
Er16     Ti18    10.0   .     S
Er16     Ti13    10.0   1_565     S
Er16     Ti5    10.0   1_565     S
Ti17     Er1    10.0   1_665     S
Ti17     V20    10.0   .     S
Ti17     V6    10.0   1_565     S
Ti18     V20    10.0   .     S
Ti19     Er7    10.0   1_554     S
Ti19     V20    10.0   .     S
Ti19     V11    10.0   1_654     S
V20     Ti5    10.0   1_564     S
V20     Ti8    10.0   1_554     S
V20     Ti12    10.0   1_565     S
