data_lonea
_audit_creation_date              2020-02-02
_audit_creation_method            'Pymatgen'
_symmetry_space_group_name_H-M    'P1'
_symmetry_Int_Tables_number       1
loop_
_symmetry_equiv_pos_as_xyz
  x,y,z
_cell_length_a                    46.679
_cell_length_b                    46.679
_cell_length_c                    79.8359
_cell_angle_alpha                 90.0
_cell_angle_beta                 90.0
_cell_angle_gamma                 120.0
loop_
_atom_site_label
_atom_site_type_symbol
_atom_site_fract_x
_atom_site_fract_y
_atom_site_fract_z
V1     V     0.4047   0.8095   0.1874
Er2     Er     0.4764   0.9528   0.0853
Er3     Er     0.5236   0.0472   0.9147
V4     V     0.5953   0.1905   0.8126
Ti5     Ti     0.5476   0.8809   0.9831
Ti6     Ti     0.3333   0.8809   0.9831
Ti7     Ti     0.4524   0.1191   0.0169
Ti8     Ti     0.6667   0.1191   0.0169
Er9     Er     0.9528   0.4764   0.9147
V10     V     0.8095   0.4047   0.8126
Er11     Er     0.0472   0.5236   0.0853
V12     V     0.1905   0.5953   0.1874
Ti13     Ti     0.8809   0.3333   0.0169
Ti14     Ti     0.8809   0.5476   0.0169
Ti15     Ti     0.1191   0.4524   0.9831
Ti16     Ti     0.1191   0.6667   0.9831
Er17     Er     0.4764   0.5236   0.0853
V18     V     0.4047   0.5953   0.1874
Er19     Er     0.5236   0.4764   0.9147
V20     V     0.5953   0.4047   0.8126
Ti21     Ti     0.3333   0.4524   0.9831
Ti22     Ti     0.5476   0.6667   0.9831
Ti23     Ti     0.4524   0.3333   0.0169
Ti24     Ti     0.6667   0.5476   0.0169
Er25     Er     0.4764   0.9528   0.4147
V26     V     0.4047   0.8095   0.3126
Er27     Er     0.5236   0.0472   0.5853
V28     V     0.5953   0.1905   0.6874
Ti29     Ti     0.4524   0.1191   0.4831
Ti30     Ti     0.6667   0.1191   0.4831
Ti31     Ti     0.3333   0.8809   0.5169
Ti32     Ti     0.5476   0.8809   0.5169
V33     V     0.8095   0.4047   0.6874
Er34     Er     0.9528   0.4764   0.5853
Er35     Er     0.0472   0.5236   0.4147
V36     V     0.1905   0.5953   0.3126
Ti37     Ti     0.8809   0.3333   0.4831
Ti38     Ti     0.8809   0.5476   0.4831
Ti39     Ti     0.1191   0.4524   0.5169
Ti40     Ti     0.1191   0.6667   0.5169
Er41     Er     0.4764   0.5236   0.4147
V42     V     0.4047   0.5953   0.3126
V43     V     0.5953   0.4047   0.6874
Er44     Er     0.5236   0.4764   0.5853
Ti45     Ti     0.3333   0.4524   0.5169
Ti46     Ti     0.5476   0.6667   0.5169
Ti47     Ti     0.4524   0.3333   0.4831
Ti48     Ti     0.6667   0.5476   0.4831
loop_
_geom_bond_atom_site_label_1
_geom_bond_atom_site_label_2
_geom_bond_distance
_geom_bond_site_symmetry_2
_ccdc_geom_bond_type
V1     Er2    10.0   .     S
V1     V12    10.0   .     S
V1     V18    10.0   .     S
V1     V26    10.0   .     S
Er2     Ti6    10.0   1_554     S
Er2     Ti5    10.0   1_554     S
Er2     Ti7    10.0   1_565     S
Er2     Ti8    10.0   1_565     S
Er3     V4    10.0   .     S
Er3     Ti5    10.0   1_545     S
Er3     Ti6    10.0   1_545     S
Er3     Ti7    10.0   1_556     S
Er3     Ti8    10.0   1_556     S
V4     V20    10.0   .     S
V4     V10    10.0   .     S
V4     V28    10.0   .     S
Ti5     Er3    10.0   1_565     S
Ti5     Ti6    10.0   .     S
Ti5     Er2    10.0   1_556     S
Ti5     Ti8    10.0   1_566     S
Ti5     Ti22    10.001   .     S
Ti6     Er3    10.0   1_565     S
Ti6     Er2    10.0   1_556     S
Ti6     Ti7    10.0   1_566     S
Ti6     Ti16    10.001   .     S
Ti7     Er2    10.0   1_545     S
Ti7     Ti8    10.0   .     S
Ti7     Er3    10.0   1_554     S
Ti7     Ti6    10.0   1_544     S
Ti7     Ti23    10.001   .     S
Ti8     Er2    10.0   1_545     S
Ti8     Er3    10.0   1_554     S
Ti8     Ti5    10.0   1_544     S
Ti8     Ti13    10.001   .     S
Er9     V10    10.0   .     S
Er9     Ti13    10.0   1_556     S
Er9     Ti14    10.0   1_556     S
Er9     Ti16    10.0   1_655     S
Er9     Ti15    10.0   1_655     S
V10     V33    10.0   .     S
V10     V20    10.0   .     S
Er11     V12    10.0   .     S
Er11     Ti13    10.0   1_455     S
Er11     Ti14    10.0   1_455     S
Er11     Ti15    10.0   1_554     S
Er11     Ti16    10.0   1_554     S
V12     V18    10.0   .     S
V12     V36    10.0   .     S
Ti13     Er11    10.0   1_655     S
Ti13     Ti14    10.0   .     S
Ti13     Er9    10.0   1_554     S
Ti13     Ti15    10.0   1_654     S
Ti14     Er11    10.0   1_655     S
Ti14     Er9    10.0   1_554     S
Ti14     Ti16    10.0   1_654     S
Ti14     Ti24    10.001   .     S
Ti15     Ti13    10.0   1_456     S
Ti15     Ti16    10.0   .     S
Ti15     Er9    10.0   1_455     S
Ti15     Er11    10.0   1_556     S
Ti15     Ti21    10.001   .     S
Ti16     Er9    10.0   1_455     S
Ti16     Er11    10.0   1_556     S
Ti16     Ti14    10.0   1_456     S
Er17     V18    10.0   .     S
Er17     Ti21    10.0   1_554     S
Er17     Ti22    10.0   1_554     S
Er17     Ti23    10.0   .     S
Er17     Ti24    10.0   .     S
V18     V42    10.0   .     S
Er19     V20    10.0   .     S
Er19     Ti21    10.0   .     S
Er19     Ti22    10.0   .     S
Er19     Ti23    10.0   1_556     S
Er19     Ti24    10.0   1_556     S
V20     V43    10.0   .     S
Ti21     Ti22    10.0   .     S
Ti21     Er17    10.0   1_556     S
Ti21     Ti23    10.0   1_556     S
Ti22     Er17    10.0   1_556     S
Ti22     Ti24    10.0   1_556     S
Ti23     Ti24    10.0   .     S
Ti23     Er19    10.0   1_554     S
Ti23     Ti21    10.0   1_554     S
Ti24     Ti22    10.0   1_554     S
Ti24     Er19    10.0   1_554     S
Er25     V26    10.0   .     S
Er25     Ti29    10.0   1_565     S
Er25     Ti30    10.0   1_565     S
Er25     Ti32    10.0   .     S
Er25     Ti31    10.0   .     S
V26     V36    10.0   .     S
V26     V42    10.0   .     S
Er27     V28    10.0   .     S
Er27     Ti29    10.0   .     S
Er27     Ti30    10.0   .     S
Er27     Ti31    10.0   1_545     S
Er27     Ti32    10.0   1_545     S
V28     V33    10.0   .     S
V28     V43    10.0   .     S
Ti29     Er25    10.0   1_545     S
Ti29     Ti30    10.0   .     S
Ti29     Ti31    10.0   1_545     S
Ti29     Ti47    10.001   .     S
Ti30     Er25    10.0   1_545     S
Ti30     Ti32    10.0   1_545     S
Ti30     Ti37    10.001   .     S
Ti31     Ti29    10.0   1_565     S
Ti31     Er27    10.0   1_565     S
Ti31     Ti32    10.0   .     S
Ti31     Ti40    10.001   .     S
Ti32     Er27    10.0   1_565     S
Ti32     Ti30    10.0   1_565     S
Ti32     Ti46    10.001   .     S
V33     Er34    10.0   .     S
V33     V43    10.0   .     S
Er34     Ti37    10.0   .     S
Er34     Ti38    10.0   .     S
Er34     Ti39    10.0   1_655     S
Er34     Ti40    10.0   1_655     S
Er35     V36    10.0   .     S
Er35     Ti37    10.0   1_455     S
Er35     Ti38    10.0   1_455     S
Er35     Ti40    10.0   .     S
Er35     Ti39    10.0   .     S
V36     V42    10.0   .     S
Ti37     Er35    10.0   1_655     S
Ti37     Ti38    10.0   .     S
Ti37     Ti39    10.0   1_655     S
Ti38     Er35    10.0   1_655     S
Ti38     Ti40    10.0   1_655     S
Ti38     Ti48    10.001   .     S
Ti39     Ti37    10.0   1_455     S
Ti39     Er34    10.0   1_455     S
Ti39     Ti40    10.0   .     S
Ti39     Ti45    10.001   .     S
Ti40     Er34    10.0   1_455     S
Ti40     Ti38    10.0   1_455     S
Er41     V42    10.0   .     S
Er41     Ti45    10.0   .     S
Er41     Ti46    10.0   .     S
Er41     Ti48    10.0   .     S
Er41     Ti47    10.0   .     S
V43     Er44    10.0   .     S
Er44     Ti45    10.0   .     S
Er44     Ti46    10.0   .     S
Er44     Ti48    10.0   .     S
Er44     Ti47    10.0   .     S
Ti45     Ti46    10.0   .     S
Ti45     Ti47    10.0   .     S
Ti46     Ti48    10.0   .     S
Ti47     Ti48    10.0   .     S
