data_los
_audit_creation_date              2020-02-02
_audit_creation_method            'Pymatgen'
_symmetry_space_group_name_H-M    'P1'
_symmetry_Int_Tables_number       1
loop_
_symmetry_equiv_pos_as_xyz
  x,y,z
_cell_length_a                    40.0891
_cell_length_b                    40.0891
_cell_length_c                    32.5135
_cell_angle_alpha                 90.0
_cell_angle_beta                 90.0
_cell_angle_gamma                 120.0
loop_
_atom_site_label
_atom_site_type_symbol
_atom_site_fract_x
_atom_site_fract_y
_atom_site_fract_z
V1     V     0.7506   0.0   0.0
V2     V     0.2494   0.0   0.0
V3     V     0.2494   0.2494   0.0
V4     V     0.0   0.2494   0.0
V5     V     0.0   0.7506   0.0
V6     V     0.7506   0.7506   0.0
Er7     Er     0.9161   0.5828   0.75
Er8     Er     0.9161   0.3333   0.75
Er9     Er     0.6667   0.5828   0.75
Er10     Er     0.6667   0.0839   0.75
Er11     Er     0.4172   0.0839   0.75
Er12     Er     0.4172   0.3333   0.75
V13     V     0.7506   0.0   0.5
V14     V     0.2494   0.0   0.5
V15     V     0.2494   0.2494   0.5
V16     V     0.0   0.2494   0.5
V17     V     0.0   0.7506   0.5
V18     V     0.7506   0.7506   0.5
Er19     Er     0.5828   0.9161   0.25
Er20     Er     0.3333   0.9161   0.25
Er21     Er     0.3333   0.4172   0.25
Er22     Er     0.0839   0.4172   0.25
Er23     Er     0.5828   0.6667   0.25
Er24     Er     0.0839   0.6667   0.25
loop_
_geom_bond_atom_site_label_1
_geom_bond_atom_site_label_2
_geom_bond_distance
_geom_bond_site_symmetry_2
_ccdc_geom_bond_type
V1     V6    10.0   1_545     S
V1     V4    10.0   1_655     S
V1     Er10    10.0   1_554     S
V1     Er19    10.0   1_545     S
V2     V5    10.0   1_545     S
V2     V3    10.0   .     S
V2     Er11    10.0   1_554     S
V2     Er20    10.0   1_545     S
V3     V4    10.0   .     S
V3     Er12    10.0   1_554     S
V3     Er21    10.0   .     S
V4     V1    10.0   1_455     S
V4     Er8    10.0   1_454     S
V4     Er22    10.0   .     S
V5     V2    10.0   1_565     S
V5     V6    10.0   1_455     S
V5     Er7    10.0   1_454     S
V5     Er24    10.0   .     S
V6     V1    10.0   1_565     S
V6     V5    10.0   1_655     S
V6     Er9    10.0   1_554     S
V6     Er23    10.0   .     S
Er7     Er9    10.0   .     S
Er7     Er8    10.0   .     S
Er7     V5    10.0   1_656     S
Er7     V17    10.0   1_655     S
Er8     V4    10.0   1_656     S
Er8     Er10    10.0   .     S
Er8     V16    10.0   1_655     S
Er9     Er12    10.0   .     S
Er9     V6    10.0   1_556     S
Er9     V18    10.0   .     S
Er10     Er11    10.0   .     S
Er10     V1    10.0   1_556     S
Er10     V13    10.0   .     S
Er11     Er12    10.0   .     S
Er11     V2    10.0   1_556     S
Er11     V14    10.0   .     S
Er12     V3    10.0   1_556     S
Er12     V15    10.0   .     S
V13     V18    10.0   1_545     S
V13     V16    10.0   1_655     S
V13     Er19    10.0   1_545     S
V14     V17    10.0   1_545     S
V14     V15    10.0   .     S
V14     Er20    10.0   1_545     S
V15     V16    10.0   .     S
V15     Er21    10.0   .     S
V16     V13    10.0   1_455     S
V16     Er8    10.0   1_455     S
V16     Er22    10.0   .     S
V17     V14    10.0   1_565     S
V17     V18    10.0   1_455     S
V17     Er7    10.0   1_455     S
V17     Er24    10.0   .     S
V18     V13    10.0   1_565     S
V18     V17    10.0   1_655     S
V18     Er23    10.0   .     S
Er19     Er23    10.0   .     S
Er19     Er20    10.0   .     S
Er19     V13    10.0   1_565     S
Er19     V1    10.0   1_565     S
Er20     Er24    10.0   .     S
Er20     V14    10.0   1_565     S
Er20     V2    10.0   1_565     S
Er21     Er23    10.0   .     S
Er21     Er22    10.0   .     S
Er22     Er24    10.0   .     S
