data_lqm
_audit_creation_date              2020-02-02
_audit_creation_method            'Pymatgen'
_symmetry_space_group_name_H-M    'P1'
_symmetry_Int_Tables_number       1
loop_
_symmetry_equiv_pos_as_xyz
  x,y,z
_cell_length_a                    31.949
_cell_length_b                    31.949
_cell_length_c                    72.2939
_cell_angle_alpha                 90.0
_cell_angle_beta                 90.0
_cell_angle_gamma                 90.0
loop_
_atom_site_label
_atom_site_type_symbol
_atom_site_fract_x
_atom_site_fract_y
_atom_site_fract_z
V1     V     0.7247   0.0863   0.804
V2     V     0.2753   0.9137   0.804
Er3     Er     0.0   0.0   0.8576
V4     V     0.4137   0.7753   0.696
V5     V     0.5863   0.2247   0.696
Er6     Er     0.5   0.5   0.6424
V7     V     0.7247   0.4137   0.446
V8     V     0.2753   0.5863   0.446
Er9     Er     0.0   0.5   0.3924
V10     V     0.5863   0.2753   0.554
V11     V     0.4137   0.7247   0.554
Er12     Er     0.5   0.0   0.6076
V13     V     0.9137   0.2753   0.196
V14     V     0.0863   0.7247   0.196
Er15     Er     0.0   0.0   0.1424
V16     V     0.2247   0.5863   0.304
V17     V     0.7753   0.4137   0.304
Er18     Er     0.5   0.5   0.3576
V19     V     0.2247   0.9137   0.946
V20     V     0.7753   0.0863   0.946
Er21     Er     0.5   0.0   0.8924
V22     V     0.9137   0.2247   0.054
V23     V     0.0863   0.7753   0.054
Er24     Er     0.0   0.5   0.1076
loop_
_geom_bond_atom_site_label_1
_geom_bond_atom_site_label_2
_geom_bond_distance
_geom_bond_site_symmetry_2
_ccdc_geom_bond_type
V1     Er3    10.0   1_655     S
V1     Er21    10.0   .     S
V1     V5    10.0   .     S
V2     Er3    10.0   1_565     S
V2     Er21    10.0   1_565     S
V2     V4    10.0   .     S
Er3     V1    10.0   1_455     S
Er3     V2    10.0   1_545     S
Er3     V19    10.0   1_545     S
Er3     V20    10.0   1_455     S
V4     Er6    10.0   .     S
V4     Er12    10.0   1_565     S
V5     Er6    10.0   .     S
V5     Er12    10.0   .     S
Er6     V11    10.0   .     S
Er6     V10    10.0   .     S
V7     Er9    10.0   1_655     S
V7     Er18    10.0   .     S
V7     V10    10.0   .     S
V8     Er9    10.0   .     S
V8     Er18    10.0   .     S
V8     V11    10.0   .     S
Er9     V7    10.0   1_455     S
Er9     V16    10.0   .     S
Er9     V17    10.0   1_455     S
V10     Er12    10.0   .     S
V11     Er12    10.0   1_565     S
Er12     V4    10.0   1_545     S
Er12     V11    10.0   1_545     S
V13     Er15    10.0   1_655     S
V13     Er24    10.0   1_655     S
V13     V17    10.0   .     S
V14     Er15    10.0   1_565     S
V14     Er24    10.0   .     S
V14     V16    10.0   .     S
Er15     V13    10.0   1_455     S
Er15     V14    10.0   1_545     S
Er15     V22    10.0   1_455     S
Er15     V23    10.0   1_545     S
V16     Er18    10.0   .     S
V17     Er18    10.0   .     S
V17     Er9    10.0   1_655     S
V19     Er21    10.0   1_565     S
V19     Er3    10.0   1_565     S
V19     V23    10.0   1_556     S
V20     Er21    10.0   .     S
V20     Er3    10.0   1_655     S
V20     V22    10.0   1_556     S
Er21     V2    10.0   1_545     S
Er21     V19    10.0   1_545     S
V22     Er24    10.0   1_655     S
V22     Er15    10.0   1_655     S
V22     V20    10.0   1_554     S
V23     Er24    10.0   .     S
V23     Er15    10.0   1_565     S
V23     V19    10.0   1_554     S
Er24     V13    10.0   1_455     S
Er24     V22    10.0   1_455     S
