data_lrk
_audit_creation_date              2020-02-02
_audit_creation_method            'Pymatgen'
_symmetry_space_group_name_H-M    'P1'
_symmetry_Int_Tables_number       1
loop_
_symmetry_equiv_pos_as_xyz
  x,y,z
_cell_length_a                    19.0883
_cell_length_b                    79.5942
_cell_length_c                    68.2754
_cell_angle_alpha                 90.0
_cell_angle_beta                 90.0
_cell_angle_gamma                 90.0
loop_
_atom_site_label
_atom_site_type_symbol
_atom_site_fract_x
_atom_site_fract_y
_atom_site_fract_z
V1     V     0.8797   0.5558   0.0
V2     V     0.1203   0.4442   0.0
V3     V     0.3797   0.0558   0.0
V4     V     0.6203   0.9442   0.0
Er5     Er     0.172   0.1525   0.9268
Er6     Er     0.172   0.1525   0.0732
Er7     Er     0.828   0.1525   0.5732
Er8     Er     0.828   0.1525   0.4268
Er9     Er     0.328   0.3475   0.9268
Er10     Er     0.328   0.3475   0.0732
Ti11     Ti     0.0   0.2312   0.8232
Ti12     Ti     0.0   0.2312   0.6768
Ti13     Ti     0.5   0.2688   0.8232
Ti14     Ti     0.5   0.2688   0.6768
Ti15     Ti     0.0   0.2312   0.1768
Ti16     Ti     0.0   0.2312   0.3232
Ti17     Ti     0.5   0.2688   0.1768
Ti18     Ti     0.5   0.2688   0.3232
Er19     Er     0.672   0.3475   0.5732
Er20     Er     0.672   0.3475   0.4268
V21     V     0.8797   0.4442   0.5
V22     V     0.1203   0.5558   0.5
V23     V     0.3797   0.9442   0.5
V24     V     0.6203   0.0558   0.5
Er25     Er     0.172   0.8475   0.5732
Er26     Er     0.172   0.8475   0.4268
Er27     Er     0.828   0.8475   0.9268
Er28     Er     0.828   0.8475   0.0732
Ti29     Ti     0.0   0.7688   0.1768
Ti30     Ti     0.0   0.7688   0.3232
Ti31     Ti     0.5   0.7312   0.1768
Ti32     Ti     0.5   0.7312   0.3232
Er33     Er     0.328   0.6525   0.4268
Er34     Er     0.328   0.6525   0.5732
Ti35     Ti     0.5   0.7312   0.8232
Ti36     Ti     0.5   0.7312   0.6768
Ti37     Ti     0.0   0.7688   0.8232
Ti38     Ti     0.0   0.7688   0.6768
Er39     Er     0.672   0.6525   0.9268
Er40     Er     0.672   0.6525   0.0732
loop_
_geom_bond_atom_site_label_1
_geom_bond_atom_site_label_2
_geom_bond_distance
_geom_bond_site_symmetry_2
_ccdc_geom_bond_type
V1     V2    10.0   1_655     S
V1     Er39    10.0   1_554     S
V1     Er40    10.0   .     S
V2     V1    10.0   1_455     S
V2     Er9    10.0   1_554     S
V2     Er10    10.0   .     S
V3     V4    10.0   1_545     S
V3     Er5    10.0   1_554     S
V3     Er6    10.0   .     S
V4     V3    10.0   1_565     S
V4     Er27    10.0   1_554     S
V4     Er28    10.0   .     S
Er5     V3    10.0   1_556     S
Er5     Er6    10.0   1_556     S
Er5     Ti11    10.001   .     S
Er6     Er5    10.0   1_554     S
Er6     Ti15    10.001   .     S
Er7     V24    10.0   .     S
Er7     Er8    10.0   .     S
Er7     Ti12    10.001   1_655     S
Er8     V24    10.0   .     S
Er8     Ti16    10.001   1_655     S
Er9     V2    10.0   1_556     S
Er9     Er10    10.0   1_556     S
Er9     Ti13    10.001   .     S
Er10     Er9    10.0   1_554     S
Er10     Ti17    10.001   .     S
Ti11     Ti12    10.0   .     S
Ti11     Ti13    10.0   1_455     S
Ti11     Ti13    10.0   .     S
Ti12     Er7    10.001   1_455     S
Ti12     Ti14    10.0   1_455     S
Ti12     Ti14    10.0   .     S
Ti13     Ti14    10.0   .     S
Ti13     Ti11    10.0   1_655     S
Ti14     Ti12    10.0   1_655     S
Ti14     Er19    10.001   .     S
Ti15     Ti16    10.0   .     S
Ti15     Ti17    10.0   1_455     S
Ti15     Ti17    10.0   .     S
Ti16     Er8    10.001   1_455     S
Ti16     Ti18    10.0   1_455     S
Ti16     Ti18    10.0   .     S
Ti17     Ti18    10.0   .     S
Ti17     Ti15    10.0   1_655     S
Ti18     Ti16    10.0   1_655     S
Ti18     Er20    10.001   .     S
Er19     V21    10.0   .     S
Er19     Er20    10.0   .     S
Er20     V21    10.0   .     S
V21     V22    10.0   1_655     S
V22     V21    10.0   1_455     S
V22     Er33    10.0   .     S
V22     Er34    10.0   .     S
V23     V24    10.0   1_565     S
V23     Er25    10.0   .     S
V23     Er26    10.0   .     S
V24     V23    10.0   1_545     S
Er25     Er26    10.0   .     S
Er25     Ti38    10.001   .     S
Er26     Ti30    10.001   .     S
Er27     V4    10.0   1_556     S
Er27     Er28    10.0   1_556     S
Er27     Ti37    10.001   1_655     S
Er28     Er27    10.0   1_554     S
Er28     Ti29    10.001   1_655     S
Ti29     Er28    10.001   1_455     S
Ti29     Ti30    10.0   .     S
Ti29     Ti31    10.0   1_455     S
Ti29     Ti31    10.0   .     S
Ti30     Ti32    10.0   1_455     S
Ti30     Ti32    10.0   .     S
Ti31     Ti32    10.0   .     S
Ti31     Ti29    10.0   1_655     S
Ti31     Er40    10.001   .     S
Ti32     Ti30    10.0   1_655     S
Ti32     Er33    10.001   .     S
Er33     Er34    10.0   .     S
Er34     Ti36    10.001   .     S
Ti35     Ti36    10.0   .     S
Ti35     Ti37    10.0   1_655     S
Ti35     Ti37    10.0   .     S
Ti35     Er39    10.001   .     S
Ti36     Ti38    10.0   1_655     S
Ti36     Ti38    10.0   .     S
Ti37     Er27    10.001   1_455     S
Ti37     Ti35    10.0   1_455     S
Ti37     Ti38    10.0   .     S
Ti38     Ti36    10.0   1_455     S
Er39     V1    10.0   1_556     S
Er39     Er40    10.0   1_556     S
Er40     Er39    10.0   1_554     S
