data_ltae
_audit_creation_date              2020-02-02
_audit_creation_method            'Pymatgen'
_symmetry_space_group_name_H-M    'P1'
_symmetry_Int_Tables_number       1
loop_
_symmetry_equiv_pos_as_xyz
  x,y,z
_cell_length_a                    45.5763
_cell_length_b                    45.5763
_cell_length_c                    45.5763
_cell_angle_alpha                 90.0
_cell_angle_beta                 90.0
_cell_angle_gamma                 90.0
loop_
_atom_site_label
_atom_site_type_symbol
_atom_site_fract_x
_atom_site_fract_y
_atom_site_fract_z
V1     V     0.5   0.0   0.7283
Er2     Er     0.5   0.7892   0.7892
V3     V     0.5   0.7283   0.0
Er4     Er     0.5   0.2108   0.7892
V5     V     0.5   0.2718   0.0
Er6     Er     0.5   0.2108   0.2108
Er7     Er     0.5   0.7892   0.2108
V8     V     0.5   0.0   0.2718
V9     V     0.7283   0.5   0.0
Er10     Er     0.7892   0.5   0.7892
V11     V     0.0   0.5   0.7283
Er12     Er     0.7892   0.5   0.2108
V13     V     0.0   0.5   0.2718
Er14     Er     0.2108   0.5   0.2108
Er15     Er     0.2108   0.5   0.7892
V16     V     0.2718   0.5   0.0
V17     V     0.0   0.7283   0.5
Er18     Er     0.7892   0.7892   0.5
V19     V     0.7283   0.0   0.5
Er20     Er     0.2108   0.7892   0.5
V21     V     0.2718   0.0   0.5
Er22     Er     0.7892   0.2108   0.5
Er23     Er     0.2108   0.2108   0.5
V24     V     0.0   0.2718   0.5
Ti25     Ti     0.8515   0.3903   0.6097
Ti26     Ti     0.6097   0.8515   0.6097
Ti27     Ti     0.3903   0.8515   0.6097
Ti28     Ti     0.8515   0.6097   0.6097
Ti29     Ti     0.8515   0.6097   0.3903
Ti30     Ti     0.3903   0.6097   0.8515
Ti31     Ti     0.6097   0.6097   0.8515
Ti32     Ti     0.6097   0.8515   0.3903
Ti33     Ti     0.6097   0.3903   0.8515
Ti34     Ti     0.6097   0.1485   0.3903
Ti35     Ti     0.3903   0.8515   0.3903
Ti36     Ti     0.1485   0.6097   0.6097
Ti37     Ti     0.3903   0.1485   0.6097
Ti38     Ti     0.8515   0.3903   0.3903
Ti39     Ti     0.1485   0.6097   0.3903
Ti40     Ti     0.1485   0.3903   0.6097
Ti41     Ti     0.6097   0.1485   0.6097
Ti42     Ti     0.3903   0.3903   0.8515
Ti43     Ti     0.6097   0.6097   0.1485
Ti44     Ti     0.3903   0.6097   0.1485
Ti45     Ti     0.6097   0.3903   0.1485
Ti46     Ti     0.1485   0.3903   0.3903
Ti47     Ti     0.3903   0.1485   0.3903
Ti48     Ti     0.3903   0.3903   0.1485
loop_
_geom_bond_atom_site_label_1
_geom_bond_atom_site_label_2
_geom_bond_distance
_geom_bond_site_symmetry_2
_ccdc_geom_bond_type
V1     Ti27    10.0   1_545     S
V1     Ti26    10.0   1_545     S
V1     Er2    10.0   1_545     S
V1     Ti41    10.0   .     S
V1     Ti37    10.0   .     S
V1     Er4    10.0   .     S
Er2     V1    10.0   1_565     S
Er2     Ti27    10.0   .     S
Er2     Ti26    10.0   .     S
Er2     Ti31    10.0   .     S
Er2     Ti30    10.0   .     S
Er2     V3    10.0   1_556     S
V3     Ti31    10.0   1_554     S
V3     Ti30    10.0   1_554     S
V3     Er2    10.0   1_554     S
V3     Ti44    10.0   .     S
V3     Ti43    10.0   .     S
V3     Er7    10.0   .     S
Er4     Ti42    10.0   .     S
Er4     Ti33    10.0   .     S
Er4     Ti41    10.0   .     S
Er4     Ti37    10.0   .     S
Er4     V5    10.0   1_556     S
V5     Ti42    10.0   1_554     S
V5     Ti33    10.0   1_554     S
V5     Er4    10.0   1_554     S
V5     Ti45    10.0   .     S
V5     Ti48    10.0   .     S
V5     Er6    10.0   .     S
Er6     Ti45    10.0   .     S
Er6     Ti48    10.0   .     S
Er6     Ti47    10.0   .     S
Er6     Ti34    10.0   .     S
Er6     V8    10.0   .     S
Er7     Ti32    10.0   .     S
Er7     Ti35    10.0   .     S
Er7     Ti44    10.0   .     S
Er7     Ti43    10.0   .     S
Er7     V8    10.0   1_565     S
V8     Ti32    10.0   1_545     S
V8     Ti35    10.0   1_545     S
V8     Er7    10.0   1_545     S
V8     Ti47    10.0   .     S
V8     Ti34    10.0   .     S
V9     Ti33    10.0   1_554     S
V9     Ti31    10.0   1_554     S
V9     Er10    10.0   1_554     S
V9     Ti43    10.0   .     S
V9     Ti45    10.0   .     S
V9     Er12    10.0   .     S
Er10     V9    10.0   1_556     S
Er10     Ti33    10.0   .     S
Er10     Ti31    10.0   .     S
Er10     Ti28    10.0   .     S
Er10     Ti25    10.0   .     S
Er10     V11    10.0   1_655     S
V11     Ti28    10.0   1_455     S
V11     Ti25    10.0   1_455     S
V11     Er10    10.0   1_455     S
V11     Ti40    10.0   .     S
V11     Ti36    10.0   .     S
V11     Er15    10.0   .     S
Er12     Ti38    10.0   .     S
Er12     Ti29    10.0   .     S
Er12     Ti43    10.0   .     S
Er12     Ti45    10.0   .     S
Er12     V13    10.0   1_655     S
V13     Ti38    10.0   1_455     S
V13     Ti29    10.0   1_455     S
V13     Er12    10.0   1_455     S
V13     Ti39    10.0   .     S
V13     Ti46    10.0   .     S
V13     Er14    10.0   .     S
Er14     Ti48    10.0   .     S
Er14     Ti44    10.0   .     S
Er14     Ti39    10.0   .     S
Er14     Ti46    10.0   .     S
Er14     V16    10.0   .     S
Er15     Ti30    10.0   .     S
Er15     Ti42    10.0   .     S
Er15     Ti40    10.0   .     S
Er15     Ti36    10.0   .     S
Er15     V16    10.0   1_556     S
V16     Ti30    10.0   1_554     S
V16     Ti42    10.0   1_554     S
V16     Er15    10.0   1_554     S
V16     Ti48    10.0   .     S
V16     Ti44    10.0   .     S
V17     Ti29    10.0   1_455     S
V17     Ti28    10.0   1_455     S
V17     Er18    10.0   1_455     S
V17     Ti36    10.0   .     S
V17     Ti39    10.0   .     S
V17     Er20    10.0   .     S
Er18     V17    10.0   1_655     S
Er18     Ti29    10.0   .     S
Er18     Ti28    10.0   .     S
Er18     Ti26    10.0   .     S
Er18     Ti32    10.0   .     S
Er18     V19    10.0   1_565     S
V19     Ti26    10.0   1_545     S
V19     Ti32    10.0   1_545     S
V19     Er18    10.0   1_545     S
V19     Ti34    10.0   .     S
V19     Ti41    10.0   .     S
V19     Er22    10.0   .     S
Er20     Ti35    10.0   .     S
Er20     Ti27    10.0   .     S
Er20     Ti36    10.0   .     S
Er20     Ti39    10.0   .     S
Er20     V21    10.0   1_565     S
V21     Ti35    10.0   1_545     S
V21     Ti27    10.0   1_545     S
V21     Er20    10.0   1_545     S
V21     Ti37    10.0   .     S
V21     Ti47    10.0   .     S
V21     Er23    10.0   .     S
Er22     Ti25    10.0   .     S
Er22     Ti38    10.0   .     S
Er22     Ti34    10.0   .     S
Er22     Ti41    10.0   .     S
Er22     V24    10.0   1_655     S
Er23     Ti37    10.0   .     S
Er23     Ti47    10.0   .     S
Er23     Ti46    10.0   .     S
Er23     Ti40    10.0   .     S
Er23     V24    10.0   .     S
V24     Ti25    10.0   1_455     S
V24     Ti38    10.0   1_455     S
V24     Er22    10.0   1_455     S
V24     Ti46    10.0   .     S
V24     Ti40    10.0   .     S
Ti25     V11    10.0   1_655     S
Ti25     Ti28    10.0   .     S
Ti25     V24    10.0   1_655     S
Ti25     Ti38    10.0   .     S
Ti26     V1    10.0   1_565     S
Ti26     Ti27    10.0   .     S
Ti26     V19    10.0   1_565     S
Ti26     Ti32    10.0   .     S
Ti27     V1    10.0   1_565     S
Ti27     V21    10.0   1_565     S
Ti27     Ti35    10.0   .     S
Ti28     V11    10.0   1_655     S
Ti28     V17    10.0   1_655     S
Ti28     Ti29    10.0   .     S
Ti29     V13    10.0   1_655     S
Ti29     Ti38    10.0   .     S
Ti29     V17    10.0   1_655     S
Ti30     V3    10.0   1_556     S
Ti30     Ti31    10.0   .     S
Ti30     V16    10.0   1_556     S
Ti30     Ti42    10.0   .     S
Ti31     V3    10.0   1_556     S
Ti31     V9    10.0   1_556     S
Ti31     Ti33    10.0   .     S
Ti32     V8    10.0   1_565     S
Ti32     Ti35    10.0   .     S
Ti32     V19    10.0   1_565     S
Ti33     V5    10.0   1_556     S
Ti33     Ti42    10.0   .     S
Ti33     V9    10.0   1_556     S
Ti34     Ti47    10.0   .     S
Ti34     Ti41    10.0   .     S
Ti35     V8    10.0   1_565     S
Ti35     V21    10.0   1_565     S
Ti36     Ti40    10.0   .     S
Ti36     Ti39    10.0   .     S
Ti37     Ti41    10.0   .     S
Ti37     Ti47    10.0   .     S
Ti38     V13    10.0   1_655     S
Ti38     V24    10.0   1_655     S
Ti39     Ti46    10.0   .     S
Ti40     Ti46    10.0   .     S
Ti42     V5    10.0   1_556     S
Ti42     V16    10.0   1_556     S
Ti43     Ti44    10.0   .     S
Ti43     Ti45    10.0   .     S
Ti44     Ti48    10.0   .     S
Ti45     Ti48    10.0   .     S
