data_ltj
_audit_creation_date              2020-02-02
_audit_creation_method            'Pymatgen'
_symmetry_space_group_name_H-M    'P1'
_symmetry_Int_Tables_number       1
loop_
_symmetry_equiv_pos_as_xyz
  x,y,z
_cell_length_a                    29.8991
_cell_length_b                    29.8991
_cell_length_c                    32.4435
_cell_angle_alpha                 90.0
_cell_angle_beta                 90.0
_cell_angle_gamma                 90.0
loop_
_atom_site_label
_atom_site_type_symbol
_atom_site_fract_x
_atom_site_fract_y
_atom_site_fract_z
Er1     Er     0.4221   0.3941   0.847
Er2     Er     0.6059   0.5779   0.653
Er3     Er     0.5779   0.6059   0.347
Er4     Er     0.3941   0.4221   0.153
Er5     Er     0.8941   0.0779   0.597
Er6     Er     0.0779   0.8941   0.403
V7     V     0.1064   0.5884   0.1189
V8     V     0.0884   0.3936   0.8689
V9     V     0.8936   0.4116   0.6189
V10     V     0.9116   0.6064   0.3689
Er11     Er     0.1059   0.9221   0.097
Er12     Er     0.9221   0.1059   0.903
V13     V     0.5884   0.1064   0.8811
V14     V     0.3936   0.0884   0.1311
V15     V     0.4116   0.8936   0.3811
V16     V     0.6064   0.9116   0.6311
loop_
_geom_bond_atom_site_label_1
_geom_bond_atom_site_label_2
_geom_bond_distance
_geom_bond_site_symmetry_2
_ccdc_geom_bond_type
Er1     Er2    10.0   .     S
Er1     V13    10.0   .     S
Er1     V8    10.0   .     S
Er1     Er4    10.0   1_556     S
Er2     V9    10.0   .     S
Er2     V16    10.0   .     S
Er2     Er3    10.0   .     S
Er3     Er4    10.0   .     S
Er3     V15    10.0   .     S
Er3     V10    10.0   .     S
Er4     V7    10.0   .     S
Er4     V14    10.0   .     S
Er4     Er1    10.0   1_554     S
Er5     Er6    10.0   1_645     S
Er5     V16    10.0   1_545     S
Er5     V9    10.0   .     S
Er5     Er12    10.0   .     S
Er6     Er5    10.0   1_465     S
Er6     V10    10.0   1_455     S
Er6     V15    10.0   .     S
Er6     Er11    10.0   .     S
V7     Er11    10.0   .     S
V7     V10    10.0   1_455     S
V7     V8    10.0   1_554     S
V8     V7    10.0   1_556     S
V8     V9    10.0   1_455     S
V8     Er12    10.0   1_455     S
V9     V8    10.0   1_655     S
V9     V10    10.0   .     S
V10     Er6    10.0   1_655     S
V10     V7    10.0   1_655     S
Er11     Er12    10.0   1_464     S
Er11     V14    10.0   1_565     S
Er12     Er11    10.0   1_646     S
Er12     V8    10.0   1_655     S
Er12     V13    10.0   .     S
V13     V16    10.0   1_545     S
V13     V14    10.0   1_556     S
V14     Er11    10.0   1_545     S
V14     V13    10.0   1_554     S
V14     V15    10.0   1_545     S
V15     V14    10.0   1_565     S
V15     V16    10.0   .     S
V16     Er5    10.0   1_565     S
V16     V13    10.0   1_565     S
