data_luo
_audit_creation_date              2020-02-02
_audit_creation_method            'Pymatgen'
_symmetry_space_group_name_H-M    'P1'
_symmetry_Int_Tables_number       1
loop_
_symmetry_equiv_pos_as_xyz
  x,y,z
_cell_length_a                    42.2572
_cell_length_b                    42.2572
_cell_length_c                    36.0232
_cell_angle_alpha                 90.0
_cell_angle_beta                 90.0
_cell_angle_gamma                 90.0
loop_
_atom_site_label
_atom_site_type_symbol
_atom_site_fract_x
_atom_site_fract_y
_atom_site_fract_z
Er1     Er     0.8816   0.0   0.75
Ti2     Ti     0.2717   0.1801   0.7499
V3     V     0.5   0.8819   0.7497
V4     V     0.5   0.1181   0.7497
Ti5     Ti     0.2717   0.8199   0.7499
Ti6     Ti     0.7283   0.8199   0.7499
Ti7     Ti     0.7283   0.1801   0.7499
Er8     Er     0.1184   0.0   0.75
Er9     Er     0.0   0.3816   0.0
V10     V     0.8819   0.0   0.9997
V11     V     0.1181   0.0   0.9997
Ti12     Ti     0.8199   0.2283   0.9999
Ti13     Ti     0.1801   0.2283   0.9999
Ti14     Ti     0.1801   0.7717   0.9999
Ti15     Ti     0.8199   0.7717   0.9999
Er16     Er     0.0   0.6184   0.0
Er17     Er     0.5   0.1184   0.5
Ti18     Ti     0.3199   0.2717   0.4999
V19     V     0.3819   0.5   0.4997
V20     V     0.6181   0.5   0.4997
Ti21     Ti     0.6801   0.2717   0.4999
Ti22     Ti     0.6801   0.7283   0.4999
Ti23     Ti     0.3199   0.7283   0.4999
Er24     Er     0.5   0.8816   0.5
Er25     Er     0.3816   0.5   0.25
V26     V     0.0   0.3819   0.2497
V27     V     0.0   0.6181   0.2497
Ti28     Ti     0.2283   0.3199   0.2499
Ti29     Ti     0.7717   0.3199   0.2499
Ti30     Ti     0.7717   0.6801   0.2499
Ti31     Ti     0.2283   0.6801   0.2499
Er32     Er     0.6184   0.5   0.25
loop_
_geom_bond_atom_site_label_1
_geom_bond_atom_site_label_2
_geom_bond_distance
_geom_bond_site_symmetry_2
_ccdc_geom_bond_type
Er1     Ti6    9.996   1_545     S
Er1     Ti7    9.996   .     S
Er1     Er8    10.002   1_655     S
Ti2     V4    9.995   .     S
Ti2     Er8    9.996   .     S
Ti2     Ti13    10.012   .     S
Ti2     Ti18    10.012   .     S
V3     V4    9.984   1_565     S
V3     Ti5    9.995   .     S
V3     Ti6    9.995   .     S
V4     V3    9.984   1_545     S
V4     Ti7    9.995   .     S
Ti5     Er8    9.996   1_565     S
Ti5     Ti14    10.012   .     S
Ti5     Ti23    10.012   .     S
Ti6     Er1    9.996   1_565     S
Ti6     Ti15    10.012   .     S
Ti6     Ti22    10.012   .     S
Ti7     Ti12    10.012   .     S
Ti7     Ti21    10.012   .     S
Er8     Ti5    9.996   1_545     S
Er8     Er1    10.002   1_455     S
Er9     Ti13    9.996   1_554     S
Er9     Ti12    9.996   1_454     S
Er9     Er16    10.002   .     S
V10     V11    9.984   1_655     S
V10     Ti15    9.995   1_545     S
V10     Ti12    9.995   .     S
V11     V10    9.984   1_455     S
V11     Ti14    9.995   1_545     S
V11     Ti13    9.995   .     S
Ti12     Er9    9.996   1_656     S
Ti12     Ti29    10.012   1_556     S
Ti13     Er9    9.996   1_556     S
Ti13     Ti28    10.012   1_556     S
Ti14     V11    9.995   1_565     S
Ti14     Er16    9.996   1_556     S
Ti14     Ti31    10.012   1_556     S
Ti15     V10    9.995   1_565     S
Ti15     Er16    9.996   1_656     S
Ti15     Ti30    10.012   1_556     S
Er16     Ti14    9.996   1_554     S
Er16     Ti15    9.996   1_454     S
Er17     Ti21    9.996   .     S
Er17     Ti18    9.996   .     S
Er17     Er24    10.002   1_545     S
Ti18     V19    9.995   .     S
Ti18     Ti28    10.012   .     S
V19     V20    9.984   .     S
V19     Ti23    9.995   .     S
V20     Ti21    9.995   .     S
V20     Ti22    9.995   .     S
Ti21     Ti29    10.012   .     S
Ti22     Er24    9.996   .     S
Ti22     Ti30    10.012   .     S
Ti23     Er24    9.996   .     S
Ti23     Ti31    10.012   .     S
Er24     Er17    10.002   1_565     S
Er25     Ti28    9.996   .     S
Er25     Ti31    9.996   .     S
Er25     Er32    10.002   .     S
V26     V27    9.984   .     S
V26     Ti28    9.995   .     S
V26     Ti29    9.995   1_455     S
V27     Ti31    9.995   .     S
V27     Ti30    9.995   1_455     S
Ti28     Ti13    10.012   1_554     S
Ti29     V26    9.995   1_655     S
Ti29     Er32    9.996   .     S
Ti29     Ti12    10.012   1_554     S
Ti30     V27    9.995   1_655     S
Ti30     Er32    9.996   .     S
Ti30     Ti15    10.012   1_554     S
Ti31     Ti14    10.012   1_554     S
