data_lvta
_audit_creation_date              2020-02-02
_audit_creation_method            'Pymatgen'
_symmetry_space_group_name_H-M    'P1'
_symmetry_Int_Tables_number       1
loop_
_symmetry_equiv_pos_as_xyz
  x,y,z
_cell_length_a                    56.3356
_cell_length_b                    56.3356
_cell_length_c                    53.1264
_cell_angle_alpha                 90.0
_cell_angle_beta                 90.0
_cell_angle_gamma                 90.0
loop_
_atom_site_label
_atom_site_type_symbol
_atom_site_fract_x
_atom_site_fract_y
_atom_site_fract_z
V1     V     0.1892   0.8388   0.1815
V2     V     0.1892   0.6612   0.1815
V3     V     0.3108   0.6612   0.3185
V4     V     0.3108   0.8388   0.3185
V5     V     0.6892   0.8388   0.3185
V6     V     0.6892   0.6612   0.3185
V7     V     0.8108   0.8388   0.1815
V8     V     0.8108   0.6612   0.1815
V9     V     0.9112   0.0608   0.9315
V10     V     0.0888   0.0608   0.9315
V11     V     0.9112   0.9392   0.0685
V12     V     0.0888   0.9392   0.0685
V13     V     0.5888   0.9392   0.4315
V14     V     0.4112   0.9392   0.4315
V15     V     0.5888   0.0608   0.5685
V16     V     0.4112   0.0608   0.5685
V17     V     0.6892   0.1612   0.6815
V18     V     0.6892   0.3388   0.6815
V19     V     0.8108   0.3388   0.8185
V20     V     0.8108   0.1612   0.8185
V21     V     0.5888   0.5608   0.4315
V22     V     0.4112   0.5608   0.4315
V23     V     0.5888   0.4392   0.5685
V24     V     0.4112   0.4392   0.5685
V25     V     0.9112   0.4392   0.9315
V26     V     0.0888   0.4392   0.9315
V27     V     0.9112   0.5608   0.0685
V28     V     0.0888   0.5608   0.0685
V29     V     0.3108   0.1612   0.6815
V30     V     0.3108   0.3388   0.6815
V31     V     0.1892   0.1612   0.8185
V32     V     0.1892   0.3388   0.8185
loop_
_geom_bond_atom_site_label_1
_geom_bond_atom_site_label_2
_geom_bond_distance
_geom_bond_site_symmetry_2
_ccdc_geom_bond_type
V1     V2    10.0   .     S
V1     V4    10.0   .     S
V1     V12    10.0   .     S
V2     V3    10.0   .     S
V2     V28    10.0   .     S
V3     V4    10.0   .     S
V3     V22    10.0   .     S
V4     V14    10.0   .     S
V5     V6    10.0   .     S
V5     V7    10.0   .     S
V5     V13    10.0   .     S
V6     V8    10.0   .     S
V6     V21    10.0   .     S
V7     V8    10.0   .     S
V7     V11    10.0   .     S
V8     V27    10.0   .     S
V9     V10    10.0   1_655     S
V9     V11    10.0   1_546     S
V9     V20    10.0   .     S
V10     V9    10.0   1_455     S
V10     V12    10.0   1_546     S
V10     V31    10.0   .     S
V11     V12    10.0   1_655     S
V11     V9    10.0   1_564     S
V12     V11    10.0   1_455     S
V12     V10    10.0   1_564     S
V13     V14    10.0   .     S
V13     V15    10.0   1_565     S
V14     V16    10.0   1_565     S
V15     V16    10.0   .     S
V15     V13    10.0   1_545     S
V15     V17    10.0   .     S
V16     V14    10.0   1_545     S
V16     V29    10.0   .     S
V17     V18    10.0   .     S
V17     V20    10.0   .     S
V18     V19    10.0   .     S
V18     V23    10.0   .     S
V19     V20    10.0   .     S
V19     V25    10.0   .     S
V21     V22    10.0   .     S
V21     V23    10.0   .     S
V22     V24    10.0   .     S
V23     V24    10.0   .     S
V24     V30    10.0   .     S
V25     V26    10.0   1_655     S
V25     V27    10.0   1_556     S
V26     V25    10.0   1_455     S
V26     V28    10.0   1_556     S
V26     V32    10.0   .     S
V27     V28    10.0   1_655     S
V27     V25    10.0   1_554     S
V28     V27    10.0   1_455     S
V28     V26    10.0   1_554     S
V29     V30    10.0   .     S
V29     V31    10.0   .     S
V30     V32    10.0   .     S
V31     V32    10.0   .     S
