data_lwad
_audit_creation_date              2020-02-02
_audit_creation_method            'Pymatgen'
_symmetry_space_group_name_H-M    'P1'
_symmetry_Int_Tables_number       1
loop_
_symmetry_equiv_pos_as_xyz
  x,y,z
_cell_length_a                    36.5289
_cell_length_b                    36.5289
_cell_length_c                    36.5289
_cell_angle_alpha                 90.0
_cell_angle_beta                 90.0
_cell_angle_gamma                 90.0
loop_
_atom_site_label
_atom_site_type_symbol
_atom_site_fract_x
_atom_site_fract_y
_atom_site_fract_z
Er1     Er     0.5   0.0   0.3169
Er2     Er     0.0   0.3169   0.5
Er3     Er     0.3169   0.5   0.0
Er4     Er     0.0   0.5   0.1831
Er5     Er     0.5   0.1831   0.0
Er6     Er     0.1831   0.0   0.5
Er7     Er     0.5   0.0   0.6831
Er8     Er     0.0   0.6831   0.5
Er9     Er     0.6831   0.5   0.0
Er10     Er     0.0   0.5   0.8169
Er11     Er     0.5   0.8169   0.0
V12     V     0.5   0.2432   0.5945
V13     V     0.5   0.2432   0.4055
V14     V     0.2432   0.5945   0.5
V15     V     0.2432   0.4055   0.5
V16     V     0.5945   0.5   0.2432
V17     V     0.4055   0.5   0.2432
Ti18     Ti     0.154   0.154   0.154
Ti19     Ti     0.346   0.346   0.346
Ce20     Ce     0.25   0.25   0.25
V21     V     0.5   0.7568   0.5945
V22     V     0.5   0.7568   0.4055
V23     V     0.7568   0.5945   0.5
V24     V     0.7568   0.4055   0.5
V25     V     0.5945   0.5   0.7568
V26     V     0.4055   0.5   0.7568
Ti27     Ti     0.654   0.346   0.346
Ti28     Ti     0.846   0.154   0.154
Ce29     Ce     0.75   0.25   0.25
Ti30     Ti     0.654   0.346   0.654
Ti31     Ti     0.846   0.154   0.846
Ce32     Ce     0.75   0.25   0.75
V33     V     0.0   0.2568   0.9055
V34     V     0.0   0.2568   0.0945
Ti35     Ti     0.346   0.346   0.654
Ti36     Ti     0.154   0.154   0.846
Ce37     Ce     0.25   0.25   0.75
Ti38     Ti     0.346   0.654   0.654
Ti39     Ti     0.154   0.846   0.846
Ce40     Ce     0.25   0.75   0.75
V41     V     0.2568   0.9055   0.0
V42     V     0.2568   0.0945   0.0
Ti43     Ti     0.346   0.654   0.346
Ti44     Ti     0.154   0.846   0.154
Ce45     Ce     0.25   0.75   0.25
Ti46     Ti     0.654   0.654   0.346
Ti47     Ti     0.846   0.846   0.154
Ce48     Ce     0.75   0.75   0.25
V49     V     0.9055   0.0   0.2568
V50     V     0.0945   0.0   0.2568
V51     V     0.7432   0.9055   0.0
V52     V     0.7432   0.0945   0.0
V53     V     0.9055   0.0   0.7432
V54     V     0.0945   0.0   0.7432
Ti55     Ti     0.654   0.654   0.654
Ti56     Ti     0.846   0.846   0.846
Ce57     Ce     0.75   0.75   0.75
V58     V     0.0   0.7432   0.9055
V59     V     0.0   0.7432   0.0945
Er60     Er     0.8169   0.0   0.5
loop_
_geom_bond_atom_site_label_1
_geom_bond_atom_site_label_2
_geom_bond_distance
_geom_bond_site_symmetry_2
_ccdc_geom_bond_type
Er1     Er60    13.369   .     S
Er1     Er5    13.369   .     S
Er1     Er6    13.369   .     S
Er1     Er11    13.369   1_545     S
Er1     Er7    13.376   .     S
Er1     V13    9.454   .     S
Er1     V22    9.454   1_545     S
Er1     Ce29    13.144   .     S
Er1     Ce45    13.144   1_545     S
Er1     Ce20    13.144   .     S
Er1     Ce48    13.144   1_545     S
Er2     Er10    13.369   .     S
Er2     Er4    13.369   .     S
Er2     Er6    13.369   .     S
Er2     Er60    13.369   1_455     S
Er2     Er8    13.376   .     S
Er2     V15    9.454   .     S
Er2     V24    9.454   1_455     S
Er2     Ce37    13.144   .     S
Er2     Ce29    13.144   1_455     S
Er2     Ce20    13.144   .     S
Er2     Ce32    13.144   1_455     S
Er3     Er11    13.369   .     S
Er3     Er4    13.369   .     S
Er3     Er5    13.369   .     S
Er3     Er10    13.369   1_554     S
Er3     Er9    13.376   .     S
Er3     V17    9.454   .     S
Er3     V26    9.454   1_554     S
Er3     Ce37    13.144   1_554     S
Er3     Ce45    13.144   .     S
Er3     Ce20    13.144   .     S
Er3     Ce40    13.144   1_554     S
Er4     Er9    13.369   1_455     S
Er4     Er8    13.369   .     S
Er4     Er10    13.376   1_554     S
Er4     V59    9.454   .     S
Er4     V34    9.454   .     S
Er4     Ce48    13.144   1_455     S
Er4     Ce29    13.144   1_455     S
Er4     Ce20    13.144   .     S
Er4     Ce45    13.144   .     S
Er5     Er7    13.369   1_554     S
Er5     Er9    13.369   .     S
Er5     Er11    13.376   1_545     S
Er5     V52    9.454   .     S
Er5     V42    9.454   .     S
Er5     Ce32    13.144   1_554     S
Er5     Ce37    13.144   1_554     S
Er5     Ce20    13.144   .     S
Er5     Ce29    13.144   .     S
Er6     Er8    13.369   1_545     S
Er6     Er7    13.369   .     S
Er6     Er60    13.376   1_455     S
Er6     V54    9.454   .     S
Er6     V50    9.454   .     S
Er6     Ce20    13.144   .     S
Er6     Ce40    13.144   1_545     S
Er6     Ce37    13.144   .     S
Er6     Ce45    13.144   1_545     S
Er7     Er11    13.369   1_546     S
Er7     Er5    13.369   1_556     S
Er7     Er60    13.369   .     S
Er7     V12    9.454   .     S
Er7     V21    9.454   1_545     S
Er7     Ce57    13.144   1_545     S
Er7     Ce37    13.144   .     S
Er7     Ce40    13.144   1_545     S
Er7     Ce32    13.144   .     S
Er8     Er60    13.369   1_465     S
Er8     Er6    13.369   1_565     S
Er8     Er10    13.369   .     S
Er8     V14    9.454   .     S
Er8     V23    9.454   1_455     S
Er8     Ce57    13.144   1_455     S
Er8     Ce45    13.144   .     S
Er8     Ce48    13.144   1_455     S
Er8     Ce40    13.144   .     S
Er9     Er4    13.369   1_655     S
Er9     Er10    13.369   1_654     S
Er9     Er11    13.369   .     S
Er9     V16    9.454   .     S
Er9     V25    9.454   1_554     S
Er9     Ce57    13.144   1_554     S
Er9     Ce29    13.144   .     S
Er9     Ce48    13.144   .     S
Er9     Ce32    13.144   1_554     S
Er10     Er9    13.369   1_456     S
Er10     Er3    13.369   1_556     S
Er10     Er4    13.376   1_556     S
Er10     V58    9.454   .     S
Er10     V33    9.454   .     S
Er10     Ce40    13.144   .     S
Er10     Ce32    13.144   1_455     S
Er10     Ce57    13.144   1_455     S
Er10     Ce37    13.144   .     S
Er11     Er7    13.369   1_564     S
Er11     Er1    13.369   1_565     S
Er11     Er5    13.376   1_565     S
Er11     V51    9.454   .     S
Er11     V41    9.454   .     S
Er11     Ce40    13.144   1_554     S
Er11     Ce57    13.144   1_554     S
Er11     Ce48    13.144   .     S
Er11     Ce45    13.144   .     S
V12     Ti35    7.104   .     S
V12     Ti30    7.104   .     S
V12     V13    6.903   .     S
V13     Ti19    7.104   .     S
V13     Ti27    7.104   .     S
V14     Ti43    7.104   .     S
V14     Ti38    7.104   .     S
V14     V15    6.903   .     S
V15     Ti19    7.104   .     S
V15     Ti35    7.104   .     S
V16     Ti27    7.104   .     S
V16     Ti46    7.104   .     S
V16     V17    6.903   .     S
V17     Ti19    7.104   .     S
V17     Ti43    7.104   .     S
Ti18     Ce20    6.076   .     S
Ti18     V34    7.104   .     S
Ti18     V42    7.104   .     S
Ti18     V50    7.104   .     S
Ti19     Ce20    6.076   .     S
V21     Ti38    7.104   .     S
V21     Ti55    7.104   .     S
V21     Er7    9.454   1_565     S
V21     V22    6.903   .     S
V22     Ti43    7.104   .     S
V22     Ti46    7.104   .     S
V22     Er1    9.454   1_565     S
V23     Ti46    7.104   .     S
V23     Ti55    7.104   .     S
V23     Er8    9.454   1_655     S
V23     V24    6.903   .     S
V24     Ti27    7.104   .     S
V24     Ti30    7.104   .     S
V24     Er2    9.454   1_655     S
V25     Ti30    7.104   .     S
V25     Ti55    7.104   .     S
V25     Er9    9.454   1_556     S
V25     V26    6.903   .     S
V26     Ti35    7.104   .     S
V26     Ti38    7.104   .     S
V26     Er3    9.454   1_556     S
Ti27     Ce29    6.076   .     S
Ti28     Ce29    6.076   .     S
Ti28     V34    7.104   1_655     S
Ti28     V49    7.104   .     S
Ti28     V52    7.104   .     S
Ce29     Er2    13.144   1_655     S
Ce29     Er4    13.144   1_655     S
Ce29     Er60    13.144   .     S
Ti30     Ce32    6.076   .     S
Ti31     Ce32    6.076   .     S
Ti31     V33    7.104   1_655     S
Ti31     V52    7.104   1_556     S
Ti31     V53    7.104   .     S
Ce32     Er2    13.144   1_655     S
Ce32     Er5    13.144   1_556     S
Ce32     Er9    13.144   1_556     S
Ce32     Er10    13.144   1_655     S
Ce32     Er60    13.144   .     S
V33     Ti36    7.104   .     S
V33     Ti31    7.104   1_455     S
V33     V34    6.903   1_556     S
V34     Ti28    7.104   1_455     S
V34     V33    6.903   1_554     S
Ti35     Ce37    6.076   .     S
Ti36     Ce37    6.076   .     S
Ti36     V42    7.104   1_556     S
Ti36     V54    7.104   .     S
Ce37     Er3    13.144   1_556     S
Ce37     Er5    13.144   1_556     S
Ti38     Ce40    6.076   .     S
Ti39     Ce40    6.076   .     S
Ti39     V41    7.104   1_556     S
Ti39     V54    7.104   1_565     S
Ti39     V58    7.104   .     S
Ce40     Er3    13.144   1_556     S
Ce40     Er6    13.144   1_565     S
Ce40     Er11    13.144   1_556     S
Ce40     Er7    13.144   1_565     S
V41     Ti44    7.104   .     S
V41     Ti39    7.104   1_554     S
V41     V42    6.903   1_565     S
V42     Ti36    7.104   1_554     S
V42     V41    6.903   1_545     S
Ti43     Ce45    6.076   .     S
Ti44     Ce45    6.076   .     S
Ti44     V50    7.104   1_565     S
Ti44     V59    7.104   .     S
Ce45     Er1    13.144   1_565     S
Ce45     Er6    13.144   1_565     S
Ti46     Ce48    6.076   .     S
Ti47     Ce48    6.076   .     S
Ti47     V49    7.104   1_565     S
Ti47     V51    7.104   .     S
Ti47     V59    7.104   1_655     S
Ce48     Er1    13.144   1_565     S
Ce48     Er4    13.144   1_655     S
Ce48     Er60    13.144   1_565     S
Ce48     Er8    13.144   1_655     S
V49     Ti47    7.104   1_545     S
V49     Er60    9.454   .     S
V49     V50    6.903   1_655     S
V50     Ti44    7.104   1_545     S
V50     V49    6.903   1_455     S
V51     Ti56    7.104   1_554     S
V51     V52    6.903   1_565     S
V52     Ti31    7.104   1_554     S
V52     V51    6.903   1_545     S
V53     Ti56    7.104   1_545     S
V53     Er60    9.454   .     S
V53     V54    6.903   1_655     S
V54     Ti39    7.104   1_545     S
V54     V53    6.903   1_455     S
Ti55     Ce57    6.076   .     S
Ti56     Ce57    6.076   .     S
Ti56     V51    7.104   1_556     S
Ti56     V53    7.104   1_565     S
Ti56     V58    7.104   1_655     S
Ce57     Er60    13.144   1_565     S
Ce57     Er11    13.144   1_556     S
Ce57     Er9    13.144   1_556     S
Ce57     Er8    13.144   1_655     S
Ce57     Er10    13.144   1_655     S
Ce57     Er7    13.144   1_565     S
V58     Ti56    7.104   1_455     S
V58     V59    6.903   1_556     S
V59     Ti47    7.104   1_455     S
V59     V58    6.903   1_554     S
Er60     Er8    13.369   1_645     S
Er60     Er2    13.369   1_655     S
Er60     Er6    13.376   1_655     S
Er60     Ce48    13.144   1_545     S
Er60     Ce57    13.144   1_545     S
