data_lwga
_audit_creation_date              2020-02-02
_audit_creation_method            'Pymatgen'
_symmetry_space_group_name_H-M    'P1'
_symmetry_Int_Tables_number       1
loop_
_symmetry_equiv_pos_as_xyz
  x,y,z
_cell_length_a                    83.1257
_cell_length_b                    83.1257
_cell_length_c                    116.5005
_cell_angle_alpha                 90.0
_cell_angle_beta                 90.0
_cell_angle_gamma                 90.0
loop_
_atom_site_label
_atom_site_type_symbol
_atom_site_fract_x
_atom_site_fract_y
_atom_site_fract_z
Er1     Er     0.2707   0.0602   0.6962
Er2     Er     0.2707   0.9398   0.6962
Er3     Er     0.7293   0.0602   0.6962
Er4     Er     0.7293   0.9398   0.6962
Er5     Er     0.2707   0.0602   0.3038
Er6     Er     0.2707   0.9398   0.3038
S7     S     0.6643   0.0   0.4571
Ce8     Ce     0.701   0.0   0.3753
S9     S     0.6643   0.0   0.5429
Ce10     Ce     0.701   0.0   0.6247
V11     V     0.5602   0.0   0.5
Ce12     Ce     0.299   0.0   0.3753
S13     S     0.3357   0.0   0.4571
Ce14     Ce     0.299   0.0   0.6247
S15     S     0.3357   0.0   0.5429
V16     V     0.4398   0.0   0.5
Er17     Er     0.7293   0.0602   0.3038
Er18     Er     0.7293   0.9398   0.3038
Ti19     Ti     0.6713   0.7564   0.2274
Ti20     Ti     0.7436   0.8287   0.2726
Ti21     Ti     0.7436   0.1713   0.2726
Ti22     Ti     0.6713   0.2436   0.2274
Ti23     Ti     0.7436   0.1713   0.7274
Ti24     Ti     0.6713   0.2436   0.7726
Ti25     Ti     0.3287   0.7564   0.2274
Ti26     Ti     0.2564   0.8287   0.2726
Ti27     Ti     0.6713   0.7564   0.7726
Ti28     Ti     0.7436   0.8287   0.7274
Ti29     Ti     0.2564   0.1713   0.2726
Ti30     Ti     0.3287   0.2436   0.2274
Ti31     Ti     0.3287   0.7564   0.7726
Ti32     Ti     0.2564   0.8287   0.7274
Ti33     Ti     0.2564   0.1713   0.7274
Ti34     Ti     0.3287   0.2436   0.7726
Er35     Er     0.5602   0.7707   0.1962
Er36     Er     0.4398   0.7707   0.1962
Er37     Er     0.5602   0.2293   0.1962
Er38     Er     0.4398   0.2293   0.1962
Er39     Er     0.4398   0.7707   0.8038
Er40     Er     0.5602   0.7707   0.8038
Er41     Er     0.5602   0.2293   0.8038
Er42     Er     0.4398   0.2293   0.8038
S43     S     0.5   0.1643   0.0429
Ce44     Ce     0.5   0.201   0.1247
S45     S     0.5   0.1643   0.9571
Ce46     Ce     0.5   0.201   0.8753
V47     V     0.5   0.0602   0.0
Ce48     Ce     0.5   0.799   0.1247
S49     S     0.5   0.8357   0.0429
S50     S     0.5   0.8357   0.9571
Ce51     Ce     0.5   0.799   0.8753
V52     V     0.5   0.9398   0.0
Er53     Er     0.0602   0.2707   0.6962
Er54     Er     0.9398   0.2707   0.6962
Er55     Er     0.0602   0.7293   0.6962
Er56     Er     0.9398   0.7293   0.6962
Er57     Er     0.0602   0.2707   0.3038
Er58     Er     0.9398   0.2707   0.3038
Ce59     Ce     0.0   0.299   0.3753
S60     S     0.0   0.3357   0.4571
Ce61     Ce     0.0   0.299   0.6247
S62     S     0.0   0.3357   0.5429
V63     V     0.0   0.4398   0.5
Ce64     Ce     0.0   0.701   0.3753
S65     S     0.0   0.6643   0.4571
S66     S     0.0   0.6643   0.5429
Ce67     Ce     0.0   0.701   0.6247
V68     V     0.0   0.5602   0.5
Er69     Er     0.0602   0.7293   0.3038
Er70     Er     0.9398   0.7293   0.3038
Ti71     Ti     0.1713   0.7436   0.2726
Ti72     Ti     0.2436   0.6713   0.2274
Ti73     Ti     0.7564   0.6713   0.2274
Ti74     Ti     0.8287   0.7436   0.2726
Ti75     Ti     0.7564   0.6713   0.7726
Ti76     Ti     0.8287   0.7436   0.7274
Ti77     Ti     0.7564   0.3287   0.2274
Ti78     Ti     0.8287   0.2564   0.2726
Ti79     Ti     0.1713   0.2564   0.2726
Ti80     Ti     0.2436   0.3287   0.2274
Ti81     Ti     0.1713   0.7436   0.7274
Ti82     Ti     0.2436   0.6713   0.7726
Ti83     Ti     0.1713   0.2564   0.7274
Ti84     Ti     0.2436   0.3287   0.7726
Ti85     Ti     0.7564   0.3287   0.7726
Ti86     Ti     0.8287   0.2564   0.7274
Er87     Er     0.7707   0.4398   0.1962
Er88     Er     0.7707   0.5602   0.1962
Er89     Er     0.2293   0.5602   0.1962
Er90     Er     0.2293   0.4398   0.1962
Er91     Er     0.7707   0.5602   0.8038
Er92     Er     0.7707   0.4398   0.8038
Er93     Er     0.2293   0.4398   0.8038
Er94     Er     0.2293   0.5602   0.8038
S95     S     0.1643   0.5   0.0429
Ce96     Ce     0.201   0.5   0.1247
S97     S     0.1643   0.5   0.9571
Ce98     Ce     0.201   0.5   0.8753
V99     V     0.0602   0.5   0.0
Ce100     Ce     0.799   0.5   0.1247
S101     S     0.8357   0.5   0.0429
S102     S     0.8357   0.5   0.9571
Ce103     Ce     0.799   0.5   0.8753
V104     V     0.9398   0.5   0.0
loop_
_geom_bond_atom_site_label_1
_geom_bond_atom_site_label_2
_geom_bond_distance
_geom_bond_site_symmetry_2
_ccdc_geom_bond_type
Er1     Ti33    10.0   .     S
Er1     Er2    10.0   1_545     S
Er1     Ce14    10.0   .     S
Er2     Ti32    10.0   .     S
Er2     Er1    10.0   1_565     S
Er2     Ce14    10.0   1_565     S
Er3     Ti23    10.0   .     S
Er3     Er4    10.0   1_545     S
Er3     Ce10    10.0   .     S
Er4     Ti28    10.0   .     S
Er4     Er3    10.0   1_565     S
Er4     Ce10    10.0   1_565     S
Er5     Ti29    10.0   .     S
Er5     Er6    10.0   1_545     S
Er5     Ce12    10.0   .     S
Er6     Ti26    10.0   .     S
Er6     Er5    10.0   1_565     S
Er6     Ce12    10.0   1_565     S
S7     Ce8    10.0   .     S
S7     V11    10.0   .     S
S7     S9    10.0   .     S
Ce8     Er17    10.0   .     S
Ce8     Er18    10.0   1_545     S
S9     Ce10    10.0   .     S
S9     V11    10.0   .     S
Ce10     Er4    10.0   1_545     S
V11     V16    10.0   .     S
Ce12     Er6    10.0   1_545     S
Ce12     S13    10.0   .     S
S13     V16    10.0   .     S
S13     S15    10.0   .     S
Ce14     Er2    10.0   1_545     S
Ce14     S15    10.0   .     S
S15     V16    10.0   .     S
Er17     Ti21    10.0   .     S
Er17     Er18    10.0   1_545     S
Er18     Ce8    10.0   1_565     S
Er18     Ti20    10.0   .     S
Er18     Er17    10.0   1_565     S
Ti19     Ti20    9.999   .     S
Ti19     Er35    10.0   .     S
Ti19     Ti73    10.001   .     S
Ti20     Ti74    10.001   .     S
Ti21     Ti22    9.999   .     S
Ti21     Ti78    10.001   .     S
Ti22     Er37    10.0   .     S
Ti22     Ti77    10.001   .     S
Ti23     Ti24    9.999   .     S
Ti23     Ti86    10.001   .     S
Ti24     Er41    10.0   .     S
Ti24     Ti85    10.001   .     S
Ti25     Ti26    9.999   .     S
Ti25     Er36    10.0   .     S
Ti25     Ti72    10.001   .     S
Ti26     Ti71    10.001   .     S
Ti27     Ti28    9.999   .     S
Ti27     Er40    10.0   .     S
Ti27     Ti75    10.001   .     S
Ti28     Ti76    10.001   .     S
Ti29     Ti30    9.999   .     S
Ti29     Ti79    10.001   .     S
Ti30     Er38    10.0   .     S
Ti30     Ti80    10.001   .     S
Ti31     Ti32    9.999   .     S
Ti31     Er39    10.0   .     S
Ti31     Ti82    10.001   .     S
Ti32     Ti81    10.001   .     S
Ti33     Ti34    9.999   .     S
Ti33     Ti83    10.001   .     S
Ti34     Er42    10.0   .     S
Ti34     Ti84    10.001   .     S
Er35     Er36    10.0   .     S
Er35     Ce48    10.0   .     S
Er36     Ce48    10.0   .     S
Er37     Er38    10.0   .     S
Er37     Ce44    10.0   .     S
Er38     Ce44    10.0   .     S
Er39     Er40    10.0   .     S
Er39     Ce51    10.0   .     S
Er40     Ce51    10.0   .     S
Er41     Er42    10.0   .     S
Er41     Ce46    10.0   .     S
Er42     Ce46    10.0   .     S
S43     Ce44    10.0   .     S
S43     V47    10.0   .     S
S43     S45    10.0   1_554     S
S45     Ce46    10.0   .     S
S45     V47    10.0   1_556     S
S45     S43    10.0   1_556     S
V47     S45    10.0   1_554     S
V47     V52    10.0   1_545     S
Ce48     S49    10.0   .     S
S49     S50    10.0   1_554     S
S49     V52    10.0   .     S
S50     Ce51    10.0   .     S
S50     V52    10.0   1_556     S
S50     S49    10.0   1_556     S
V52     S50    10.0   1_554     S
V52     V47    10.0   1_565     S
Er53     Ti83    10.0   .     S
Er53     Er54    10.0   1_455     S
Er53     Ce61    10.0   .     S
Er54     Ti86    10.0   .     S
Er54     Er53    10.0   1_655     S
Er54     Ce61    10.0   1_655     S
Er55     Ti81    10.0   .     S
Er55     Er56    10.0   1_455     S
Er55     Ce67    10.0   .     S
Er56     Ti76    10.0   .     S
Er56     Er55    10.0   1_655     S
Er56     Ce67    10.0   1_655     S
Er57     Ti79    10.0   .     S
Er57     Er58    10.0   1_455     S
Er57     Ce59    10.0   .     S
Er58     Ti78    10.0   .     S
Er58     Er57    10.0   1_655     S
Er58     Ce59    10.0   1_655     S
Ce59     Er58    10.0   1_455     S
Ce59     S60    10.0   .     S
S60     V63    10.0   .     S
S60     S62    10.0   .     S
Ce61     Er54    10.0   1_455     S
Ce61     S62    10.0   .     S
S62     V63    10.0   .     S
V63     V68    10.0   .     S
Ce64     Er70    10.0   1_455     S
Ce64     Er69    10.0   .     S
Ce64     S65    10.0   .     S
S65     V68    10.0   .     S
S65     S66    10.0   .     S
S66     Ce67    10.0   .     S
S66     V68    10.0   .     S
Ce67     Er56    10.0   1_455     S
Er69     Ti71    10.0   .     S
Er69     Er70    10.0   1_455     S
Er70     Ce64    10.0   1_655     S
Er70     Ti74    10.0   .     S
Er70     Er69    10.0   1_655     S
Ti71     Ti72    9.999   .     S
Ti72     Er89    10.0   .     S
Ti73     Ti74    9.999   .     S
Ti73     Er88    10.0   .     S
Ti75     Ti76    9.999   .     S
Ti75     Er91    10.0   .     S
Ti77     Ti78    9.999   .     S
Ti77     Er87    10.0   .     S
Ti79     Ti80    9.999   .     S
Ti80     Er90    10.0   .     S
Ti81     Ti82    9.999   .     S
Ti82     Er94    10.0   .     S
Ti83     Ti84    9.999   .     S
Ti84     Er93    10.0   .     S
Ti85     Ti86    9.999   .     S
Ti85     Er92    10.0   .     S
Er87     Er88    10.0   .     S
Er87     Ce100    10.0   .     S
Er88     Ce100    10.0   .     S
Er89     Er90    10.0   .     S
Er89     Ce96    10.0   .     S
Er90     Ce96    10.0   .     S
Er91     Er92    10.0   .     S
Er91     Ce103    10.0   .     S
Er92     Ce103    10.0   .     S
Er93     Er94    10.0   .     S
Er93     Ce98    10.0   .     S
Er94     Ce98    10.0   .     S
S95     Ce96    10.0   .     S
S95     V99    10.0   .     S
S95     S97    10.0   1_554     S
S97     Ce98    10.0   .     S
S97     V99    10.0   1_556     S
S97     S95    10.0   1_556     S
V99     S97    10.0   1_554     S
V99     V104    10.0   1_455     S
Ce100     S101    10.0   .     S
S101     S102    10.0   1_554     S
S101     V104    10.0   .     S
S102     Ce103    10.0   .     S
S102     V104    10.0   1_556     S
S102     S101    10.0   1_556     S
V104     S102    10.0   1_554     S
V104     V99    10.0   1_655     S
