data_lxx
_audit_creation_date              2020-02-02
_audit_creation_method            'Pymatgen'
_symmetry_space_group_name_H-M    'P1'
_symmetry_Int_Tables_number       1
loop_
_symmetry_equiv_pos_as_xyz
  x,y,z
_cell_length_a                    28.9878
_cell_length_b                    28.9878
_cell_length_c                    88.2812
_cell_angle_alpha                 90.0
_cell_angle_beta                 90.0
_cell_angle_gamma                 90.0
loop_
_atom_site_label
_atom_site_type_symbol
_atom_site_fract_x
_atom_site_fract_y
_atom_site_fract_z
V1     V     0.1909   0.7064   0.8064
Ti2     Ti     0.4789   0.8284   0.8534
Ti3     Ti     0.5211   0.1716   0.8534
V4     V     0.8091   0.2936   0.8064
Er5     Er     0.0932   0.8554   0.7093
Er6     Er     0.9068   0.1446   0.7093
V7     V     0.3091   0.7064   0.9436
Ti8     Ti     0.0211   0.8284   0.8966
V9     V     0.6909   0.2936   0.9436
Ti10     Ti     0.9789   0.1716   0.8966
Er11     Er     0.4068   0.8554   0.0407
Er12     Er     0.5932   0.1446   0.0407
V13     V     0.2064   0.1909   0.5564
Ti14     Ti     0.3284   0.4789   0.6034
Ti15     Ti     0.6716   0.5211   0.6034
V16     V     0.7936   0.8091   0.5564
Er17     Er     0.3554   0.0932   0.4594
Er18     Er     0.6446   0.9068   0.4594
V19     V     0.2064   0.3091   0.6936
Ti20     Ti     0.3284   0.0211   0.6466
V21     V     0.7936   0.6909   0.6936
Ti22     Ti     0.6716   0.9789   0.6466
Er23     Er     0.3554   0.4068   0.7906
Er24     Er     0.6446   0.5932   0.7906
Ti25     Ti     0.1716   0.0211   0.1034
V26     V     0.2936   0.3091   0.0564
Ti27     Ti     0.8284   0.9789   0.1034
V28     V     0.7064   0.6909   0.0564
Er29     Er     0.1446   0.4068   0.9594
Er30     Er     0.8554   0.5932   0.9594
V31     V     0.2936   0.1909   0.1936
Ti32     Ti     0.1716   0.4789   0.1466
Ti33     Ti     0.8284   0.5211   0.1466
V34     V     0.7064   0.8091   0.1936
Er35     Er     0.1446   0.0932   0.2906
Er36     Er     0.8554   0.9068   0.2906
Ti37     Ti     0.9789   0.3284   0.3534
V38     V     0.6909   0.2064   0.3064
Ti39     Ti     0.0211   0.6716   0.3534
V40     V     0.3091   0.7936   0.3064
Er41     Er     0.4068   0.6446   0.2094
Er42     Er     0.5932   0.3554   0.2094
Ti43     Ti     0.5211   0.3284   0.3966
V44     V     0.8091   0.2064   0.4436
V45     V     0.1909   0.7936   0.4436
Ti46     Ti     0.4789   0.6716   0.3966
Er47     Er     0.0932   0.6446   0.5407
Er48     Er     0.9068   0.3554   0.5407
loop_
_geom_bond_atom_site_label_1
_geom_bond_atom_site_label_2
_geom_bond_distance
_geom_bond_site_symmetry_2
_ccdc_geom_bond_type
V1     Er23    10.007   .     S
V1     Ti8    10.007   .     S
V1     Er5    10.0   .     S
V1     Ti2    9.974   .     S
Ti2     V7    10.007   .     S
Ti2     Er24    10.014   .     S
Ti2     Ti3    10.022   1_565     S
Ti3     V9    10.007   .     S
Ti3     Er23    10.014   .     S
Ti3     Ti2    10.022   1_545     S
Ti3     V4    9.974   .     S
V4     Er24    10.007   .     S
V4     Ti10    10.007   .     S
V4     Er6    10.0   .     S
Er5     V21    10.007   1_455     S
Er5     Ti20    10.014   1_565     S
Er5     Er6    9.976   1_465     S
Er6     V19    10.007   1_655     S
Er6     Ti22    10.014   1_545     S
Er6     Er5    9.976   1_645     S
V7     Er29    10.007   .     S
V7     Er11    10.0   1_556     S
V7     Ti8    9.974   .     S
Ti8     Er30    10.014   1_455     S
Ti8     Ti10    10.022   1_465     S
V9     Er30    10.007   .     S
V9     Er12    10.0   1_556     S
V9     Ti10    9.974   .     S
Ti10     Er29    10.014   1_655     S
Ti10     Ti8    10.022   1_645     S
Er11     V28    10.007   .     S
Er11     Ti25    10.014   1_565     S
Er11     V7    10.0   1_554     S
Er11     Er12    9.976   1_565     S
Er12     V26    10.007   .     S
Er12     Ti27    10.014   1_545     S
Er12     V9    10.0   1_554     S
Er12     Er11    9.976   1_545     S
V13     Er48    10.007   1_455     S
V13     Ti20    10.007   .     S
V13     Er17    10.0   .     S
V13     Ti14    9.974   .     S
Ti14     V19    10.007   .     S
Ti14     Er47    10.014   .     S
Ti14     Ti15    10.022   .     S
Ti15     V21    10.007   .     S
Ti15     Er48    10.014   .     S
Ti15     V16    9.974   .     S
V16     Er47    10.007   1_655     S
V16     Ti22    10.007   .     S
V16     Er18    10.0   .     S
Er17     V45    10.007   1_545     S
Er17     Ti43    10.014   .     S
Er17     Er18    9.976   1_545     S
Er18     V44    10.007   1_565     S
Er18     Ti46    10.014   .     S
Er18     Er17    9.976   1_565     S
V19     Er6    10.007   1_455     S
V19     Er23    10.0   .     S
V19     Ti20    9.974   .     S
Ti20     Er5    10.014   1_545     S
Ti20     Ti22    10.022   1_545     S
V21     Er5    10.007   1_655     S
V21     Er24    10.0   .     S
V21     Ti22    9.974   .     S
Ti22     Er6    10.014   1_565     S
Ti22     Ti20    10.022   1_565     S
Er23     Er24    9.976   .     S
Ti25     V31    10.007   .     S
Ti25     Er11    10.014   1_545     S
Ti25     Ti27    10.022   1_445     S
Ti25     V26    9.974   .     S
V26     Ti32    10.007   .     S
V26     Er29    10.0   1_554     S
Ti27     V34    10.007   .     S
Ti27     Er12    10.014   1_565     S
Ti27     Ti25    10.022   1_665     S
Ti27     V28    9.974   .     S
V28     Ti33    10.007   .     S
V28     Er30    10.0   1_554     S
Er29     Ti10    10.014   1_455     S
Er29     V26    10.0   1_556     S
Er29     Er30    9.976   1_455     S
Er30     Ti8    10.014   1_655     S
Er30     V28    10.0   1_556     S
Er30     Er29    9.976   1_655     S
V31     Er42    10.007   .     S
V31     Er35    10.0   .     S
V31     Ti32    9.974   .     S
Ti32     Er41    10.014   .     S
Ti32     Ti33    10.022   1_455     S
Ti33     Er42    10.014   .     S
Ti33     Ti32    10.022   1_655     S
Ti33     V34    9.974   .     S
V34     Er41    10.007   .     S
V34     Er36    10.0   .     S
Er35     V40    10.007   1_545     S
Er35     Ti37    10.014   1_455     S
Er35     Er36    9.976   1_445     S
Er36     V38    10.007   1_565     S
Er36     Ti39    10.014   1_655     S
Er36     Er35    9.976   1_665     S
Ti37     V44    10.007   .     S
Ti37     Er35    10.014   1_655     S
Ti37     Ti39    10.022   1_655     S
Ti37     V38    9.974   .     S
V38     Er36    10.007   1_545     S
V38     Ti43    10.007   .     S
V38     Er42    10.0   .     S
Ti39     V45    10.007   .     S
Ti39     Er36    10.014   1_455     S
Ti39     Ti37    10.022   1_455     S
Ti39     V40    9.974   .     S
V40     Er35    10.007   1_565     S
V40     Ti46    10.007   .     S
V40     Er41    10.0   .     S
Er41     Er42    9.976   .     S
Ti43     Ti46    10.022   .     S
Ti43     V44    9.974   .     S
V44     Er18    10.007   1_545     S
V44     Er48    10.0   .     S
V45     Er17    10.007   1_565     S
V45     Er47    10.0   .     S
V45     Ti46    9.974   .     S
Er47     V16    10.007   1_455     S
Er47     Er48    9.976   1_455     S
Er48     V13    10.007   1_655     S
Er48     Er47    9.976   1_655     S
