data_maz
_audit_creation_date              2020-02-02
_audit_creation_method            'Pymatgen'
_symmetry_space_group_name_H-M    'P1'
_symmetry_Int_Tables_number       1
loop_
_symmetry_equiv_pos_as_xyz
  x,y,z
_cell_length_a                    58.4511
_cell_length_b                    58.4511
_cell_length_c                    24.8113
_cell_angle_alpha                 90.0
_cell_angle_beta                 90.0
_cell_angle_gamma                 120.0
loop_
_atom_site_label
_atom_site_type_symbol
_atom_site_fract_x
_atom_site_fract_y
_atom_site_fract_z
Er1     Er     0.1622   0.4956   0.75
Er2     Er     0.3333   0.4956   0.75
Er3     Er     0.1622   0.6667   0.75
Er4     Er     0.3333   0.8378   0.75
Er5     Er     0.5044   0.6667   0.75
Er6     Er     0.5044   0.8378   0.75
Er7     Er     0.4956   0.1622   0.25
Er8     Er     0.6667   0.1622   0.25
Er9     Er     0.8378   0.3333   0.25
Er10     Er     0.8378   0.5044   0.25
Er11     Er     0.6667   0.5044   0.25
Er12     Er     0.4956   0.3333   0.25
V13     V     0.3628   0.0959   0.9515
V14     V     0.267   0.9041   0.0485
V15     V     0.9041   0.267   0.9515
V16     V     0.0959   0.3628   0.0485
V17     V     0.733   0.0959   0.9515
V18     V     0.6372   0.9041   0.0485
V19     V     0.0959   0.733   0.0485
V20     V     0.9041   0.6372   0.9515
V21     V     0.733   0.6372   0.9515
V22     V     0.6372   0.733   0.0485
V23     V     0.3628   0.267   0.9515
V24     V     0.267   0.3628   0.0485
V25     V     0.3628   0.0959   0.5485
V26     V     0.267   0.9041   0.4515
V27     V     0.9041   0.267   0.5485
V28     V     0.0959   0.3628   0.4515
V29     V     0.733   0.0959   0.5485
V30     V     0.6372   0.9041   0.4515
V31     V     0.0959   0.733   0.4515
V32     V     0.9041   0.6372   0.5485
V33     V     0.733   0.6372   0.5485
V34     V     0.6372   0.733   0.4515
V35     V     0.3628   0.267   0.5485
V36     V     0.267   0.3628   0.4515
loop_
_geom_bond_atom_site_label_1
_geom_bond_atom_site_label_2
_geom_bond_distance
_geom_bond_site_symmetry_2
_ccdc_geom_bond_type
Er1     V28    10.0   .     S
Er1     V16    10.0   1_556     S
Er1     Er2    10.0   .     S
Er1     Er3    10.0   .     S
Er2     Er5    10.0   .     S
Er2     V36    10.0   .     S
Er2     V24    10.0   1_556     S
Er3     V31    10.0   .     S
Er3     V19    10.0   1_556     S
Er3     Er4    10.0   .     S
Er4     Er6    10.0   .     S
Er4     V26    10.0   .     S
Er4     V14    10.0   1_556     S
Er5     V34    10.0   .     S
Er5     V22    10.0   1_556     S
Er5     Er6    10.0   .     S
Er6     V30    10.0   .     S
Er6     V18    10.0   1_556     S
Er7     V13    10.0   1_554     S
Er7     V25    10.0   .     S
Er7     Er12    10.0   .     S
Er7     Er8    10.0   .     S
Er8     V29    10.0   .     S
Er8     V17    10.0   1_554     S
Er8     Er9    10.0   .     S
Er9     Er10    10.0   .     S
Er9     V15    10.0   1_554     S
Er9     V27    10.0   .     S
Er10     V32    10.0   .     S
Er10     V20    10.0   1_554     S
Er10     Er11    10.0   .     S
Er11     V21    10.0   1_554     S
Er11     V33    10.0   .     S
Er11     Er12    10.0   .     S
Er12     V35    10.0   .     S
Er12     V23    10.0   1_554     S
V13     Er7    10.0   1_556     S
V13     V14    10.0   1_546     S
V13     V23    10.0   .     S
V13     V25    10.0   .     S
V14     Er4    10.0   1_554     S
V14     V19    10.0   .     S
V14     V13    10.0   1_564     S
V14     V26    10.0   .     S
V15     Er9    10.0   1_556     S
V15     V17    10.0   .     S
V15     V16    10.0   1_656     S
V15     V27    10.0   .     S
V16     Er1    10.0   1_554     S
V16     V15    10.0   1_454     S
V16     V24    10.0   .     S
V16     V28    10.0   .     S
V17     Er8    10.0   1_556     S
V17     V18    10.0   1_546     S
V17     V29    10.0   .     S
V18     Er6    10.0   1_554     S
V18     V22    10.0   .     S
V18     V17    10.0   1_564     S
V18     V30    10.0   .     S
V19     Er3    10.0   1_554     S
V19     V20    10.0   1_454     S
V19     V31    10.0   .     S
V20     Er10    10.0   1_556     S
V20     V19    10.0   1_656     S
V20     V21    10.0   .     S
V20     V32    10.0   .     S
V21     Er11    10.0   1_556     S
V21     V22    10.0   1_556     S
V21     V33    10.0   .     S
V22     Er5    10.0   1_554     S
V22     V21    10.0   1_554     S
V22     V34    10.0   .     S
V23     Er12    10.0   1_556     S
V23     V24    10.0   1_556     S
V23     V35    10.0   .     S
V24     Er2    10.0   1_554     S
V24     V23    10.0   1_554     S
V24     V36    10.0   .     S
V25     V26    10.0   1_545     S
V25     V35    10.0   .     S
V26     V31    10.0   .     S
V26     V25    10.0   1_565     S
V27     V29    10.0   .     S
V27     V28    10.0   1_655     S
V28     V27    10.0   1_455     S
V28     V36    10.0   .     S
V29     V30    10.0   1_545     S
V30     V34    10.0   .     S
V30     V29    10.0   1_565     S
V31     V32    10.0   1_455     S
V32     V31    10.0   1_655     S
V32     V33    10.0   .     S
V33     V34    10.0   .     S
V35     V36    10.0   .     S
