data_mcf
_audit_creation_date              2020-02-02
_audit_creation_method            'Pymatgen'
_symmetry_space_group_name_H-M    'P1'
_symmetry_Int_Tables_number       1
loop_
_symmetry_equiv_pos_as_xyz
  x,y,z
_cell_length_a                    18.8442
_cell_length_b                    26.7001
_cell_length_c                    18.8444
_cell_angle_alpha                 90.0
_cell_angle_beta                 90.0
_cell_angle_gamma                 90.0
loop_
_atom_site_label
_atom_site_type_symbol
_atom_site_fract_x
_atom_site_fract_y
_atom_site_fract_z
V1     V     0.5   0.8127   0.0
V2     V     0.5   0.1873   0.0
Er3     Er     0.5   0.6873   0.5
Er4     Er     0.5   0.3127   0.5
Er5     Er     0.0   0.8127   0.5
Er6     Er     0.0   0.1873   0.5
V7     V     0.0   0.6873   0.0
V8     V     0.0   0.3127   0.0
loop_
_geom_bond_atom_site_label_1
_geom_bond_atom_site_label_2
_geom_bond_distance
_geom_bond_site_symmetry_2
_ccdc_geom_bond_type
V1     V2    10.0   1_565     S
V1     Er3    10.0   .     S
V1     Er3    10.0   1_554     S
V2     V1    10.0   1_545     S
V2     Er4    10.0   .     S
V2     Er4    10.0   1_554     S
Er3     Er4    10.0   .     S
Er3     Er5    10.0   1_655     S
Er3     Er5    10.0   .     S
Er3     V1    10.0   1_556     S
Er4     Er6    10.0   .     S
Er4     Er6    10.0   1_655     S
Er4     V2    10.0   1_556     S
Er5     Er6    10.0   1_565     S
Er5     Er3    10.0   1_455     S
Er5     V7    10.0   .     S
Er5     V7    10.0   1_556     S
Er6     Er5    10.0   1_545     S
Er6     Er4    10.0   1_455     S
Er6     V8    10.0   .     S
Er6     V8    10.0   1_556     S
V7     V8    10.0   .     S
V7     Er5    10.0   1_554     S
V8     Er6    10.0   1_554     S
