data_mds
_audit_creation_date              2020-02-02
_audit_creation_method            'Pymatgen'
_symmetry_space_group_name_H-M    'P1'
_symmetry_Int_Tables_number       1
loop_
_symmetry_equiv_pos_as_xyz
  x,y,z
_cell_length_a                    34.094
_cell_length_b                    34.094
_cell_length_c                    83.1321
_cell_angle_alpha                 90.0
_cell_angle_beta                 90.0
_cell_angle_gamma                 120.0
loop_
_atom_site_label
_atom_site_type_symbol
_atom_site_fract_x
_atom_site_fract_y
_atom_site_fract_z
S1     S     0.2933   0.2933   0.3332
S2     S     0.2933   0.0   0.3332
S3     S     0.0   0.2933   0.3332
S4     S     0.0   0.7067   0.3332
S5     S     0.7067   0.7067   0.3332
S6     S     0.7067   0.0   0.3332
S7     S     0.2933   0.2933   0.6668
S8     S     0.2933   0.0   0.6668
S9     S     0.0   0.2933   0.6668
S10     S     0.7067   0.0   0.6668
S11     S     0.7067   0.7067   0.6668
S12     S     0.0   0.7067   0.6668
He13     He     0.6667   0.3333   0.5601
He14     He     0.6667   0.3333   0.4399
H15     H     0.5   0.5   0.4186
H16     H     0.5   0.5   0.5814
He17     He     0.3333   0.6667   0.4399
He18     He     0.3333   0.6667   0.5601
H19     H     0.5   0.0   0.5814
H20     H     0.5   0.0   0.4186
H21     H     0.0   0.5   0.4186
H22     H     0.0   0.5   0.5814
V23     V     0.6613   0.8307   0.0
V24     V     0.8307   0.6613   0.0
V25     V     0.1693   0.3387   0.0
V26     V     0.3387   0.1693   0.0
V27     V     0.8307   0.1693   0.0
V28     V     0.1693   0.8307   0.0
Ce29     Ce     0.3333   0.6667   0.0601
Ce30     Ce     0.3333   0.6667   0.9399
Er31     Er     0.8138   0.1862   0.1197
Er32     Er     0.3724   0.1862   0.1197
Ti33     Ti     0.6466   0.6466   0.2155
Ti34     Ti     0.3534   0.3534   0.2155
Er35     Er     0.6276   0.8138   0.1197
Er36     Er     0.1862   0.3724   0.1197
Ti37     Ti     0.6466   0.0   0.2155
Ti38     Ti     0.3534   0.0   0.2155
Er39     Er     0.8138   0.6276   0.1197
Ti40     Ti     0.0   0.6466   0.2155
Ti41     Ti     0.0   0.3534   0.2155
Er42     Er     0.1862   0.8138   0.1197
Ce43     Ce     0.6667   0.3333   0.0601
Ce44     Ce     0.6667   0.3333   0.9399
Ti45     Ti     0.6466   0.0   0.7845
Ti46     Ti     0.3534   0.0   0.7845
Er47     Er     0.3724   0.1862   0.8803
Ti48     Ti     0.6466   0.6466   0.7845
Ti49     Ti     0.3534   0.3534   0.7845
Er50     Er     0.6276   0.8138   0.8803
Er51     Er     0.8138   0.6276   0.8803
Er52     Er     0.8138   0.1862   0.8803
Er53     Er     0.1862   0.3724   0.8803
Ti54     Ti     0.0   0.6466   0.7845
Ti55     Ti     0.0   0.3534   0.7845
Er56     Er     0.1862   0.8138   0.8803
loop_
_geom_bond_atom_site_label_1
_geom_bond_atom_site_label_2
_geom_bond_distance
_geom_bond_site_symmetry_2
_ccdc_geom_bond_type
S1     Ti34    10.001   .     S
S1     H15    10.0   .     S
S1     S2    10.0   .     S
S1     S3    10.0   .     S
S2     Ti38    10.001   .     S
S2     H20    10.0   .     S
S2     S4    10.0   1_545     S
S3     Ti41    10.001   .     S
S3     H21    10.0   .     S
S3     S6    10.0   1_455     S
S4     S2    10.0   1_565     S
S4     Ti40    10.001   .     S
S4     H21    10.0   .     S
S4     S5    10.0   1_455     S
S5     S4    10.0   1_655     S
S5     Ti33    10.001   .     S
S5     H15    10.0   .     S
S5     S6    10.0   1_565     S
S6     S5    10.0   1_545     S
S6     S3    10.0   1_655     S
S6     Ti37    10.001   .     S
S6     H20    10.0   .     S
S7     Ti49    10.001   .     S
S7     H16    10.0   .     S
S7     S8    10.0   .     S
S7     S9    10.0   .     S
S8     Ti46    10.001   .     S
S8     H19    10.0   .     S
S8     S12    10.0   1_545     S
S9     Ti55    10.001   .     S
S9     H22    10.0   .     S
S9     S10    10.0   1_455     S
S10     S9    10.0   1_655     S
S10     Ti45    10.001   .     S
S10     H19    10.0   .     S
S10     S11    10.0   1_545     S
S11     S10    10.0   1_565     S
S11     Ti48    10.001   .     S
S11     H16    10.0   .     S
S11     S12    10.0   1_655     S
S12     S8    10.0   1_565     S
S12     S11    10.0   1_455     S
S12     Ti54    10.001   .     S
S12     H22    10.0   .     S
He13     H22    10.0   1_655     S
He13     H16    10.0   .     S
He13     He14    9.999   .     S
He13     H19    10.0   .     S
He14     H21    10.0   1_655     S
He14     H15    10.0   .     S
He14     H20    10.0   .     S
H15     He17    10.0   .     S
H16     He18    10.0   .     S
He17     H20    10.0   1_565     S
He17     He18    9.999   .     S
He17     H21    10.0   .     S
He18     H19    10.0   1_565     S
He18     H22    10.0   .     S
H19     He18    10.0   1_545     S
H20     He17    10.0   1_545     S
H21     He14    10.0   1_455     S
H22     He13    10.0   1_455     S
V23     V24    10.0   .     S
V23     V27    10.0   1_565     S
V23     Er35    10.0   .     S
V23     Er50    10.0   1_554     S
V24     V28    10.0   1_655     S
V24     Er39    10.0   .     S
V24     Er51    10.0   1_554     S
V25     V26    10.0   .     S
V25     V27    10.0   1_455     S
V25     Er36    10.0   .     S
V25     Er53    10.0   1_554     S
V26     V28    10.0   1_545     S
V26     Er32    10.0   .     S
V26     Er47    10.0   1_554     S
V27     V25    10.0   1_655     S
V27     V23    10.0   1_545     S
V27     Er31    10.0   .     S
V27     Er52    10.0   1_554     S
V28     V26    10.0   1_565     S
V28     V24    10.0   1_455     S
V28     Er42    10.0   .     S
V28     Er56    10.0   1_554     S
Ce29     Ce30    9.999   1_554     S
Ce29     Er35    10.0   .     S
Ce29     Er36    10.0   .     S
Ce29     Er42    10.0   .     S
Ce30     Ce29    9.999   1_556     S
Ce30     Er50    10.0   .     S
Ce30     Er53    10.0   .     S
Ce30     Er56    10.0   .     S
Er31     Ce43    10.0   .     S
Er31     Ti37    10.0   .     S
Er31     Ti41    10.0   1_655     S
Er32     Ce43    10.0   .     S
Er32     Ti38    10.0   .     S
Er32     Ti34    10.0   .     S
Ti33     Ti34    10.0   .     S
Ti33     Er35    10.0   .     S
Ti33     Er39    10.0   .     S
Ti34     Er36    10.0   .     S
Er35     Ti37    10.0   1_565     S
Er36     Ti41    10.0   .     S
Ti37     Er35    10.0   1_545     S
Ti37     Ti38    10.0   .     S
Ti38     Er42    10.0   1_545     S
Er39     Ce43    10.0   .     S
Er39     Ti40    10.0   1_655     S
Ti40     Er39    10.0   1_455     S
Ti40     Ti41    10.0   .     S
Ti40     Er42    10.0   .     S
Ti41     Er31    10.0   1_455     S
Er42     Ti38    10.0   1_565     S
Ce43     Ce44    9.999   1_554     S
Ce44     Ce43    9.999   1_556     S
Ce44     Er47    10.0   .     S
Ce44     Er51    10.0   .     S
Ce44     Er52    10.0   .     S
Ti45     Ti46    10.0   .     S
Ti45     Er50    10.0   1_545     S
Ti45     Er52    10.0   .     S
Ti46     Er47    10.0   .     S
Ti46     Er56    10.0   1_545     S
Er47     V26    10.0   1_556     S
Er47     Ti49    10.0   .     S
Ti48     Ti49    10.0   .     S
Ti48     Er50    10.0   .     S
Ti48     Er51    10.0   .     S
Ti49     Er53    10.0   .     S
Er50     V23    10.0   1_556     S
Er50     Ti45    10.0   1_565     S
Er51     V24    10.0   1_556     S
Er51     Ti54    10.0   1_655     S
Er52     V27    10.0   1_556     S
Er52     Ti55    10.0   1_655     S
Er53     V25    10.0   1_556     S
Er53     Ti55    10.0   .     S
Ti54     Er51    10.0   1_455     S
Ti54     Ti55    10.0   .     S
Ti54     Er56    10.0   .     S
Ti55     Er52    10.0   1_455     S
Er56     V28    10.0   1_556     S
Er56     Ti46    10.0   1_565     S
