data_med
_audit_creation_date              2020-02-02
_audit_creation_method            'Pymatgen'
_symmetry_space_group_name_H-M    'P1'
_symmetry_Int_Tables_number       1
loop_
_symmetry_equiv_pos_as_xyz
  x,y,z
_cell_length_a                    44.0834
_cell_length_b                    44.0834
_cell_length_c                    84.8613
_cell_angle_alpha                 90.0
_cell_angle_beta                 90.0
_cell_angle_gamma                 90.0
loop_
_atom_site_label
_atom_site_type_symbol
_atom_site_fract_x
_atom_site_fract_y
_atom_site_fract_z
Ti1     Ti     0.2511   0.0   0.0
Er2     Er     0.6134   0.9993   0.0945
Er3     Er     0.3866   0.9993   0.0945
Ti4     Ti     0.7489   0.0   0.0
Er5     Er     0.3866   0.0007   0.9055
Er6     Er     0.6134   0.0007   0.9055
Er7     Er     0.6134   0.4993   0.9055
Er8     Er     0.3866   0.4993   0.9055
Ti9     Ti     0.2511   0.5   0.0
Ti10     Ti     0.7489   0.5   0.0
Er11     Er     0.6134   0.5007   0.0945
Er12     Er     0.3866   0.5007   0.0945
V13     V     0.6134   0.3634   0.8111
V14     V     0.6134   0.1366   0.8111
V15     V     0.3866   0.1366   0.8111
V16     V     0.3866   0.3634   0.8111
V17     V     0.3866   0.8634   0.1889
V18     V     0.6134   0.8634   0.1889
V19     V     0.6134   0.6366   0.1889
V20     V     0.3866   0.6366   0.1889
V21     V     0.1134   0.8634   0.9389
V22     V     0.8866   0.8634   0.9389
V23     V     0.8866   0.6366   0.9389
V24     V     0.1134   0.6366   0.9389
Ti25     Ti     0.75   0.9989   0.75
Er26     Er     0.7493   0.8634   0.6555
Er27     Er     0.7493   0.6366   0.6555
Ti28     Ti     0.75   0.5011   0.75
Er29     Er     0.7507   0.8634   0.8445
Er30     Er     0.7507   0.6366   0.8445
Ti31     Ti     0.25   0.9989   0.75
Er32     Er     0.2493   0.8634   0.8445
Er33     Er     0.2493   0.6366   0.8445
Ti34     Ti     0.25   0.5011   0.75
Er35     Er     0.2507   0.8634   0.6555
Er36     Er     0.2507   0.6366   0.6555
V37     V     0.6134   0.6366   0.5611
V38     V     0.6134   0.8634   0.5611
V39     V     0.3866   0.8634   0.5611
V40     V     0.3866   0.6366   0.5611
Ti41     Ti     0.7511   0.5   0.5
Er42     Er     0.8866   0.5007   0.4055
Er43     Er     0.1134   0.5007   0.4055
Ti44     Ti     0.2489   0.5   0.5
Er45     Er     0.8866   0.4993   0.5945
Er46     Er     0.1134   0.4993   0.5945
V47     V     0.8866   0.8634   0.3111
V48     V     0.1134   0.8634   0.3111
V49     V     0.8866   0.6366   0.3111
V50     V     0.1134   0.6366   0.3111
V51     V     0.8866   0.1366   0.6889
V52     V     0.1134   0.1366   0.6889
V53     V     0.8866   0.3634   0.6889
V54     V     0.1134   0.3634   0.6889
Ti55     Ti     0.7511   0.0   0.5
Er56     Er     0.8866   0.0007   0.5945
Er57     Er     0.1134   0.0007   0.5945
Ti58     Ti     0.2489   0.0   0.5
Er59     Er     0.8866   0.9993   0.4055
Er60     Er     0.1134   0.9993   0.4055
Ti61     Ti     0.75   0.0011   0.25
Er62     Er     0.7493   0.1366   0.3445
Er63     Er     0.7493   0.3634   0.3445
Ti64     Ti     0.75   0.4989   0.25
Er65     Er     0.7507   0.1366   0.1555
Er66     Er     0.7507   0.3634   0.1555
Er67     Er     0.2493   0.1366   0.1555
Er68     Er     0.2493   0.3634   0.1555
Ti69     Ti     0.25   0.4989   0.25
Ti70     Ti     0.25   0.0011   0.25
Er71     Er     0.2507   0.1366   0.3445
Er72     Er     0.2507   0.3634   0.3445
V73     V     0.6134   0.3634   0.4389
V74     V     0.6134   0.1366   0.4389
V75     V     0.3866   0.1366   0.4389
V76     V     0.3866   0.3634   0.4389
V77     V     0.8866   0.1366   0.0611
V78     V     0.1134   0.1366   0.0611
V79     V     0.8866   0.3634   0.0611
V80     V     0.1134   0.3634   0.0611
loop_
_geom_bond_atom_site_label_1
_geom_bond_atom_site_label_2
_geom_bond_distance
_geom_bond_site_symmetry_2
_ccdc_geom_bond_type
Ti1     Er3    10.0   1_545     S
Ti1     Er5    10.0   1_554     S
Ti1     V21    10.0   1_544     S
Ti1     V78    10.0   .     S
Er2     Er3    10.0   .     S
Er2     Ti4    10.0   1_565     S
Er2     V18    10.0   .     S
Er2     Er65    10.0   1_565     S
Er3     Ti1    10.0   1_565     S
Er3     V17    10.0   .     S
Er3     Er67    10.0   1_565     S
Ti4     Er2    10.0   1_545     S
Ti4     Er6    10.0   1_554     S
Ti4     V22    10.0   1_544     S
Ti4     V77    10.0   .     S
Er5     Ti1    10.0   1_556     S
Er5     Er6    10.0   .     S
Er5     V15    10.0   .     S
Er5     Er32    10.0   1_545     S
Er6     Ti4    10.0   1_556     S
Er6     V14    10.0   .     S
Er6     Er29    10.0   1_545     S
Er7     Er8    10.0   .     S
Er7     Ti10    10.0   1_556     S
Er7     V13    10.0   .     S
Er7     Er30    10.0   .     S
Er8     Ti9    10.0   1_556     S
Er8     V16    10.0   .     S
Er8     Er33    10.0   .     S
Ti9     Er12    10.0   .     S
Ti9     Er8    10.0   1_554     S
Ti9     V24    10.0   1_554     S
Ti9     V80    10.0   .     S
Ti10     Er7    10.0   1_554     S
Ti10     Er11    10.0   .     S
Ti10     V23    10.0   1_554     S
Ti10     V79    10.0   .     S
Er11     Er12    10.0   .     S
Er11     V19    10.0   .     S
Er11     Er66    10.0   .     S
Er12     V20    10.0   .     S
Er12     Er68    10.0   .     S
V13     V16    10.0   .     S
V13     V14    10.0   .     S
V13     Ti28    10.0   .     S
V14     V15    10.0   .     S
V14     Ti25    10.0   1_545     S
V15     V16    10.0   .     S
V15     Ti31    10.0   1_545     S
V16     Ti34    10.0   .     S
V17     V20    10.0   .     S
V17     V18    10.0   .     S
V17     Ti70    10.0   1_565     S
V18     V19    10.0   .     S
V18     Ti61    10.0   1_565     S
V19     V20    10.0   .     S
V19     Ti64    10.0   .     S
V20     Ti69    10.0   .     S
V21     V24    10.0   .     S
V21     V22    10.0   1_455     S
V21     Er32    10.0   .     S
V21     Ti1    10.0   1_566     S
V22     V21    10.0   1_655     S
V22     V23    10.0   .     S
V22     Er29    10.0   .     S
V22     Ti4    10.0   1_566     S
V23     V24    10.0   1_655     S
V23     Er30    10.0   .     S
V23     Ti10    10.0   1_556     S
V24     V23    10.0   1_455     S
V24     Er33    10.0   .     S
V24     Ti9    10.0   1_556     S
Ti25     V14    10.0   1_565     S
Ti25     Er29    10.0   .     S
Ti25     Er26    10.0   .     S
Ti25     V51    10.0   1_565     S
Er26     Er27    10.0   .     S
Er26     V38    10.0   .     S
Er26     Er56    10.0   1_565     S
Er27     Ti28    10.0   .     S
Er27     V37    10.0   .     S
Er27     Er45    10.0   .     S
Ti28     Er30    10.0   .     S
Ti28     V53    10.0   .     S
Er29     Er6    10.0   1_565     S
Er29     Er30    10.0   .     S
Ti31     V15    10.0   1_565     S
Ti31     Er32    10.0   .     S
Ti31     Er35    10.0   .     S
Ti31     V52    10.0   1_565     S
Er32     Er5    10.0   1_565     S
Er32     Er33    10.0   .     S
Er33     Ti34    10.0   .     S
Ti34     Er36    10.0   .     S
Ti34     V54    10.0   .     S
Er35     Er36    10.0   .     S
Er35     V39    10.0   .     S
Er35     Er57    10.0   1_565     S
Er36     V40    10.0   .     S
Er36     Er46    10.0   .     S
V37     V40    10.0   .     S
V37     V38    10.0   .     S
V37     Ti41    10.0   .     S
V38     V39    10.0   .     S
V38     Ti55    10.0   1_565     S
V39     V40    10.0   .     S
V39     Ti58    10.0   1_565     S
V40     Ti44    10.0   .     S
Ti41     Er45    10.0   .     S
Ti41     Er42    10.0   .     S
Ti41     V73    10.0   .     S
Er42     Er43    10.0   1_655     S
Er42     V49    10.0   .     S
Er42     Er63    10.0   .     S
Er43     Er42    10.0   1_455     S
Er43     Ti44    10.0   .     S
Er43     V50    10.0   .     S
Er43     Er72    10.0   .     S
Ti44     Er46    10.0   .     S
Ti44     V76    10.0   .     S
Er45     Er46    10.0   1_655     S
Er45     V53    10.0   .     S
Er46     Er45    10.0   1_455     S
Er46     V54    10.0   .     S
V47     V49    10.0   .     S
V47     V48    10.0   1_655     S
V47     Er59    10.0   .     S
V47     Ti61    10.0   1_565     S
V48     V47    10.0   1_455     S
V48     V50    10.0   .     S
V48     Er60    10.0   .     S
V48     Ti70    10.0   1_565     S
V49     V50    10.0   1_655     S
V49     Ti64    10.0   .     S
V50     V49    10.0   1_455     S
V50     Ti69    10.0   .     S
V51     V52    10.0   1_655     S
V51     V53    10.0   .     S
V51     Er56    10.0   .     S
V51     Ti25    10.0   1_545     S
V52     V51    10.0   1_455     S
V52     V54    10.0   .     S
V52     Er57    10.0   .     S
V52     Ti31    10.0   1_545     S
V53     V54    10.0   1_655     S
V54     V53    10.0   1_455     S
Ti55     V38    10.0   1_545     S
Ti55     Er59    10.0   1_545     S
Ti55     Er56    10.0   .     S
Ti55     V74    10.0   .     S
Er56     Er57    10.0   1_655     S
Er56     Er26    10.0   1_545     S
Er57     Er56    10.0   1_455     S
Er57     Ti58    10.0   .     S
Er57     Er35    10.0   1_545     S
Ti58     V39    10.0   1_545     S
Ti58     Er60    10.0   1_545     S
Ti58     V75    10.0   .     S
Er59     Ti55    10.0   1_565     S
Er59     Er60    10.0   1_655     S
Er59     Er62    10.0   1_565     S
Er60     Ti58    10.0   1_565     S
Er60     Er59    10.0   1_455     S
Er60     Er71    10.0   1_565     S
Ti61     V18    10.0   1_545     S
Ti61     V47    10.0   1_545     S
Ti61     Er65    10.0   .     S
Ti61     Er62    10.0   .     S
Er62     Er63    10.0   .     S
Er62     V74    10.0   .     S
Er62     Er59    10.0   1_545     S
Er63     Ti64    10.0   .     S
Er63     V73    10.0   .     S
Ti64     Er66    10.0   .     S
Er65     Er2    10.0   1_545     S
Er65     Er66    10.0   .     S
Er65     V77    10.0   .     S
Er66     V79    10.0   .     S
Er67     Er3    10.0   1_545     S
Er67     Er68    10.0   .     S
Er67     Ti70    10.0   .     S
Er67     V78    10.0   .     S
Er68     Ti69    10.0   .     S
Er68     V80    10.0   .     S
Ti69     Er72    10.0   .     S
Ti70     V17    10.0   1_545     S
Ti70     V48    10.0   1_545     S
Ti70     Er71    10.0   .     S
Er71     Er72    10.0   .     S
Er71     V75    10.0   .     S
Er71     Er60    10.0   1_545     S
Er72     V76    10.0   .     S
V73     V76    10.0   .     S
V73     V74    10.0   .     S
V74     V75    10.0   .     S
V75     V76    10.0   .     S
V77     V78    10.0   1_655     S
V77     V79    10.0   .     S
V78     V77    10.0   1_455     S
V78     V80    10.0   .     S
V79     V80    10.0   1_655     S
V80     V79    10.0   1_455     S
