data_mep
_audit_creation_date              2020-02-02
_audit_creation_method            'Pymatgen'
_symmetry_space_group_name_H-M    'P1'
_symmetry_Int_Tables_number       1
loop_
_symmetry_equiv_pos_as_xyz
  x,y,z
_cell_length_a                    43.0211
_cell_length_b                    43.0211
_cell_length_c                    43.0211
_cell_angle_alpha                 90.0
_cell_angle_beta                 90.0
_cell_angle_gamma                 90.0
loop_
_atom_site_label
_atom_site_type_symbol
_atom_site_fract_x
_atom_site_fract_y
_atom_site_fract_z
V1     V     0.0   0.75   0.5
V2     V     0.5   0.0   0.25
V3     V     0.5   0.0   0.75
V4     V     0.75   0.5   0.0
V5     V     0.25   0.5   0.0
V6     V     0.0   0.25   0.5
Ti7     Ti     0.8838   0.6901   0.0
Ti8     Ti     0.1162   0.6901   0.0
Ti9     Ti     0.6901   0.0   0.8838
Ti10     Ti     0.6901   0.0   0.1162
Er11     Er     0.8171   0.8171   0.8171
Er12     Er     0.6829   0.6829   0.6829
Ti13     Ti     0.0   0.8838   0.6901
Ti14     Ti     0.0   0.1162   0.6901
Er15     Er     0.1829   0.1829   0.1829
Er16     Er     0.3171   0.3171   0.3171
Ti17     Ti     0.5   0.8099   0.6162
Ti18     Ti     0.5   0.8099   0.3838
Er19     Er     0.1829   0.8171   0.1829
Er20     Er     0.3171   0.6829   0.3171
Ti21     Ti     0.0   0.8838   0.3099
Ti22     Ti     0.0   0.1162   0.3099
Ti23     Ti     0.3838   0.5   0.1901
Ti24     Ti     0.6162   0.5   0.1901
Er25     Er     0.8171   0.8171   0.1829
Er26     Er     0.6829   0.6829   0.3171
Ti27     Ti     0.8838   0.3099   0.0
Ti28     Ti     0.1162   0.3099   0.0
Ti29     Ti     0.8099   0.6162   0.5
Ti30     Ti     0.8099   0.3838   0.5
Er31     Er     0.8171   0.1829   0.1829
Er32     Er     0.6829   0.3171   0.3171
Ti33     Ti     0.5   0.1901   0.3838
Ti34     Ti     0.5   0.1901   0.6162
Er35     Er     0.8171   0.1829   0.8171
Er36     Er     0.6829   0.3171   0.6829
Ti37     Ti     0.3099   0.0   0.8838
Ti38     Ti     0.3099   0.0   0.1162
Ti39     Ti     0.6162   0.5   0.8099
Ti40     Ti     0.3838   0.5   0.8099
Er41     Er     0.1829   0.1829   0.8171
Er42     Er     0.3171   0.3171   0.6829
Ti43     Ti     0.1901   0.3838   0.5
Ti44     Ti     0.1901   0.6162   0.5
Er45     Er     0.1829   0.8171   0.8171
Er46     Er     0.3171   0.6829   0.6829
loop_
_geom_bond_atom_site_label_1
_geom_bond_atom_site_label_2
_geom_bond_distance
_geom_bond_site_symmetry_2
_ccdc_geom_bond_type
V1     Ti21    10.0   .     S
V1     Ti13    10.0   .     S
V1     Ti44    10.0   .     S
V1     Ti29    10.0   1_455     S
V2     Ti33    10.0   .     S
V2     Ti38    10.0   .     S
V2     Ti10    10.0   .     S
V2     Ti18    10.0   1_545     S
V3     Ti37    10.0   .     S
V3     Ti9    10.0   .     S
V3     Ti34    10.0   .     S
V3     Ti17    10.0   1_545     S
V4     Ti27    10.0   .     S
V4     Ti7    10.0   .     S
V4     Ti24    10.0   .     S
V4     Ti39    10.0   1_554     S
V5     Ti23    10.0   .     S
V5     Ti28    10.0   .     S
V5     Ti8    10.0   .     S
V5     Ti40    10.0   1_554     S
V6     Ti43    10.0   .     S
V6     Ti22    10.0   .     S
V6     Ti14    10.0   .     S
V6     Ti30    10.0   1_455     S
Ti7     Er25    10.0   .     S
Ti7     Er11    10.0   1_554     S
Ti7     Ti8    10.0   1_655     S
Ti8     Er45    10.0   1_554     S
Ti8     Er19    10.0   .     S
Ti8     Ti7    10.0   1_455     S
Ti9     Er35    10.0   .     S
Ti9     Er11    10.0   1_545     S
Ti9     Ti10    10.0   1_556     S
Ti10     Er25    10.0   1_545     S
Ti10     Er31    10.0   .     S
Ti10     Ti9    10.0   1_554     S
Er11     Ti7    10.0   1_556     S
Er11     Ti9    10.0   1_565     S
Er11     Er12    10.0   .     S
Er11     Ti13    10.0   1_655     S
Er12     Ti17    10.0   .     S
Er12     Ti29    10.0   .     S
Er12     Ti39    10.0   .     S
Ti13     Er45    10.0   .     S
Ti13     Er11    10.0   1_455     S
Ti13     Ti14    10.0   1_565     S
Ti14     Er35    10.0   1_455     S
Ti14     Er41    10.0   .     S
Ti14     Ti13    10.0   1_545     S
Er15     Er16    10.0   .     S
Er15     Ti22    10.0   .     S
Er15     Ti28    10.0   .     S
Er15     Ti38    10.0   .     S
Er16     Ti23    10.0   .     S
Er16     Ti33    10.0   .     S
Er16     Ti43    10.0   .     S
Ti17     V3    10.0   1_565     S
Ti17     Er46    10.0   .     S
Ti17     Ti18    10.0   .     S
Ti18     V2    10.0   1_565     S
Ti18     Er26    10.0   .     S
Ti18     Er20    10.0   .     S
Er19     Er20    10.0   .     S
Er19     Ti21    10.0   .     S
Er19     Ti38    10.0   1_565     S
Er20     Ti23    10.0   .     S
Er20     Ti44    10.0   .     S
Ti21     Er25    10.0   1_455     S
Ti21     Ti22    10.0   1_565     S
Ti22     Er31    10.0   1_455     S
Ti22     Ti21    10.0   1_545     S
Ti23     Ti24    10.0   .     S
Ti24     Er26    10.0   .     S
Ti24     Er32    10.0   .     S
Er25     Ti10    10.0   1_565     S
Er25     Ti21    10.0   1_655     S
Er25     Er26    10.0   .     S
Er26     Ti29    10.0   .     S
Ti27     Er35    10.0   1_554     S
Ti27     Er31    10.0   .     S
Ti27     Ti28    10.0   1_655     S
Ti28     Er41    10.0   1_554     S
Ti28     Ti27    10.0   1_455     S
Ti29     V1    10.0   1_655     S
Ti29     Ti30    10.0   .     S
Ti30     V6    10.0   1_655     S
Ti30     Er36    10.0   .     S
Ti30     Er32    10.0   .     S
Er31     Ti22    10.0   1_655     S
Er31     Er32    10.0   .     S
Er32     Ti33    10.0   .     S
Ti33     Ti34    10.0   .     S
Ti34     Er36    10.0   .     S
Ti34     Er42    10.0   .     S
Er35     Ti14    10.0   1_655     S
Er35     Ti27    10.0   1_556     S
Er35     Er36    10.0   .     S
Er36     Ti39    10.0   .     S
Ti37     Er45    10.0   1_545     S
Ti37     Er41    10.0   .     S
Ti37     Ti38    10.0   1_556     S
Ti38     Er19    10.0   1_545     S
Ti38     Ti37    10.0   1_554     S
Ti39     V4    10.0   1_556     S
Ti39     Ti40    10.0   .     S
Ti40     V5    10.0   1_556     S
Ti40     Er42    10.0   .     S
Ti40     Er46    10.0   .     S
Er41     Ti28    10.0   1_556     S
Er41     Er42    10.0   .     S
Er42     Ti43    10.0   .     S
Ti43     Ti44    10.0   .     S
Ti44     Er46    10.0   .     S
Er45     Ti8    10.0   1_556     S
Er45     Ti37    10.0   1_565     S
Er45     Er46    10.0   .     S
