data_mepe
_audit_creation_date              2020-02-02
_audit_creation_method            'Pymatgen'
_symmetry_space_group_name_H-M    'P1'
_symmetry_Int_Tables_number       1
loop_
_symmetry_equiv_pos_as_xyz
  x,y,z
_cell_length_a                    52.1917
_cell_length_b                    52.1917
_cell_length_c                    52.1917
_cell_angle_alpha                 90.0
_cell_angle_beta                 90.0
_cell_angle_gamma                 90.0
loop_
_atom_site_label
_atom_site_type_symbol
_atom_site_fract_x
_atom_site_fract_y
_atom_site_fract_z
Ti1     Ti     0.5953   0.1819   0.0
Ti2     Ti     0.4047   0.1819   0.0
Ce3     Ce     0.7535   0.1349   0.904
Ce4     Ce     0.2465   0.1349   0.096
Ce5     Ce     0.7535   0.1349   0.096
Ce6     Ce     0.2465   0.1349   0.904
Ti7     Ti     0.8181   0.0   0.5953
Ti8     Ti     0.8181   0.0   0.4047
Ce9     Ce     0.865   0.904   0.7535
Ce10     Ce     0.865   0.904   0.2465
Ce11     Ce     0.865   0.096   0.7535
Ce12     Ce     0.865   0.096   0.2465
Ti13     Ti     0.0   0.5953   0.1819
Ti14     Ti     0.0   0.4047   0.1819
Ce15     Ce     0.904   0.7535   0.1349
Ce16     Ce     0.096   0.2465   0.1349
Ce17     Ce     0.904   0.2465   0.1349
Ce18     Ce     0.096   0.7535   0.1349
Ti19     Ti     0.5953   0.8181   0.0
Ti20     Ti     0.4047   0.8181   0.0
Ce21     Ce     0.7535   0.865   0.904
Ce22     Ce     0.2465   0.865   0.904
Ce23     Ce     0.7535   0.865   0.096
Ce24     Ce     0.2465   0.865   0.096
Ti25     Ti     0.1819   0.0   0.4047
Ti26     Ti     0.1819   0.0   0.5953
Ce27     Ce     0.1349   0.096   0.2465
Ce28     Ce     0.1349   0.904   0.7535
Ce29     Ce     0.1349   0.096   0.7535
Ce30     Ce     0.1349   0.904   0.2465
Ti31     Ti     0.0   0.5953   0.8181
Ti32     Ti     0.0   0.4047   0.8181
Ce33     Ce     0.096   0.7535   0.865
Ce34     Ce     0.904   0.2465   0.865
Ce35     Ce     0.904   0.7535   0.865
Ce36     Ce     0.096   0.2465   0.865
Ti37     Ti     0.5   0.3181   0.0953
Ti38     Ti     0.5   0.3181   0.9047
Ce39     Ce     0.404   0.365   0.7465
Ce40     Ce     0.596   0.365   0.7465
Ce41     Ce     0.596   0.365   0.2535
Ce42     Ce     0.404   0.365   0.2535
Ti43     Ti     0.3181   0.0953   0.5
Ti44     Ti     0.3181   0.9047   0.5
Ce45     Ce     0.365   0.7465   0.404
Ce46     Ce     0.365   0.7465   0.596
Ce47     Ce     0.365   0.2535   0.596
Ce48     Ce     0.365   0.2535   0.404
Ti49     Ti     0.0953   0.5   0.3181
Ti50     Ti     0.9047   0.5   0.3181
Ce51     Ce     0.7465   0.596   0.365
Ce52     Ce     0.7465   0.404   0.365
Ce53     Ce     0.2535   0.596   0.365
Ce54     Ce     0.2535   0.404   0.365
Ti55     Ti     0.0953   0.5   0.6819
Ti56     Ti     0.9047   0.5   0.6819
Ce57     Ce     0.7465   0.596   0.635
Ce58     Ce     0.2535   0.404   0.635
Ce59     Ce     0.7465   0.404   0.635
Ce60     Ce     0.2535   0.596   0.635
Ti61     Ti     0.6819   0.0953   0.5
Ti62     Ti     0.6819   0.9047   0.5
Ce63     Ce     0.635   0.7465   0.596
Ce64     Ce     0.635   0.2535   0.404
Ce65     Ce     0.635   0.7465   0.404
Ce66     Ce     0.635   0.2535   0.596
Ti67     Ti     0.5   0.6819   0.0953
Ti68     Ti     0.5   0.6819   0.9047
Ce69     Ce     0.596   0.635   0.7465
Ce70     Ce     0.404   0.635   0.2535
Ce71     Ce     0.404   0.635   0.7465
Ce72     Ce     0.596   0.635   0.2535
Er73     Er     0.6569   0.0   0.0
Er74     Er     0.0   0.0   0.6569
Er75     Er     0.0   0.6569   0.0
Er76     Er     0.0   0.0   0.3431
Er77     Er     0.5   0.5   0.1569
Er78     Er     0.3431   0.0   0.0
Er79     Er     0.5   0.1569   0.5
Er80     Er     0.0   0.3431   0.0
Er81     Er     0.1569   0.5   0.5
Er82     Er     0.5   0.8431   0.5
Er83     Er     0.5   0.5   0.8431
Er84     Er     0.8431   0.5   0.5
V85     V     0.25   0.75   0.75
V86     V     0.75   0.75   0.25
V87     V     0.75   0.25   0.75
V88     V     0.75   0.25   0.25
V89     V     0.25   0.25   0.75
V90     V     0.25   0.75   0.25
V91     V     0.25   0.25   0.25
V92     V     0.75   0.75   0.75
loop_
_geom_bond_atom_site_label_1
_geom_bond_atom_site_label_2
_geom_bond_distance
_geom_bond_site_symmetry_2
_ccdc_geom_bond_type
Ti1     Ti2    9.948   .     S
Ti1     Ce3    9.966   1_554     S
Ti1     Ce5    9.966   .     S
Ti1     Er73    10.022   .     S
Ti1     Ti38    10.003   1_554     S
Ti1     Ti37    10.003   .     S
Ti2     Ce4    9.966   .     S
Ti2     Ce6    9.966   1_554     S
Ti2     Er78    10.022   .     S
Ti2     Ti38    10.003   1_554     S
Ti2     Ti37    10.003   .     S
Ce3     Ti1    9.966   1_556     S
Ce3     Ce11    9.982   .     S
Ce3     Ce34    9.982   .     S
Ce3     Er73    10.007   1_556     S
Ce3     Ce5    10.023   1_556     S
Ce3     V87    10.034   .     S
Ce4     Ce27    9.982   .     S
Ce4     Ce16    9.982   .     S
Ce4     Er78    10.007   .     S
Ce4     Ce6    10.023   1_554     S
Ce4     V91    10.034   .     S
Ce5     Ce12    9.982   .     S
Ce5     Ce17    9.982   .     S
Ce5     Er73    10.007   .     S
Ce5     Ce3    10.023   1_554     S
Ce5     V88    10.034   .     S
Ce6     Ti2    9.966   1_556     S
Ce6     Ce29    9.982   .     S
Ce6     Ce36    9.982   .     S
Ce6     Er78    10.007   1_556     S
Ce6     Ce4    10.023   1_556     S
Ce6     V89    10.034   .     S
Ti7     Ti8    9.948   .     S
Ti7     Ce9    9.966   1_545     S
Ti7     Ce11    9.966   .     S
Ti7     Er74    10.022   1_655     S
Ti7     Ti62    10.003   1_545     S
Ti7     Ti61    10.003   .     S
Ti8     Ce10    9.966   1_545     S
Ti8     Ce12    9.966   .     S
Ti8     Er76    10.022   1_655     S
Ti8     Ti62    10.003   1_545     S
Ti8     Ti61    10.003   .     S
Ce9     Ti7    9.966   1_565     S
Ce9     Ce35    9.982   .     S
Ce9     Ce21    9.982   .     S
Ce9     Er74    10.007   1_665     S
Ce9     Ce11    10.023   1_565     S
Ce9     V92    10.034   .     S
Ce10     Ti8    9.966   1_565     S
Ce10     Ce15    9.982   .     S
Ce10     Ce23    9.982   .     S
Ce10     Er76    10.007   1_665     S
Ce10     Ce12    10.023   1_565     S
Ce10     V86    10.034   .     S
Ce11     Ce34    9.982   .     S
Ce11     Er74    10.007   1_655     S
Ce11     Ce9    10.023   1_545     S
Ce11     V87    10.034   .     S
Ce12     Ce17    9.982   .     S
Ce12     Er76    10.007   1_655     S
Ce12     Ce10    10.023   1_545     S
Ce12     V88    10.034   .     S
Ti13     Ti14    9.948   .     S
Ti13     Ce15    9.966   1_455     S
Ti13     Ce18    9.966   .     S
Ti13     Er75    10.022   .     S
Ti13     Ti50    10.003   1_455     S
Ti13     Ti49    10.003   .     S
Ti14     Ce16    9.966   .     S
Ti14     Ce17    9.966   1_455     S
Ti14     Er80    10.022   .     S
Ti14     Ti50    10.003   1_455     S
Ti14     Ti49    10.003   .     S
Ce15     Ti13    9.966   1_655     S
Ce15     Ce23    9.982   .     S
Ce15     Er75    10.007   1_655     S
Ce15     Ce18    10.023   1_655     S
Ce15     V86    10.034   .     S
Ce16     Ce27    9.982   .     S
Ce16     Er80    10.007   .     S
Ce16     Ce17    10.023   1_455     S
Ce16     V91    10.034   .     S
Ce17     Ti14    9.966   1_655     S
Ce17     Er80    10.007   1_655     S
Ce17     Ce16    10.023   1_655     S
Ce17     V88    10.034   .     S
Ce18     Ce24    9.982   .     S
Ce18     Ce30    9.982   .     S
Ce18     Er75    10.007   .     S
Ce18     Ce15    10.023   1_455     S
Ce18     V90    10.034   .     S
Ti19     Ti20    9.948   .     S
Ti19     Ce21    9.966   1_554     S
Ti19     Ce23    9.966   .     S
Ti19     Er73    10.022   1_565     S
Ti19     Ti67    10.003   .     S
Ti19     Ti68    10.003   1_554     S
Ti20     Ce22    9.966   1_554     S
Ti20     Ce24    9.966   .     S
Ti20     Er78    10.022   1_565     S
Ti20     Ti67    10.003   .     S
Ti20     Ti68    10.003   1_554     S
Ce21     Ti19    9.966   1_556     S
Ce21     Ce35    9.982   .     S
Ce21     Er73    10.007   1_566     S
Ce21     Ce23    10.023   1_556     S
Ce21     V92    10.034   .     S
Ce22     Ti20    9.966   1_556     S
Ce22     Ce28    9.982   .     S
Ce22     Ce33    9.982   .     S
Ce22     Er78    10.007   1_566     S
Ce22     Ce24    10.023   1_556     S
Ce22     V85    10.034   .     S
Ce23     Er73    10.007   1_565     S
Ce23     Ce21    10.023   1_554     S
Ce23     V86    10.034   .     S
Ce24     Ce30    9.982   .     S
Ce24     Er78    10.007   1_565     S
Ce24     Ce22    10.023   1_554     S
Ce24     V90    10.034   .     S
Ti25     Ti26    9.948   .     S
Ti25     Ce27    9.966   .     S
Ti25     Ce30    9.966   1_545     S
Ti25     Er76    10.022   .     S
Ti25     Ti43    10.003   .     S
Ti25     Ti44    10.003   1_545     S
Ti26     Ce28    9.966   1_545     S
Ti26     Ce29    9.966   .     S
Ti26     Er74    10.022   .     S
Ti26     Ti43    10.003   .     S
Ti26     Ti44    10.003   1_545     S
Ce27     Er76    10.007   .     S
Ce27     Ce30    10.023   1_545     S
Ce27     V91    10.034   .     S
Ce28     Ti26    9.966   1_565     S
Ce28     Ce33    9.982   .     S
Ce28     Er74    10.007   1_565     S
Ce28     Ce29    10.023   1_565     S
Ce28     V85    10.034   .     S
Ce29     Ce36    9.982   .     S
Ce29     Er74    10.007   .     S
Ce29     Ce28    10.023   1_545     S
Ce29     V89    10.034   .     S
Ce30     Ti25    9.966   1_565     S
Ce30     Er76    10.007   1_565     S
Ce30     Ce27    10.023   1_565     S
Ce30     V90    10.034   .     S
Ti31     Ti32    9.948   .     S
Ti31     Ce33    9.966   .     S
Ti31     Ce35    9.966   1_455     S
Ti31     Er75    10.022   1_556     S
Ti31     Ti55    10.003   .     S
Ti31     Ti56    10.003   1_455     S
Ti32     Ce34    9.966   1_455     S
Ti32     Ce36    9.966   .     S
Ti32     Er80    10.022   1_556     S
Ti32     Ti55    10.003   .     S
Ti32     Ti56    10.003   1_455     S
Ce33     Er75    10.007   1_556     S
Ce33     Ce35    10.023   1_455     S
Ce33     V85    10.034   .     S
Ce34     Ti32    9.966   1_655     S
Ce34     Er80    10.007   1_656     S
Ce34     Ce36    10.023   1_655     S
Ce34     V87    10.034   .     S
Ce35     Ti31    9.966   1_655     S
Ce35     Er75    10.007   1_656     S
Ce35     Ce33    10.023   1_655     S
Ce35     V92    10.034   .     S
Ce36     Er80    10.007   1_556     S
Ce36     Ce34    10.023   1_455     S
Ce36     V89    10.034   .     S
Ti37     Ti38    9.948   1_554     S
Ti37     Ce42    9.966   .     S
Ti37     Ce41    9.966   .     S
Ti37     Er77    10.022   .     S
Ti38     Ti37    9.948   1_556     S
Ti38     Ce39    9.966   .     S
Ti38     Ce40    9.966   .     S
Ti38     Er83    10.022   .     S
Ti38     Ti1    10.003   1_556     S
Ti38     Ti2    10.003   1_556     S
Ce39     Ce58    9.982   .     S
Ce39     Ce47    9.982   .     S
Ce39     Er83    10.007   .     S
Ce39     Ce40    10.023   .     S
Ce39     V89    10.034   .     S
Ce40     Ce59    9.982   .     S
Ce40     Ce66    9.982   .     S
Ce40     Er83    10.007   .     S
Ce40     V87    10.034   .     S
Ce41     Ce52    9.982   .     S
Ce41     Ce64    9.982   .     S
Ce41     Er77    10.007   .     S
Ce41     Ce42    10.023   .     S
Ce41     V88    10.034   .     S
Ce42     Ce54    9.982   .     S
Ce42     Ce48    9.982   .     S
Ce42     Er77    10.007   .     S
Ce42     V91    10.034   .     S
Ti43     Ti44    9.948   1_545     S
Ti43     Ce48    9.966   .     S
Ti43     Ce47    9.966   .     S
Ti43     Er79    10.022   .     S
Ti44     Ti43    9.948   1_565     S
Ti44     Ce45    9.966   .     S
Ti44     Ce46    9.966   .     S
Ti44     Er82    10.022   .     S
Ti44     Ti26    10.003   1_565     S
Ti44     Ti25    10.003   1_565     S
Ce45     Ce70    9.982   .     S
Ce45     Ce53    9.982   .     S
Ce45     Er82    10.007   .     S
Ce45     Ce46    10.023   .     S
Ce45     V90    10.034   .     S
Ce46     Ce71    9.982   .     S
Ce46     Ce60    9.982   .     S
Ce46     Er82    10.007   .     S
Ce46     V85    10.034   .     S
Ce47     Ce58    9.982   .     S
Ce47     Er79    10.007   .     S
Ce47     Ce48    10.023   .     S
Ce47     V89    10.034   .     S
Ce48     Ce54    9.982   .     S
Ce48     Er79    10.007   .     S
Ce48     V91    10.034   .     S
Ti49     Ti50    9.948   1_455     S
Ti49     Ce54    9.966   .     S
Ti49     Ce53    9.966   .     S
Ti49     Er81    10.022   .     S
Ti50     Ti49    9.948   1_655     S
Ti50     Ce51    9.966   .     S
Ti50     Ce52    9.966   .     S
Ti50     Er84    10.022   .     S
Ti50     Ti13    10.003   1_655     S
Ti50     Ti14    10.003   1_655     S
Ce51     Ce65    9.982   .     S
Ce51     Ce72    9.982   .     S
Ce51     Er84    10.007   .     S
Ce51     Ce52    10.023   .     S
Ce51     V86    10.034   .     S
Ce52     Ce64    9.982   .     S
Ce52     Er84    10.007   .     S
Ce52     V88    10.034   .     S
Ce53     Ce70    9.982   .     S
Ce53     Er81    10.007   .     S
Ce53     Ce54    10.023   .     S
Ce53     V90    10.034   .     S
Ce54     Er81    10.007   .     S
Ce54     V91    10.034   .     S
Ti55     Ti56    9.948   1_455     S
Ti55     Ce60    9.966   .     S
Ti55     Ce58    9.966   .     S
Ti55     Er81    10.022   .     S
Ti56     Ti55    9.948   1_655     S
Ti56     Ce59    9.966   .     S
Ti56     Ce57    9.966   .     S
Ti56     Er84    10.022   .     S
Ti56     Ti32    10.003   1_655     S
Ti56     Ti31    10.003   1_655     S
Ce57     Ce63    9.982   .     S
Ce57     Ce69    9.982   .     S
Ce57     Er84    10.007   .     S
Ce57     Ce59    10.023   .     S
Ce57     V92    10.034   .     S
Ce58     Er81    10.007   .     S
Ce58     Ce60    10.023   .     S
Ce58     V89    10.034   .     S
Ce59     Ce66    9.982   .     S
Ce59     Er84    10.007   .     S
Ce59     V87    10.034   .     S
Ce60     Ce71    9.982   .     S
Ce60     Er81    10.007   .     S
Ce60     V85    10.034   .     S
Ti61     Ti62    9.948   1_545     S
Ti61     Ce66    9.966   .     S
Ti61     Ce64    9.966   .     S
Ti61     Er79    10.022   .     S
Ti62     Ti61    9.948   1_565     S
Ti62     Ce65    9.966   .     S
Ti62     Ce63    9.966   .     S
Ti62     Er82    10.022   .     S
Ti62     Ti8    10.003   1_565     S
Ti62     Ti7    10.003   1_565     S
Ce63     Ce69    9.982   .     S
Ce63     Er82    10.007   .     S
Ce63     Ce65    10.023   .     S
Ce63     V92    10.034   .     S
Ce64     Er79    10.007   .     S
Ce64     Ce66    10.023   .     S
Ce64     V88    10.034   .     S
Ce65     Ce72    9.982   .     S
Ce65     Er82    10.007   .     S
Ce65     V86    10.034   .     S
Ce66     Er79    10.007   .     S
Ce66     V87    10.034   .     S
Ti67     Ti68    9.948   1_554     S
Ti67     Ce72    9.966   .     S
Ti67     Ce70    9.966   .     S
Ti67     Er77    10.022   .     S
Ti68     Ti67    9.948   1_556     S
Ti68     Ce71    9.966   .     S
Ti68     Ce69    9.966   .     S
Ti68     Er83    10.022   .     S
Ti68     Ti20    10.003   1_556     S
Ti68     Ti19    10.003   1_556     S
Ce69     Er83    10.007   .     S
Ce69     Ce71    10.023   .     S
Ce69     V92    10.034   .     S
Ce70     Er77    10.007   .     S
Ce70     Ce72    10.023   .     S
Ce70     V90    10.034   .     S
Ce71     Er83    10.007   .     S
Ce71     V85    10.034   .     S
Ce72     Er77    10.007   .     S
Ce72     V86    10.034   .     S
Er73     Ce23    10.007   1_545     S
Er73     Ti19    10.022   1_545     S
Er73     Ce21    10.007   1_544     S
Er73     Ce3    10.007   1_554     S
Er74     Ce11    10.007   1_455     S
Er74     Ti7    10.022   1_455     S
Er74     Ce9    10.007   1_445     S
Er74     Ce28    10.007   1_545     S
Er75     Ce33    10.007   1_554     S
Er75     Ti31    10.022   1_554     S
Er75     Ce35    10.007   1_454     S
Er75     Ce15    10.007   1_455     S
Er76     Ce10    10.007   1_445     S
Er76     Ti8    10.022   1_455     S
Er76     Ce12    10.007   1_455     S
Er76     Ce30    10.007   1_545     S
Er78     Ce22    10.007   1_544     S
Er78     Ti20    10.022   1_545     S
Er78     Ce24    10.007   1_545     S
Er78     Ce6    10.007   1_554     S
Er80     Ce34    10.007   1_454     S
Er80     Ti32    10.022   1_554     S
Er80     Ce36    10.007   1_554     S
Er80     Ce17    10.007   1_455     S
