data_mere
_audit_creation_date              2020-02-02
_audit_creation_method            'Pymatgen'
_symmetry_space_group_name_H-M    'P1'
_symmetry_Int_Tables_number       1
loop_
_symmetry_equiv_pos_as_xyz
  x,y,z
_cell_length_a                    53.1913
_cell_length_b                    53.1913
_cell_length_c                    38.6636
_cell_angle_alpha                 90.0
_cell_angle_beta                 90.0
_cell_angle_gamma                 90.0
loop_
_atom_site_label
_atom_site_type_symbol
_atom_site_fract_x
_atom_site_fract_y
_atom_site_fract_z
Er1     Er     0.5   0.2455   0.8243
Er2     Er     0.5   0.7545   0.1757
Er3     Er     0.5   0.7545   0.8243
Er4     Er     0.7455   0.0   0.6757
Er5     Er     0.2545   0.0   0.6757
Er6     Er     0.2545   0.0   0.3243
Ti7     Ti     0.3712   0.804   0.0
Ce8     Ce     0.3433   0.8433   0.75
Ce9     Ce     0.3433   0.8433   0.25
Ti10     Ti     0.304   0.8712   0.5
Ti11     Ti     0.6288   0.804   0.0
Ce12     Ce     0.6567   0.8433   0.25
Ce13     Ce     0.6567   0.8433   0.75
Ti14     Ti     0.696   0.8712   0.5
Er15     Er     0.7455   0.0   0.3243
Ce16     Ce     0.3433   0.1567   0.75
Ti17     Ti     0.3712   0.196   0.0
Ce18     Ce     0.3433   0.1567   0.25
Ti19     Ti     0.304   0.1288   0.5
Er20     Er     0.5   0.2455   0.1757
Ti21     Ti     0.6288   0.196   0.0
Ce22     Ce     0.6567   0.1567   0.25
Ce23     Ce     0.6567   0.1567   0.75
Ti24     Ti     0.696   0.1288   0.5
V25     V     0.1654   0.8346   0.3327
V26     V     0.1654   0.8346   0.6673
Er27     Er     0.2455   0.5   0.8243
Er28     Er     0.0   0.7455   0.6757
Ti29     Ti     0.804   0.6288   0.0
Ce30     Ce     0.8433   0.6567   0.75
Ce31     Ce     0.8433   0.6567   0.25
Ti32     Ti     0.8712   0.696   0.5
Er33     Er     0.7545   0.5   0.1757
Er34     Er     0.7545   0.5   0.8243
Er35     Er     0.0   0.2545   0.6757
Er36     Er     0.0   0.2545   0.3243
Ti37     Ti     0.804   0.3712   0.0
Ce38     Ce     0.8433   0.3433   0.75
Ce39     Ce     0.8433   0.3433   0.25
Ti40     Ti     0.8712   0.304   0.5
Er41     Er     0.0   0.7455   0.3243
Ti42     Ti     0.196   0.6288   0.0
Ce43     Ce     0.1567   0.6567   0.75
Ce44     Ce     0.1567   0.6567   0.25
Ti45     Ti     0.1288   0.696   0.5
Er46     Er     0.2455   0.5   0.1757
Ce47     Ce     0.1567   0.3433   0.75
Ti48     Ti     0.196   0.3712   0.0
Ce49     Ce     0.1567   0.3433   0.25
Ti50     Ti     0.1288   0.304   0.5
V51     V     0.8346   0.1654   0.3327
V52     V     0.8346   0.1654   0.6673
V53     V     0.8346   0.8346   0.3327
V54     V     0.8346   0.8346   0.6673
V55     V     0.1654   0.1654   0.3327
V56     V     0.1654   0.1654   0.6673
V57     V     0.3346   0.3346   0.8327
V58     V     0.3346   0.3346   0.1673
V59     V     0.3346   0.6654   0.8327
V60     V     0.6654   0.3346   0.8327
V61     V     0.6654   0.3346   0.1673
V62     V     0.3346   0.6654   0.1673
V63     V     0.6654   0.6654   0.8327
V64     V     0.6654   0.6654   0.1673
loop_
_geom_bond_atom_site_label_1
_geom_bond_atom_site_label_2
_geom_bond_distance
_geom_bond_site_symmetry_2
_ccdc_geom_bond_type
Er1     Ce16    10.0   .     S
Er1     Ce23    10.0   .     S
Er1     Ti17    10.0   1_556     S
Er1     V57    10.0   .     S
Er1     Ti21    10.0   1_556     S
Er1     V60    10.0   .     S
Er2     Ce9    10.0   .     S
Er2     Ce12    10.0   .     S
Er2     Ti7    10.0   .     S
Er2     V62    10.0   .     S
Er2     Ti11    10.0   .     S
Er2     V64    10.0   .     S
Er3     Ce13    10.0   .     S
Er3     Ce8    10.0   .     S
Er3     Ti7    10.0   1_556     S
Er3     V59    10.0   .     S
Er3     Ti11    10.0   1_556     S
Er3     V63    10.0   .     S
Er4     Ce13    10.0   1_545     S
Er4     Ce23    10.0   .     S
Er4     Ti14    10.0   1_545     S
Er4     V54    10.0   1_545     S
Er4     Ti24    10.0   .     S
Er4     V52    10.0   .     S
Er5     Ce8    10.0   1_545     S
Er5     Ce16    10.0   .     S
Er5     Ti10    10.0   1_545     S
Er5     V26    10.0   1_545     S
Er5     Ti19    10.0   .     S
Er5     V56    10.0   .     S
Er6     Ce9    10.0   1_545     S
Er6     Ce18    10.0   .     S
Er6     Ti10    10.0   1_545     S
Er6     V25    10.0   1_545     S
Er6     Ti19    10.0   .     S
Er6     V55    10.0   .     S
Ti7     Er3    10.0   1_554     S
Ti7     V59    10.0   1_554     S
Ti7     Ce8    10.0   1_554     S
Ti7     V62    10.0   .     S
Ti7     Ce9    10.0   .     S
Ce8     Er5    10.0   1_565     S
Ce8     Ti7    10.0   1_556     S
Ce8     V26    10.0   .     S
Ce8     V59    10.0   .     S
Ce8     Ti10    10.0   .     S
Ce9     Er6    10.0   1_565     S
Ce9     V25    10.0   .     S
Ce9     V62    10.0   .     S
Ce9     Ti10    10.0   .     S
Ti10     Er5    10.0   1_565     S
Ti10     V26    10.0   .     S
Ti10     Er6    10.0   1_565     S
Ti10     V25    10.0   .     S
Ti11     Er3    10.0   1_554     S
Ti11     V63    10.0   1_554     S
Ti11     Ce13    10.0   1_554     S
Ti11     V64    10.0   .     S
Ti11     Ce12    10.0   .     S
Ce12     V53    10.0   .     S
Ce12     V64    10.0   .     S
Ce12     Ti14    10.0   .     S
Ce12     Er15    10.0   1_565     S
Ce13     Er4    10.0   1_565     S
Ce13     Ti11    10.0   1_556     S
Ce13     V54    10.0   .     S
Ce13     V63    10.0   .     S
Ce13     Ti14    10.0   .     S
Ti14     Er15    10.0   1_565     S
Ti14     V53    10.0   .     S
Ti14     Er4    10.0   1_565     S
Ti14     V54    10.0   .     S
Er15     Ti14    10.0   1_545     S
Er15     V53    10.0   1_545     S
Er15     Ce12    10.0   1_545     S
Er15     Ce22    10.0   .     S
Er15     Ti24    10.0   .     S
Er15     V51    10.0   .     S
Ce16     V56    10.0   .     S
Ce16     V57    10.0   .     S
Ce16     Ti19    10.0   .     S
Ce16     Ti17    10.0   1_556     S
Ti17     Er1    10.0   1_554     S
Ti17     V57    10.0   1_554     S
Ti17     Ce16    10.0   1_554     S
Ti17     Er20    10.0   .     S
Ti17     V58    10.0   .     S
Ti17     Ce18    10.0   .     S
Ce18     Ti19    10.0   .     S
Ce18     V58    10.0   .     S
Ce18     V55    10.0   .     S
Ce18     Er20    10.0   .     S
Ti19     V56    10.0   .     S
Ti19     V55    10.0   .     S
Er20     V58    10.0   .     S
Er20     Ce22    10.0   .     S
Er20     Ti21    10.0   .     S
Er20     V61    10.0   .     S
Ti21     Er1    10.0   1_554     S
Ti21     V60    10.0   1_554     S
Ti21     Ce23    10.0   1_554     S
Ti21     V61    10.0   .     S
Ti21     Ce22    10.0   .     S
Ce22     V51    10.0   .     S
Ce22     V61    10.0   .     S
Ce22     Ti24    10.0   .     S
Ce23     Ti21    10.0   1_556     S
Ce23     V52    10.0   .     S
Ce23     V60    10.0   .     S
Ce23     Ti24    10.0   .     S
Ti24     V52    10.0   .     S
Ti24     V51    10.0   .     S
V25     Er6    10.0   1_565     S
V25     Ti45    10.0   .     S
V25     Er41    10.0   .     S
V25     Ce44    10.0   .     S
V26     Er5    10.0   1_565     S
V26     Ce43    10.0   .     S
V26     Ti45    10.0   .     S
V26     Er28    10.0   .     S
Er27     Ce43    10.0   .     S
Er27     Ce47    10.0   .     S
Er27     Ti42    10.0   1_556     S
Er27     V59    10.0   .     S
Er27     Ti48    10.0   1_556     S
Er27     V57    10.0   .     S
Er28     Ce30    10.0   1_455     S
Er28     Ce43    10.0   .     S
Er28     Ti32    10.0   1_455     S
Er28     V54    10.0   1_455     S
Er28     Ti45    10.0   .     S
Ti29     Er34    10.0   1_554     S
Ti29     V63    10.0   1_554     S
Ti29     Ce30    10.0   1_554     S
Ti29     Er33    10.0   .     S
Ti29     V64    10.0   .     S
Ti29     Ce31    10.0   .     S
Ce30     Er28    10.0   1_655     S
Ce30     Ti29    10.0   1_556     S
Ce30     V54    10.0   .     S
Ce30     V63    10.0   .     S
Ce30     Ti32    10.0   .     S
Ce30     Er34    10.0   .     S
Ce31     V64    10.0   .     S
Ce31     V53    10.0   .     S
Ce31     Ti32    10.0   .     S
Ce31     Er33    10.0   .     S
Ce31     Er41    10.0   1_655     S
Ti32     Er28    10.0   1_655     S
Ti32     V54    10.0   .     S
Ti32     Er41    10.0   1_655     S
Ti32     V53    10.0   .     S
Er33     V64    10.0   .     S
Er33     Ce39    10.0   .     S
Er33     Ti37    10.0   .     S
Er33     V61    10.0   .     S
Er34     Ti29    10.0   1_556     S
Er34     V63    10.0   .     S
Er34     Ce38    10.0   .     S
Er34     Ti37    10.0   1_556     S
Er34     V60    10.0   .     S
Er35     Ce38    10.0   1_455     S
Er35     Ce47    10.0   .     S
Er35     Ti40    10.0   1_455     S
Er35     V52    10.0   1_455     S
Er35     Ti50    10.0   .     S
Er35     V56    10.0   .     S
Er36     Ce39    10.0   1_455     S
Er36     Ce49    10.0   .     S
Er36     Ti40    10.0   1_455     S
Er36     V51    10.0   1_455     S
Er36     Ti50    10.0   .     S
Er36     V55    10.0   .     S
Ti37     Er34    10.0   1_554     S
Ti37     V60    10.0   1_554     S
Ti37     Ce38    10.0   1_554     S
Ti37     V61    10.0   .     S
Ti37     Ce39    10.0   .     S
Ce38     Er35    10.0   1_655     S
Ce38     Ti37    10.0   1_556     S
Ce38     V52    10.0   .     S
Ce38     V60    10.0   .     S
Ce38     Ti40    10.0   .     S
Ce39     Er36    10.0   1_655     S
Ce39     V51    10.0   .     S
Ce39     V61    10.0   .     S
Ce39     Ti40    10.0   .     S
Ti40     Er35    10.0   1_655     S
Ti40     V52    10.0   .     S
Ti40     Er36    10.0   1_655     S
Ti40     V51    10.0   .     S
Er41     Ti32    10.0   1_455     S
Er41     V53    10.0   1_455     S
Er41     Ce31    10.0   1_455     S
Er41     Ce44    10.0   .     S
Er41     Ti45    10.0   .     S
Ti42     Er27    10.0   1_554     S
Ti42     V59    10.0   1_554     S
Ti42     Ce43    10.0   1_554     S
Ti42     Er46    10.0   .     S
Ti42     V62    10.0   .     S
Ti42     Ce44    10.0   .     S
Ce43     Ti42    10.0   1_556     S
Ce43     V59    10.0   .     S
Ce43     Ti45    10.0   .     S
Ce44     Ti45    10.0   .     S
Ce44     V62    10.0   .     S
Ce44     Er46    10.0   .     S
Er46     V62    10.0   .     S
Er46     Ce49    10.0   .     S
Er46     Ti48    10.0   .     S
Er46     V58    10.0   .     S
Ce47     V56    10.0   .     S
Ce47     V57    10.0   .     S
Ce47     Ti50    10.0   .     S
Ce47     Ti48    10.0   1_556     S
Ti48     Er27    10.0   1_554     S
Ti48     V57    10.0   1_554     S
Ti48     Ce47    10.0   1_554     S
Ti48     V58    10.0   .     S
Ti48     Ce49    10.0   .     S
Ce49     V55    10.0   .     S
Ce49     V58    10.0   .     S
Ce49     Ti50    10.0   .     S
Ti50     V56    10.0   .     S
Ti50     V55    10.0   .     S
V51     Er36    10.0   1_655     S
V52     Er35    10.0   1_655     S
V53     Er15    10.0   1_565     S
V53     Er41    10.0   1_655     S
V54     Er4    10.0   1_565     S
V54     Er28    10.0   1_655     S
V57     Ti17    10.0   1_556     S
V57     Ti48    10.0   1_556     S
V59     Ti7    10.0   1_556     S
V59     Ti42    10.0   1_556     S
V60     Ti21    10.0   1_556     S
V60     Ti37    10.0   1_556     S
V63     Ti11    10.0   1_556     S
V63     Ti29    10.0   1_556     S
