data_mfj
_audit_creation_date              2020-02-02
_audit_creation_method            'Pymatgen'
_symmetry_space_group_name_H-M    'P1'
_symmetry_Int_Tables_number       1
loop_
_symmetry_equiv_pos_as_xyz
  x,y,z
_cell_length_a                    42.9073
_cell_length_b                    56.4484
_cell_length_c                    32.791
_cell_angle_alpha                 90.0
_cell_angle_beta                 90.0
_cell_angle_gamma                 90.0
loop_
_atom_site_label
_atom_site_type_symbol
_atom_site_fract_x
_atom_site_fract_y
_atom_site_fract_z
V1     V     0.3835   0.2502   0.75
V2     V     0.6165   0.2502   0.75
V3     V     0.1165   0.2498   0.25
V4     V     0.8835   0.2498   0.25
Er5     Er     0.3342   0.0861   0.0357
Ce6     Ce     0.25   0.25   0.0
Er7     Er     0.1658   0.4139   0.9643
Ce8     Ce     0.75   0.25   0.0
Er9     Er     0.6658   0.0861   0.0357
Er10     Er     0.8342   0.4139   0.9643
Ti11     Ti     0.5   0.0855   0.25
Er12     Er     0.3342   0.0861   0.4643
Er13     Er     0.1658   0.4139   0.5357
Ce14     Ce     0.25   0.25   0.5
Ce15     Ce     0.75   0.25   0.5
Er16     Er     0.6658   0.0861   0.4643
Er17     Er     0.8342   0.4139   0.5357
Ti18     Ti     0.0   0.4146   0.75
V19     V     0.3835   0.7498   0.25
V20     V     0.6165   0.7498   0.25
V21     V     0.1165   0.7502   0.75
V22     V     0.8835   0.7502   0.75
Er23     Er     0.3342   0.9139   0.5357
Ce24     Ce     0.25   0.75   0.5
Er25     Er     0.1658   0.5861   0.4643
Er26     Er     0.1658   0.5861   0.0357
Er27     Er     0.3342   0.9139   0.9643
Ce28     Ce     0.25   0.75   0.0
Ce29     Ce     0.75   0.75   0.0
Er30     Er     0.6658   0.9139   0.9643
Er31     Er     0.8342   0.5861   0.0357
Ti32     Ti     0.0   0.5854   0.25
Er33     Er     0.8342   0.5861   0.4643
Er34     Er     0.6658   0.9139   0.5357
Ce35     Ce     0.75   0.75   0.5
Ti36     Ti     0.5   0.9146   0.75
loop_
_geom_bond_atom_site_label_1
_geom_bond_atom_site_label_2
_geom_bond_distance
_geom_bond_site_symmetry_2
_ccdc_geom_bond_type
V1     V2    10.0   .     S
V1     Ce6    10.0   1_556     S
V1     Ce14    10.0   .     S
V2     Ce8    10.0   1_556     S
V2     Ce15    10.0   .     S
V3     V4    10.0   1_455     S
V3     Ce6    10.0   .     S
V3     Ce14    10.0   .     S
V4     V3    10.0   1_655     S
V4     Ce8    10.0   .     S
V4     Ce15    10.0   .     S
Er5     Ce6    10.0   .     S
Er5     Ti11    10.0   .     S
Er5     Er27    10.001   1_544     S
Ce6     Er7    10.0   1_554     S
Ce6     V1    10.0   1_554     S
Er7     Ce6    10.0   1_556     S
Er7     Ti18    10.0   .     S
Er7     Er26    10.001   1_556     S
Ce8     Er10    10.0   1_554     S
Ce8     Er9    10.0   .     S
Ce8     V2    10.0   1_554     S
Er9     Ti11    10.0   .     S
Er9     Er30    10.001   1_544     S
Er10     Ce8    10.0   1_556     S
Er10     Ti18    10.0   1_655     S
Er10     Er31    10.001   1_556     S
Ti11     Er12    10.0   .     S
Ti11     Er16    10.0   .     S
Er12     Ce14    10.0   .     S
Er12     Er23    10.001   1_545     S
Er13     Ce14    10.0   .     S
Er13     Ti18    10.0   .     S
Er13     Er25    10.001   .     S
Ce15     Er17    10.0   .     S
Ce15     Er16    10.0   .     S
Er16     Er34    10.001   1_545     S
Er17     Ti18    10.0   1_655     S
Er17     Er33    10.001   .     S
Ti18     Er10    10.0   1_455     S
Ti18     Er17    10.0   1_455     S
V19     V20    10.0   .     S
V19     Ce24    10.0   .     S
V19     Ce28    10.0   .     S
V20     Ce29    10.0   .     S
V20     Ce35    10.0   .     S
V21     V22    10.0   1_455     S
V21     Ce24    10.0   .     S
V21     Ce28    10.0   1_556     S
V22     V21    10.0   1_655     S
V22     Ce29    10.0   1_556     S
V22     Ce35    10.0   .     S
Er23     Ce24    10.0   .     S
Er23     Ti36    10.0   .     S
Er23     Er12    10.001   1_565     S
Ce24     Er25    10.0   .     S
Er25     Ti32    10.0   .     S
Er26     Ce28    10.0   .     S
Er26     Ti32    10.0   .     S
Er26     Er7    10.001   1_554     S
Er27     Ce28    10.0   1_556     S
Er27     Ti36    10.0   .     S
Er27     Er5    10.001   1_566     S
Ce28     Er27    10.0   1_554     S
Ce28     V21    10.0   1_554     S
Ce29     Er30    10.0   1_554     S
Ce29     Er31    10.0   .     S
Ce29     V22    10.0   1_554     S
Er30     Ce29    10.0   1_556     S
Er30     Ti36    10.0   .     S
Er30     Er9    10.001   1_566     S
Er31     Ti32    10.0   1_655     S
Er31     Er10    10.001   1_554     S
Ti32     Er33    10.0   1_455     S
Ti32     Er31    10.0   1_455     S
Er33     Ti32    10.0   1_655     S
Er33     Ce35    10.0   .     S
Er34     Ce35    10.0   .     S
Er34     Ti36    10.0   .     S
Er34     Er16    10.001   1_565     S
