data_mft
_audit_creation_date              2020-02-02
_audit_creation_method            'Pymatgen'
_symmetry_space_group_name_H-M    'P1'
_symmetry_Int_Tables_number       1
loop_
_symmetry_equiv_pos_as_xyz
  x,y,z
_cell_length_a                    46.0059
_cell_length_b                    46.0059
_cell_length_c                    62.8742
_cell_angle_alpha                 90.0
_cell_angle_beta                 90.0
_cell_angle_gamma                 120.0
loop_
_atom_site_label
_atom_site_type_symbol
_atom_site_fract_x
_atom_site_fract_y
_atom_site_fract_z
V1     V     0.792   0.3331   0.6705
V2     V     0.792   0.3331   0.8295
V3     V     0.6669   0.459   0.6705
V4     V     0.6669   0.459   0.8295
V5     V     0.541   0.208   0.6705
V6     V     0.541   0.208   0.8295
Er7     Er     0.4588   0.1255   0.5233
Er8     Er     0.4588   0.3333   0.4767
Er9     Er     0.6667   0.1255   0.4767
Er10     Er     0.8745   0.3333   0.5233
Er11     Er     0.8745   0.5412   0.4767
Er12     Er     0.6667   0.5412   0.5233
Er13     Er     0.1255   0.4588   0.5233
Er14     Er     0.3333   0.4588   0.4767
Er15     Er     0.1255   0.6667   0.4767
Er16     Er     0.3333   0.8745   0.5233
Er17     Er     0.5412   0.6667   0.5233
Er18     Er     0.5412   0.8745   0.4767
V19     V     0.3331   0.792   0.8295
V20     V     0.3331   0.792   0.6705
V21     V     0.459   0.6669   0.8295
V22     V     0.459   0.6669   0.6705
V23     V     0.208   0.541   0.6705
V24     V     0.208   0.541   0.8295
V25     V     0.541   0.3331   0.3295
V26     V     0.541   0.3331   0.1705
V27     V     0.6669   0.208   0.3295
V28     V     0.6669   0.208   0.1705
V29     V     0.792   0.459   0.3295
V30     V     0.792   0.459   0.1705
Er31     Er     0.5412   0.8745   0.0233
Er32     Er     0.5412   0.6667   0.9767
Er33     Er     0.1255   0.6667   0.0233
Er34     Er     0.3333   0.8745   0.9767
Er35     Er     0.1255   0.4588   0.9767
Er36     Er     0.3333   0.4588   0.0233
Er37     Er     0.8745   0.5412   0.0233
Er38     Er     0.6667   0.5412   0.9767
Er39     Er     0.6667   0.1255   0.0233
Er40     Er     0.8745   0.3333   0.9767
Er41     Er     0.4588   0.1255   0.9767
Er42     Er     0.4588   0.3333   0.0233
V43     V     0.3331   0.541   0.1705
V44     V     0.3331   0.541   0.3295
V45     V     0.208   0.6669   0.1705
V46     V     0.208   0.6669   0.3295
V47     V     0.459   0.792   0.1705
V48     V     0.459   0.792   0.3295
loop_
_geom_bond_atom_site_label_1
_geom_bond_atom_site_label_2
_geom_bond_distance
_geom_bond_site_symmetry_2
_ccdc_geom_bond_type
V1     V2    10.0   .     S
V1     V5    10.0   .     S
V1     V3    10.0   .     S
V1     Er10    10.0   .     S
V2     V6    10.0   .     S
V2     V4    10.0   .     S
V2     Er40    10.0   .     S
V3     V4    10.0   .     S
V3     V5    10.0   .     S
V3     Er12    10.0   .     S
V4     V6    10.0   .     S
V4     Er38    10.0   .     S
V5     V6    10.0   .     S
V5     Er7    10.0   .     S
V6     Er41    10.0   .     S
Er7     Er8    10.0   .     S
Er7     Er9    10.0   .     S
Er7     Er16    10.0   1_545     S
Er8     Er12    10.0   .     S
Er8     V25    10.0   .     S
Er8     Er14    10.0   .     S
Er9     Er10    10.0   .     S
Er9     V27    10.0   .     S
Er9     Er18    10.0   1_545     S
Er10     Er11    10.0   .     S
Er10     Er13    10.0   1_655     S
Er11     Er12    10.0   .     S
Er11     V29    10.0   .     S
Er11     Er15    10.0   1_655     S
Er12     Er17    10.0   .     S
Er13     Er10    10.0   1_455     S
Er13     Er14    10.0   .     S
Er13     Er15    10.0   .     S
Er13     V23    10.0   .     S
Er14     Er17    10.0   .     S
Er14     V44    10.0   .     S
Er15     Er16    10.0   .     S
Er15     V46    10.0   .     S
Er15     Er11    10.0   1_455     S
Er16     Er18    10.0   .     S
Er16     V20    10.0   .     S
Er16     Er7    10.0   1_565     S
Er17     Er18    10.0   .     S
Er17     V22    10.0   .     S
Er18     V48    10.0   .     S
Er18     Er9    10.0   1_565     S
V19     V20    10.0   .     S
V19     V24    10.0   .     S
V19     V21    10.0   .     S
V19     Er34    10.0   .     S
V20     V23    10.0   .     S
V20     V22    10.0   .     S
V21     V22    10.0   .     S
V21     V24    10.0   .     S
V21     Er32    10.0   .     S
V22     V23    10.0   .     S
V23     V24    10.0   .     S
V24     Er35    10.0   .     S
V25     V26    10.0   .     S
V25     V27    10.0   .     S
V25     V29    10.0   .     S
V26     V28    10.0   .     S
V26     V30    10.0   .     S
V26     Er42    10.0   .     S
V27     V28    10.0   .     S
V27     V29    10.0   .     S
V28     V30    10.0   .     S
V28     Er39    10.0   .     S
V29     V30    10.0   .     S
V30     Er37    10.0   .     S
Er31     Er34    10.0   1_554     S
Er31     Er32    10.0   1_554     S
Er31     V47    10.0   .     S
Er31     Er39    10.0   1_565     S
Er32     Er31    10.0   1_556     S
Er32     Er36    10.0   1_556     S
Er32     Er38    10.0   .     S
Er33     Er34    10.0   1_554     S
Er33     Er35    10.0   1_554     S
Er33     V45    10.0   .     S
Er33     Er37    10.0   1_455     S
Er34     Er31    10.0   1_556     S
Er34     Er33    10.0   1_556     S
Er34     Er41    10.0   1_565     S
Er35     Er36    10.0   1_556     S
Er35     Er33    10.0   1_556     S
Er35     Er40    10.0   1_455     S
Er36     Er35    10.0   1_554     S
Er36     Er32    10.0   1_554     S
Er36     V43    10.0   .     S
Er36     Er42    10.0   .     S
Er37     Er38    10.0   1_554     S
Er37     Er40    10.0   1_554     S
Er37     Er33    10.0   1_655     S
Er38     Er37    10.0   1_556     S
Er38     Er42    10.0   1_556     S
Er39     Er31    10.0   1_545     S
Er39     Er40    10.0   1_554     S
Er39     Er41    10.0   1_554     S
Er40     Er37    10.0   1_556     S
Er40     Er39    10.0   1_556     S
Er40     Er35    10.0   1_655     S
Er41     Er34    10.0   1_545     S
Er41     Er42    10.0   1_556     S
Er41     Er39    10.0   1_556     S
Er42     Er38    10.0   1_554     S
Er42     Er41    10.0   1_554     S
V43     V44    10.0   .     S
V43     V45    10.0   .     S
V43     V47    10.0   .     S
V44     V46    10.0   .     S
V44     V48    10.0   .     S
V45     V46    10.0   .     S
V45     V47    10.0   .     S
V46     V48    10.0   .     S
V47     V48    10.0   .     S
