data_mgc
_audit_creation_date              2020-02-02
_audit_creation_method            'Pymatgen'
_symmetry_space_group_name_H-M    'P1'
_symmetry_Int_Tables_number       1
loop_
_symmetry_equiv_pos_as_xyz
  x,y,z
_cell_length_a                    24.1209
_cell_length_b                    24.1209
_cell_length_c                    24.1209
_cell_angle_alpha                 90.0
_cell_angle_beta                 90.0
_cell_angle_gamma                 90.0
loop_
_atom_site_label
_atom_site_type_symbol
_atom_site_fract_x
_atom_site_fract_y
_atom_site_fract_z
Er1     Er     0.125   0.625   0.125
Er2     Er     0.125   0.125   0.625
Er3     Er     0.625   0.125   0.125
V4     V     0.75   0.25   0.5
V5     V     0.5   0.75   0.25
V6     V     0.25   0.75   0.5
V7     V     0.25   0.5   0.75
V8     V     0.5   0.25   0.75
V9     V     0.75   0.5   0.25
V10     V     0.75   0.0   0.75
V11     V     0.0   0.75   0.75
Er12     Er     0.875   0.875   0.375
V13     V     0.75   0.75   0.0
Er14     Er     0.875   0.375   0.875
Er15     Er     0.375   0.875   0.875
Er16     Er     0.625   0.625   0.625
Er17     Er     0.375   0.375   0.375
V18     V     0.5   0.0   0.5
V19     V     0.0   0.25   0.25
V20     V     0.25   0.0   0.25
V21     V     0.0   0.5   0.5
V22     V     0.0   0.0   0.0
V23     V     0.25   0.25   0.0
V24     V     0.5   0.5   0.0
loop_
_geom_bond_atom_site_label_1
_geom_bond_atom_site_label_2
_geom_bond_distance
_geom_bond_site_symmetry_2
_ccdc_geom_bond_type
Er1     V23    10.0   .     S
Er1     V19    10.0   .     S
Er1     V6    10.0   .     S
Er1     V20    10.0   1_565     S
Er1     V5    10.0   .     S
Er1     V22    10.0   1_565     S
Er1     V11    10.0   1_554     S
Er1     V13    10.0   1_455     S
Er1     V21    10.0   .     S
Er1     V9    10.0   1_455     S
Er1     V7    10.0   1_554     S
Er1     V24    10.0   .     S
Er2     V19    10.0   .     S
Er2     V20    10.0   .     S
Er2     V7    10.0   .     S
Er2     V23    10.0   1_556     S
Er2     V8    10.0   .     S
Er2     V22    10.0   1_556     S
Er2     V10    10.0   1_455     S
Er2     V11    10.0   1_545     S
Er2     V4    10.0   1_455     S
Er2     V6    10.0   1_545     S
Er2     V21    10.0   .     S
Er2     V18    10.0   .     S
Er3     V23    10.0   .     S
Er3     V20    10.0   .     S
Er3     V4    10.0   .     S
Er3     V19    10.0   1_655     S
Er3     V9    10.0   .     S
Er3     V10    10.0   1_554     S
Er3     V22    10.0   1_655     S
Er3     V13    10.0   1_545     S
Er3     V5    10.0   1_545     S
Er3     V18    10.0   .     S
Er3     V8    10.0   1_554     S
Er3     V24    10.0   .     S
V4     Er2    10.0   1_655     S
V4     Er17    10.0   .     S
V4     Er14    10.0   .     S
V4     Er12    10.0   1_545     S
V4     Er16    10.0   .     S
V5     Er3    10.0   1_565     S
V5     Er17    10.0   .     S
V5     Er15    10.0   1_554     S
V5     Er12    10.0   .     S
V5     Er16    10.0   .     S
V6     Er2    10.0   1_565     S
V6     Er17    10.0   .     S
V6     Er15    10.0   .     S
V6     Er12    10.0   1_455     S
V6     Er16    10.0   .     S
V7     Er1    10.0   1_556     S
V7     Er17    10.0   .     S
V7     Er15    10.0   .     S
V7     Er14    10.0   1_455     S
V7     Er16    10.0   .     S
V8     Er3    10.0   1_556     S
V8     Er17    10.0   .     S
V8     Er15    10.0   1_545     S
V8     Er14    10.0   .     S
V8     Er16    10.0   .     S
V9     Er1    10.0   1_655     S
V9     Er17    10.0   .     S
V9     Er14    10.0   1_554     S
V9     Er12    10.0   .     S
V9     Er16    10.0   .     S
V10     Er2    10.0   1_655     S
V10     Er3    10.0   1_556     S
V10     Er15    10.0   1_545     S
V10     Er14    10.0   .     S
V10     Er12    10.0   1_545     S
V10     Er16    10.0   1_545     S
V11     Er1    10.0   1_556     S
V11     Er2    10.0   1_565     S
V11     Er15    10.0   .     S
V11     Er14    10.0   1_455     S
V11     Er12    10.0   1_455     S
V11     Er16    10.0   1_455     S
Er12     V6    10.0   1_655     S
Er12     V21    10.0   1_655     S
Er12     V11    10.0   1_655     S
Er12     V13    10.0   .     S
Er12     V4    10.0   1_565     S
Er12     V18    10.0   1_565     S
Er12     V10    10.0   1_565     S
Er12     V19    10.0   1_665     S
Er12     V20    10.0   1_665     S
Er12     V22    10.0   1_665     S
V13     Er1    10.0   1_655     S
V13     Er3    10.0   1_565     S
V13     Er15    10.0   1_554     S
V13     Er14    10.0   1_554     S
V13     Er16    10.0   1_554     S
Er14     V13    10.0   1_556     S
Er14     V24    10.0   1_556     S
Er14     V9    10.0   1_556     S
Er14     V21    10.0   1_655     S
Er14     V11    10.0   1_655     S
Er14     V7    10.0   1_655     S
Er14     V23    10.0   1_656     S
Er14     V19    10.0   1_656     S
Er14     V22    10.0   1_656     S
Er15     V8    10.0   1_565     S
Er15     V18    10.0   1_565     S
Er15     V10    10.0   1_565     S
Er15     V13    10.0   1_556     S
Er15     V24    10.0   1_556     S
Er15     V5    10.0   1_556     S
Er15     V20    10.0   1_566     S
Er15     V23    10.0   1_566     S
Er15     V22    10.0   1_566     S
Er16     V18    10.0   1_565     S
Er16     V24    10.0   1_556     S
Er16     V13    10.0   1_556     S
Er16     V11    10.0   1_655     S
Er16     V10    10.0   1_565     S
Er16     V21    10.0   1_655     S
Er17     V20    10.0   .     S
Er17     V18    10.0   .     S
Er17     V23    10.0   .     S
Er17     V24    10.0   .     S
Er17     V21    10.0   .     S
Er17     V19    10.0   .     S
V18     Er15    10.0   1_545     S
V18     Er12    10.0   1_545     S
V18     Er16    10.0   1_545     S
V19     Er3    10.0   1_455     S
V19     Er14    10.0   1_454     S
V19     Er12    10.0   1_445     S
V20     Er1    10.0   1_545     S
V20     Er15    10.0   1_544     S
V20     Er12    10.0   1_445     S
V21     Er14    10.0   1_455     S
V21     Er12    10.0   1_455     S
V21     Er16    10.0   1_455     S
V22     Er1    10.0   1_545     S
V22     Er2    10.0   1_554     S
V22     Er3    10.0   1_455     S
V22     Er15    10.0   1_544     S
V22     Er14    10.0   1_454     S
V22     Er12    10.0   1_445     S
V23     Er2    10.0   1_554     S
V23     Er15    10.0   1_544     S
V23     Er14    10.0   1_454     S
V24     Er15    10.0   1_554     S
V24     Er14    10.0   1_554     S
V24     Er16    10.0   1_554     S
