data_mgca
_audit_creation_date              2020-02-02
_audit_creation_method            'Pymatgen'
_symmetry_space_group_name_H-M    'P1'
_symmetry_Int_Tables_number       1
loop_
_symmetry_equiv_pos_as_xyz
  x,y,z
_cell_length_a                    76.0882
_cell_length_b                    76.0882
_cell_length_c                    76.0882
_cell_angle_alpha                 90.0
_cell_angle_beta                 90.0
_cell_angle_gamma                 90.0
loop_
_atom_site_label
_atom_site_type_symbol
_atom_site_fract_x
_atom_site_fract_y
_atom_site_fract_z
V1     V     0.7021   0.3615   0.048
Er2     Er     0.6715   0.4856   0.0785
V3     V     0.8885   0.5479   0.048
Er4     Er     0.7644   0.5785   0.0785
V5     V     0.702   0.548   0.8615
Er6     Er     0.6715   0.5785   0.9856
V7     V     0.298   0.452   0.1385
Er8     Er     0.3285   0.4215   0.0144
Er9     Er     0.2356   0.4215   0.9215
V10     V     0.1115   0.452   0.952
V11     V     0.2979   0.6385   0.952
Er12     Er     0.3285   0.5144   0.9215
Er13     Er     0.4215   0.7356   0.4215
V14     V     0.452   0.6115   0.452
V15     V     0.452   0.7979   0.6385
Er16     Er     0.4215   0.8285   0.5144
V17     V     0.6385   0.798   0.452
Er18     Er     0.5144   0.8285   0.4215
V19     V     0.202   0.548   0.3615
Er20     Er     0.1715   0.5785   0.4856
V21     V     0.202   0.3615   0.5479
Er22     Er     0.1715   0.4856   0.5785
Er23     Er     0.2644   0.5785   0.5785
V24     V     0.3885   0.5479   0.5479
Er25     Er     0.4215   0.4215   0.7356
V26     V     0.452   0.452   0.6115
V27     V     0.6385   0.452   0.798
Er28     Er     0.5144   0.4215   0.8285
V29     V     0.452   0.6385   0.7979
Er30     Er     0.4215   0.5144   0.8285
V31     V     0.048   0.3615   0.7021
Er32     Er     0.0785   0.4856   0.6715
V33     V     0.048   0.548   0.8885
Er34     Er     0.0785   0.5785   0.7644
V35     V     0.8615   0.548   0.702
Er36     Er     0.9856   0.5785   0.6715
V37     V     0.798   0.798   0.6115
Er38     Er     0.8285   0.8285   0.7356
V39     V     0.798   0.6115   0.798
Er40     Er     0.8285   0.7356   0.8285
V41     V     0.6115   0.7979   0.7979
Er42     Er     0.7356   0.8285   0.8285
Er43     Er     0.4856   0.6715   0.0785
V44     V     0.3615   0.702   0.0479
V45     V     0.548   0.8885   0.048
Er46     Er     0.5785   0.7644   0.0785
V47     V     0.548   0.7021   0.8615
Er48     Er     0.5785   0.6715   0.9856
Er49     Er     0.8285   0.0144   0.9215
V50     V     0.7979   0.1385   0.952
V51     V     0.6115   0.952   0.952
Er52     Er     0.7356   0.9215   0.9215
Er53     Er     0.8285   0.9215   0.0144
V54     V     0.798   0.952   0.1385
Er55     Er     0.4856   0.0785   0.6715
V56     V     0.3615   0.048   0.702
V57     V     0.548   0.048   0.8885
Er58     Er     0.5785   0.0785   0.7644
V59     V     0.548   0.8615   0.702
Er60     Er     0.5785   0.9856   0.6715
Er61     Er     0.3285   0.0144   0.4215
V62     V     0.298   0.1385   0.452
V63     V     0.298   0.952   0.6385
Er64     Er     0.3285   0.9215   0.5144
Er65     Er     0.2356   0.9215   0.4215
V66     V     0.1115   0.952   0.452
V67     V     0.048   0.7021   0.3615
Er68     Er     0.0785   0.6715   0.4856
V69     V     0.048   0.8885   0.548
Er70     Er     0.0785   0.7644   0.5785
V71     V     0.8615   0.702   0.548
Er72     Er     0.9856   0.6715   0.5785
Er73     Er     0.7356   0.4215   0.4215
V74     V     0.6115   0.452   0.452
Er75     Er     0.8285   0.4215   0.5144
V76     V     0.798   0.452   0.6385
V77     V     0.798   0.6385   0.452
Er78     Er     0.8285   0.5144   0.4215
V79     V     0.952   0.6385   0.298
Er80     Er     0.9215   0.5144   0.3285
Er81     Er     0.0144   0.4215   0.3285
V82     V     0.1385   0.452   0.298
Er83     Er     0.9215   0.4215   0.2356
V84     V     0.952   0.452   0.1115
V85     V     0.298   0.298   0.6115
Er86     Er     0.3285   0.3285   0.7356
Er87     Er     0.2356   0.3285   0.8285
V88     V     0.1115   0.298   0.798
V89     V     0.298   0.1115   0.7979
Er90     Er     0.3285   0.2356   0.8285
Er91     Er     0.4856   0.1715   0.5785
V92     V     0.3615   0.202   0.548
Er93     Er     0.5785   0.1715   0.4856
V94     V     0.548   0.202   0.3615
Er95     Er     0.5785   0.2644   0.5785
V96     V     0.548   0.3885   0.548
Er97     Er     0.7356   0.3285   0.3285
V98     V     0.6115   0.298   0.298
V99     V     0.7979   0.1115   0.298
Er100     Er     0.8285   0.2356   0.3285
Er101     Er     0.8285   0.3285   0.2356
V102     V     0.798   0.298   0.1115
Er103     Er     0.5785   0.4856   0.1715
V104     V     0.548   0.3615   0.202
Er105     Er     0.4856   0.5785   0.1715
V106     V     0.3615   0.548   0.2021
Er107     Er     0.5785   0.5785   0.2644
V108     V     0.548   0.548   0.3885
Er109     Er     0.3285   0.7356   0.3285
V110     V     0.2979   0.6115   0.2979
V111     V     0.298   0.7979   0.1115
Er112     Er     0.3285   0.8285   0.2356
V113     V     0.1115   0.798   0.2979
Er114     Er     0.2356   0.8285   0.3285
Er115     Er     0.0785   0.0785   0.2644
V116     V     0.048   0.048   0.3885
V117     V     0.8615   0.048   0.2021
Er118     Er     0.9856   0.0785   0.1715
V119     V     0.048   0.8615   0.202
Er120     Er     0.0785   0.9856   0.1715
V121     V     0.202   0.8885   0.702
Er122     Er     0.1715   0.7644   0.6715
V123     V     0.202   0.7021   0.8885
Er124     Er     0.1715   0.6715   0.7644
Er125     Er     0.2644   0.6715   0.6715
V126     V     0.3885   0.702   0.702
Er127     Er     0.9215   0.8285   0.0144
V128     V     0.952   0.7979   0.1385
Er129     Er     0.9215   0.7356   0.9215
V130     V     0.952   0.6115   0.952
Er131     Er     0.0144   0.8285   0.9215
V132     V     0.1385   0.798   0.952
V133     V     0.702   0.8885   0.2021
Er134     Er     0.6715   0.7644   0.1715
V135     V     0.8885   0.7021   0.202
Er136     Er     0.7644   0.6715   0.1715
Er137     Er     0.6715   0.6715   0.2644
V138     V     0.702   0.702   0.3885
Er139     Er     0.2644   0.0785   0.0785
V140     V     0.3885   0.048   0.048
V141     V     0.202   0.8615   0.048
Er142     Er     0.1715   0.9856   0.0785
Er143     Er     0.1715   0.0785   0.9856
V144     V     0.202   0.048   0.8615
V145     V     0.452   0.1385   0.298
Er146     Er     0.4215   0.0144   0.3285
Er147     Er     0.4215   0.9215   0.2356
V148     V     0.452   0.952   0.1115
V149     V     0.6385   0.952   0.298
Er150     Er     0.5144   0.9215   0.3285
Er151     Er     0.1715   0.1715   0.2644
V152     V     0.202   0.202   0.3885
Er153     Er     0.1715   0.2644   0.1715
V154     V     0.202   0.3885   0.202
Er155     Er     0.2644   0.1715   0.1715
V156     V     0.3885   0.202   0.202
Er157     Er     0.0144   0.3285   0.4215
V158     V     0.1385   0.2979   0.452
Er159     Er     0.9215   0.2356   0.4215
V160     V     0.952   0.1115   0.452
V161     V     0.952   0.298   0.6385
Er162     Er     0.9215   0.3285   0.5144
Er163     Er     0.4215   0.3285   0.0144
V164     V     0.452   0.298   0.1385
V165     V     0.6385   0.2979   0.952
Er166     Er     0.5144   0.3285   0.9215
Er167     Er     0.4215   0.2356   0.9215
V168     V     0.452   0.1115   0.952
V169     V     0.702   0.202   0.8885
Er170     Er     0.6715   0.1715   0.7644
V171     V     0.8885   0.202   0.7021
Er172     Er     0.7644   0.1715   0.6715
Er173     Er     0.6715   0.2644   0.6715
V174     V     0.7021   0.3885   0.7021
Er175     Er     0.9215   0.9215   0.7356
V176     V     0.952   0.952   0.6115
Er177     Er     0.0144   0.9215   0.8285
V178     V     0.1385   0.952   0.798
Er179     Er     0.9215   0.0144   0.8285
V180     V     0.952   0.1385   0.798
Er181     Er     0.0785   0.2644   0.0785
V182     V     0.048   0.3885   0.048
V183     V     0.048   0.202   0.8615
Er184     Er     0.0785   0.1715   0.9856
V185     V     0.8615   0.202   0.0479
Er186     Er     0.9856   0.1715   0.0785
Er187     Er     0.6715   0.0785   0.4856
V188     V     0.702   0.048   0.3615
V189     V     0.8885   0.048   0.548
Er190     Er     0.7644   0.0785   0.5785
V191     V     0.702   0.8615   0.548
Er192     Er     0.6715   0.9856   0.5785
loop_
_geom_bond_atom_site_label_1
_geom_bond_atom_site_label_2
_geom_bond_distance
_geom_bond_site_symmetry_2
_ccdc_geom_bond_type
V1     Er2    9.999   .     S
V1     V102    10.0   .     S
V1     V165    10.0   1_554     S
Er2     Er6    10.0   1_554     S
Er2     Er4    10.0   .     S
Er2     Er103    10.001   .     S
V3     Er4    9.999   .     S
V3     V84    10.0   .     S
V3     V130    10.0   1_554     S
Er4     Er6    10.0   1_554     S
Er4     Er136    10.001   .     S
V5     Er6    9.999   .     S
V5     V39    10.0   .     S
V5     V27    10.0   .     S
Er6     Er2    10.0   1_556     S
Er6     Er4    10.0   1_556     S
Er6     Er48    10.001   .     S
V7     Er8    9.999   .     S
V7     V106    10.0   .     S
V7     V154    10.0   .     S
Er8     Er9    10.0   1_554     S
Er8     Er12    10.0   1_554     S
Er8     Er163    10.001   .     S
Er9     V10    9.999   .     S
Er9     Er12    10.0   .     S
Er9     Er8    10.0   1_556     S
Er9     Er87    10.001   .     S
V10     V33    10.0   .     S
V10     V182    10.0   1_556     S
V11     Er12    9.999   .     S
V11     V123    10.0   .     S
V11     V44    10.0   1_556     S
Er12     Er8    10.0   1_556     S
Er12     Er30    10.001   .     S
Er13     V14    9.999   .     S
Er13     Er18    10.0   .     S
Er13     Er16    10.0   .     S
Er13     Er109    10.001   .     S
V14     V24    10.0   .     S
V14     V108    10.0   .     S
V15     Er16    9.999   .     S
V15     V126    10.0   .     S
V15     V59    10.0   .     S
Er16     Er18    10.0   .     S
Er16     Er64    10.001   .     S
V17     Er18    9.999   .     S
V17     V138    10.0   .     S
V17     V191    10.0   .     S
Er18     Er150    10.001   .     S
V19     Er20    9.999   .     S
V19     V82    10.0   .     S
V19     V110    10.0   .     S
Er20     Er23    10.0   .     S
Er20     Er22    10.0   .     S
Er20     Er68    10.001   .     S
V21     Er22    9.999   .     S
V21     V158    10.0   .     S
V21     V85    10.0   .     S
Er22     Er23    10.0   .     S
Er22     Er32    10.001   .     S
Er23     V24    9.999   .     S
Er23     Er125    10.001   .     S
V24     V26    10.0   .     S
Er25     V26    9.999   .     S
Er25     Er30    10.0   .     S
Er25     Er28    10.0   .     S
Er25     Er86    10.001   .     S
V26     V96    10.0   .     S
V27     Er28    9.999   .     S
V27     V174    10.0   .     S
Er28     Er30    10.0   .     S
Er28     Er166    10.001   .     S
V29     Er30    9.999   .     S
V29     V126    10.0   .     S
V29     V47    10.0   .     S
V31     Er32    9.999   .     S
V31     V88    10.0   .     S
V31     V161    10.0   1_455     S
Er32     Er36    10.0   1_455     S
Er32     Er34    10.0   .     S
V33     Er34    9.999   .     S
V33     V130    10.0   1_455     S
Er34     Er36    10.0   1_455     S
Er34     Er124    10.001   .     S
V35     Er36    9.999   .     S
V35     V39    10.0   .     S
V35     V76    10.0   .     S
Er36     Er34    10.0   1_655     S
Er36     Er32    10.0   1_655     S
Er36     Er72    10.001   .     S
V37     Er38    9.999   .     S
V37     V191    10.0   .     S
V37     V71    10.0   .     S
Er38     Er40    10.0   .     S
Er38     Er42    10.0   .     S
Er38     Er175    10.001   .     S
V39     Er40    9.999   .     S
Er40     Er42    10.0   .     S
Er40     Er129    10.001   .     S
V41     Er42    9.999   .     S
V41     V59    10.0   .     S
V41     V47    10.0   .     S
Er42     Er52    10.001   .     S
Er43     V44    9.999   .     S
Er43     Er48    10.0   1_554     S
Er43     Er46    10.0   .     S
Er43     Er105    10.001   .     S
V44     V11    10.0   1_554     S
V44     V111    10.0   .     S
V45     Er46    9.999   .     S
V45     V51    10.0   1_554     S
V45     V148    10.0   .     S
Er46     Er48    10.0   1_554     S
Er46     Er134    10.001   .     S
V47     Er48    9.999   .     S
Er48     Er43    10.0   1_556     S
Er48     Er46    10.0   1_556     S
Er49     V50    9.999   .     S
Er49     Er52    10.0   1_545     S
Er49     Er53    10.0   1_546     S
Er49     Er179    10.001   .     S
V50     V169    10.0   .     S
V50     V185    10.0   1_556     S
V51     V45    10.0   1_556     S
V51     Er52    9.999   .     S
V51     V57    10.0   1_565     S
Er52     Er53    10.0   1_556     S
Er52     Er49    10.0   1_565     S
Er53     Er52    10.0   1_554     S
Er53     Er49    10.0   1_564     S
Er53     V54    9.999   .     S
Er53     Er127    10.001   .     S
V54     V133    10.0   .     S
V54     V117    10.0   1_565     S
Er55     V56    9.999   .     S
Er55     Er60    10.0   1_545     S
Er55     Er58    10.0   .     S
Er55     Er91    10.001   .     S
V56     V63    10.0   1_545     S
V56     V89    10.0   .     S
V57     Er58    9.999   .     S
V57     V51    10.0   1_545     S
V57     V168    10.0   .     S
Er58     Er60    10.0   1_545     S
Er58     Er170    10.001   .     S
V59     Er60    9.999   .     S
Er60     Er55    10.0   1_565     S
Er60     Er58    10.0   1_565     S
Er60     Er192    10.001   .     S
Er61     V62    9.999   .     S
Er61     Er65    10.0   1_545     S
Er61     Er64    10.0   1_545     S
Er61     Er146    10.001   .     S
V62     V152    10.0   .     S
V62     V92    10.0   .     S
V63     Er64    9.999   .     S
V63     V56    10.0   1_565     S
V63     V121    10.0   .     S
Er64     Er65    10.0   .     S
Er64     Er61    10.0   1_565     S
Er65     Er61    10.0   1_565     S
Er65     V66    9.999   .     S
Er65     Er114    10.001   .     S
V66     V69    10.0   .     S
V66     V116    10.0   1_565     S
V67     Er68    9.999   .     S
V67     V113    10.0   .     S
V67     V79    10.0   1_455     S
Er68     Er72    10.0   1_455     S
Er68     Er70    10.0   .     S
V69     Er70    9.999   .     S
V69     V176    10.0   1_455     S
Er70     Er72    10.0   1_455     S
Er70     Er122    10.001   .     S
V71     Er72    9.999   .     S
V71     V77    10.0   .     S
Er72     Er68    10.0   1_655     S
Er72     Er70    10.0   1_655     S
Er73     V74    9.999   .     S
Er73     Er78    10.0   .     S
Er73     Er75    10.0   .     S
Er73     Er97    10.001   .     S
V74     V108    10.0   .     S
V74     V96    10.0   .     S
Er75     V76    9.999   .     S
Er75     Er78    10.0   .     S
Er75     Er162    10.001   .     S
V76     V174    10.0   .     S
V77     Er78    9.999   .     S
V77     V138    10.0   .     S
Er78     Er80    10.001   .     S
V79     Er80    9.999   .     S
V79     V135    10.0   .     S
V79     V67    10.0   1_655     S
Er80     Er83    10.0   .     S
Er80     Er81    10.0   1_655     S
Er81     V82    9.999   .     S
Er81     Er80    10.0   1_455     S
Er81     Er83    10.0   1_455     S
Er81     Er157    10.001   .     S
V82     V154    10.0   .     S
Er83     Er81    10.0   1_655     S
Er83     V84    9.999   .     S
Er83     Er101    10.001   .     S
V84     V182    10.0   1_655     S
V85     Er86    9.999   .     S
V85     V92    10.0   .     S
Er86     Er87    10.0   .     S
Er86     Er90    10.0   .     S
Er87     V88    9.999   .     S
Er87     Er90    10.0   .     S
V88     V183    10.0   .     S
V89     Er90    9.999   .     S
V89     V144    10.0   .     S
Er90     Er167    10.001   .     S
Er91     V92    9.999   .     S
Er91     Er95    10.0   .     S
Er91     Er93    10.0   .     S
Er93     V94    9.999   .     S
Er93     Er95    10.0   .     S
Er93     Er187    10.001   .     S
V94     V98    10.0   .     S
V94     V145    10.0   .     S
Er95     V96    9.999   .     S
Er95     Er173    10.001   .     S
Er97     V98    9.999   .     S
Er97     Er100    10.0   .     S
Er97     Er101    10.0   .     S
V98     V104    10.0   .     S
V99     Er100    9.999   .     S
V99     V188    10.0   .     S
V99     V117    10.0   .     S
Er100     Er101    10.0   .     S
Er100     Er159    10.001   .     S
Er101     V102    9.999   .     S
V102     V185    10.0   .     S
Er103     V104    9.999   .     S
Er103     Er107    10.0   .     S
Er103     Er105    10.0   .     S
V104     V164    10.0   .     S
Er105     V106    9.999   .     S
Er105     Er107    10.0   .     S
V106     V110    10.0   .     S
Er107     V108    9.999   .     S
Er107     Er137    10.001   .     S
Er109     V110    9.999   .     S
Er109     Er114    10.0   .     S
Er109     Er112    10.0   .     S
V111     Er112    9.999   .     S
V111     V141    10.0   .     S
Er112     Er114    10.0   .     S
Er112     Er147    10.001   .     S
V113     Er114    9.999   .     S
V113     V119    10.0   .     S
Er115     V116    9.999   .     S
Er115     Er120    10.0   1_545     S
Er115     Er118    10.0   1_455     S
Er115     Er151    10.001   .     S
V116     V66    10.0   1_545     S
V116     V160    10.0   1_455     S
V117     V54    10.0   1_545     S
V117     Er118    9.999   .     S
Er118     Er115    10.0   1_655     S
Er118     Er120    10.0   1_645     S
Er118     Er186    10.001   .     S
V119     Er120    9.999   .     S
V119     V128    10.0   1_455     S
Er120     Er115    10.0   1_565     S
Er120     Er118    10.0   1_465     S
Er120     Er142    10.001   .     S
V121     Er122    9.999   .     S
V121     V178    10.0   .     S
Er122     Er125    10.0   .     S
Er122     Er124    10.0   .     S
V123     Er124    9.999   .     S
V123     V132    10.0   .     S
Er124     Er125    10.0   .     S
Er125     V126    9.999   .     S
Er127     V128    9.999   .     S
Er127     Er129    10.0   1_554     S
Er127     Er131    10.0   1_654     S
V128     V119    10.0   1_655     S
V128     V135    10.0   .     S
Er129     V130    9.999   .     S
Er129     Er127    10.0   1_556     S
Er129     Er131    10.0   1_655     S
V130     V33    10.0   1_655     S
V130     V3    10.0   1_556     S
Er131     Er129    10.0   1_455     S
Er131     Er127    10.0   1_456     S
Er131     V132    9.999   .     S
Er131     Er177    10.001   .     S
V132     V141    10.0   1_556     S
V133     Er134    9.999   .     S
V133     V149    10.0   .     S
Er134     Er137    10.0   .     S
Er134     Er136    10.0   .     S
V135     Er136    9.999   .     S
Er136     Er137    10.0   .     S
Er137     V138    9.999   .     S
Er139     V140    9.999   .     S
Er139     Er143    10.0   1_554     S
Er139     Er142    10.0   1_545     S
Er139     Er155    10.001   .     S
V140     V168    10.0   1_554     S
V140     V148    10.0   1_545     S
V141     Er142    9.999   .     S
V141     V132    10.0   1_554     S
Er142     Er139    10.0   1_565     S
Er142     Er143    10.0   1_564     S
Er143     Er139    10.0   1_556     S
Er143     Er142    10.0   1_546     S
Er143     V144    9.999   .     S
Er143     Er184    10.001   .     S
V144     V178    10.0   1_545     S
V145     Er146    9.999   .     S
V145     V156    10.0   .     S
Er146     Er147    10.0   1_545     S
Er146     Er150    10.0   1_545     S
Er147     V148    9.999   .     S
Er147     Er150    10.0   .     S
Er147     Er146    10.0   1_565     S
V148     V140    10.0   1_565     S
V149     Er150    9.999   .     S
V149     V188    10.0   1_565     S
Er150     Er146    10.0   1_565     S
Er151     V152    9.999   .     S
Er151     Er155    10.0   .     S
Er151     Er153    10.0   .     S
V152     V158    10.0   .     S
Er153     V154    9.999   .     S
Er153     Er155    10.0   .     S
Er153     Er181    10.001   .     S
Er155     V156    9.999   .     S
V156     V164    10.0   .     S
Er157     V158    9.999   .     S
Er157     Er162    10.0   1_455     S
Er157     Er159    10.0   1_455     S
Er159     V160    9.999   .     S
Er159     Er162    10.0   .     S
Er159     Er157    10.0   1_655     S
V160     V116    10.0   1_655     S
V160     V189    10.0   .     S
V161     Er162    9.999   .     S
V161     V171    10.0   .     S
V161     V31    10.0   1_655     S
Er162     Er157    10.0   1_655     S
Er163     V164    9.999   .     S
Er163     Er166    10.0   1_554     S
Er163     Er167    10.0   1_554     S
V165     Er166    9.999   .     S
V165     V169    10.0   .     S
V165     V1    10.0   1_556     S
Er166     Er167    10.0   .     S
Er166     Er163    10.0   1_556     S
Er167     Er163    10.0   1_556     S
Er167     V168    9.999   .     S
V168     V140    10.0   1_556     S
V169     Er170    9.999   .     S
Er170     Er173    10.0   .     S
Er170     Er172    10.0   .     S
V171     Er172    9.999   .     S
V171     V180    10.0   .     S
Er172     Er173    10.0   .     S
Er172     Er190    10.001   .     S
Er173     V174    9.999   .     S
Er175     V176    9.999   .     S
Er175     Er177    10.0   1_655     S
Er175     Er179    10.0   1_565     S
V176     V69    10.0   1_655     S
V176     V189    10.0   1_565     S
Er177     V178    9.999   .     S
Er177     Er175    10.0   1_455     S
Er177     Er179    10.0   1_465     S
V178     V144    10.0   1_565     S
Er179     Er175    10.0   1_545     S
Er179     Er177    10.0   1_645     S
Er179     V180    9.999   .     S
V180     V183    10.0   1_655     S
Er181     V182    9.999   .     S
Er181     Er184    10.0   1_554     S
Er181     Er186    10.0   1_455     S
V182     V10    10.0   1_554     S
V182     V84    10.0   1_455     S
V183     Er184    9.999   .     S
V183     V180    10.0   1_455     S
Er184     Er181    10.0   1_556     S
Er184     Er186    10.0   1_456     S
V185     Er186    9.999   .     S
V185     V50    10.0   1_554     S
Er186     Er181    10.0   1_655     S
Er186     Er184    10.0   1_654     S
Er187     V188    9.999   .     S
Er187     Er192    10.0   1_545     S
Er187     Er190    10.0   .     S
V188     V149    10.0   1_545     S
V189     Er190    9.999   .     S
V189     V176    10.0   1_545     S
Er190     Er192    10.0   1_545     S
V191     Er192    9.999   .     S
Er192     Er187    10.0   1_565     S
Er192     Er190    10.0   1_565     S
