data_mgcx
_audit_creation_date              2020-02-02
_audit_creation_method            'Pymatgen'
_symmetry_space_group_name_H-M    'P1'
_symmetry_Int_Tables_number       1
loop_
_symmetry_equiv_pos_as_xyz
  x,y,z
_cell_length_a                    25.1184
_cell_length_b                    25.1184
_cell_length_c                    25.1184
_cell_angle_alpha                 90.0
_cell_angle_beta                 90.0
_cell_angle_gamma                 90.0
loop_
_atom_site_label
_atom_site_type_symbol
_atom_site_fract_x
_atom_site_fract_y
_atom_site_fract_z
Er1     Er     0.75   0.75   0.0
Er2     Er     0.0   0.75   0.75
Er3     Er     0.75   0.0   0.75
Er4     Er     0.5   0.5   0.0
Er5     Er     0.75   0.25   0.5
Er6     Er     0.75   0.5   0.25
Er7     Er     0.5   0.0   0.5
Er8     Er     0.25   0.5   0.75
Er9     Er     0.5   0.25   0.75
Er10     Er     0.25   0.75   0.5
Er11     Er     0.5   0.75   0.25
Er12     Er     0.0   0.5   0.5
Er13     Er     0.0   0.0   0.0
Er14     Er     0.0   0.25   0.25
Er15     Er     0.25   0.0   0.25
Er16     Er     0.25   0.25   0.0
V17     V     0.875   0.375   0.875
V18     V     0.375   0.875   0.875
V19     V     0.875   0.875   0.375
V20     V     0.125   0.125   0.625
V21     V     0.625   0.125   0.125
V22     V     0.125   0.625   0.125
V23     V     0.625   0.625   0.625
V24     V     0.375   0.375   0.375
loop_
_geom_bond_atom_site_label_1
_geom_bond_atom_site_label_2
_geom_bond_distance
_geom_bond_site_symmetry_2
_ccdc_geom_bond_type
Er1     V19    10.414   .     S
Er1     V23    10.414   1_554     S
Er1     V18    10.414   1_554     S
Er1     V22    10.414   1_655     S
Er1     V17    10.414   1_554     S
Er1     V21    10.414   1_565     S
Er1     Er13    8.881   1_665     S
Er1     Er3    8.881   1_564     S
Er1     Er2    8.881   1_654     S
Er1     Er4    8.881   .     S
Er1     Er6    8.881   .     S
Er1     Er11    8.881   .     S
Er2     V19    10.414   1_455     S
Er2     V23    10.414   1_455     S
Er2     V18    10.414   .     S
Er2     V22    10.414   1_556     S
Er2     V17    10.414   1_455     S
Er2     V20    10.414   1_565     S
Er2     Er13    8.881   1_566     S
Er2     Er1    8.881   1_456     S
Er2     Er3    8.881   1_465     S
Er2     Er8    8.881   .     S
Er2     Er10    8.881   .     S
Er2     Er12    8.881   .     S
Er3     V19    10.414   1_545     S
Er3     V23    10.414   1_545     S
Er3     V18    10.414   1_545     S
Er3     V17    10.414   .     S
Er3     V21    10.414   1_556     S
Er3     V20    10.414   1_655     S
Er3     Er13    8.881   1_656     S
Er3     Er1    8.881   1_546     S
Er3     Er2    8.881   1_645     S
Er3     Er5    8.881   .     S
Er3     Er7    8.881   .     S
Er3     Er9    8.881   .     S
Er4     V24    10.414   .     S
Er4     V23    10.414   1_554     S
Er4     V18    10.414   1_554     S
Er4     V22    10.414   .     S
Er4     V17    10.414   1_554     S
Er4     V21    10.414   .     S
Er4     Er6    8.881   .     S
Er4     Er16    8.881   .     S
Er4     Er11    8.881   .     S
Er4     Er8    8.881   1_554     S
Er4     Er9    8.881   1_554     S
Er5     V24    10.414   .     S
Er5     V19    10.414   1_545     S
Er5     V23    10.414   .     S
Er5     V17    10.414   .     S
Er5     V21    10.414   .     S
Er5     V20    10.414   1_655     S
Er5     Er14    8.881   1_655     S
Er5     Er6    8.881   .     S
Er5     Er12    8.881   1_655     S
Er5     Er7    8.881   .     S
Er5     Er9    8.881   .     S
Er6     V24    10.414   .     S
Er6     V19    10.414   .     S
Er6     V23    10.414   .     S
Er6     V22    10.414   1_655     S
Er6     V17    10.414   1_554     S
Er6     V21    10.414   .     S
Er6     Er11    8.881   .     S
Er6     Er14    8.881   1_655     S
Er6     Er12    8.881   1_655     S
Er7     V24    10.414   .     S
Er7     V19    10.414   1_545     S
Er7     V23    10.414   1_545     S
Er7     V18    10.414   1_545     S
Er7     V21    10.414   .     S
Er7     V20    10.414   .     S
Er7     Er15    8.881   .     S
Er7     Er9    8.881   .     S
Er7     Er10    8.881   1_545     S
Er7     Er11    8.881   1_545     S
Er8     V24    10.414   .     S
Er8     V23    10.414   .     S
Er8     V18    10.414   .     S
Er8     V22    10.414   1_556     S
Er8     V17    10.414   1_455     S
Er8     V20    10.414   .     S
Er8     Er16    8.881   1_556     S
Er8     Er9    8.881   .     S
Er8     Er4    8.881   1_556     S
Er8     Er10    8.881   .     S
Er8     Er12    8.881   .     S
Er9     V24    10.414   .     S
Er9     V23    10.414   .     S
Er9     V18    10.414   1_545     S
Er9     V17    10.414   .     S
Er9     V21    10.414   1_556     S
Er9     V20    10.414   .     S
Er9     Er16    8.881   1_556     S
Er9     Er4    8.881   1_556     S
Er10     V24    10.414   .     S
Er10     V19    10.414   1_455     S
Er10     V23    10.414   .     S
Er10     V18    10.414   .     S
Er10     V22    10.414   .     S
Er10     V20    10.414   1_565     S
Er10     Er7    8.881   1_565     S
Er10     Er15    8.881   1_565     S
Er10     Er11    8.881   .     S
Er10     Er12    8.881   .     S
Er11     V24    10.414   .     S
Er11     V19    10.414   .     S
Er11     V23    10.414   .     S
Er11     V18    10.414   1_554     S
Er11     V22    10.414   .     S
Er11     V21    10.414   1_565     S
Er11     Er15    8.881   1_565     S
Er11     Er7    8.881   1_565     S
Er12     V24    10.414   .     S
Er12     V19    10.414   1_455     S
Er12     V23    10.414   1_455     S
Er12     V22    10.414   .     S
Er12     V17    10.414   1_455     S
Er12     V20    10.414   .     S
Er12     Er5    8.881   1_455     S
Er12     Er6    8.881   1_455     S
Er12     Er14    8.881   .     S
Er13     V19    10.414   1_445     S
Er13     V18    10.414   1_544     S
Er13     V22    10.414   1_545     S
Er13     V17    10.414   1_454     S
Er13     V21    10.414   1_455     S
Er13     V20    10.414   1_554     S
Er13     Er1    8.881   1_445     S
Er13     Er2    8.881   1_544     S
Er13     Er3    8.881   1_454     S
Er13     Er14    8.881   .     S
Er13     Er15    8.881   .     S
Er13     Er16    8.881   .     S
Er14     V24    10.414   .     S
Er14     V19    10.414   1_445     S
Er14     V22    10.414   .     S
Er14     V17    10.414   1_454     S
Er14     V21    10.414   1_455     S
Er14     V20    10.414   .     S
Er14     Er5    8.881   1_455     S
Er14     Er6    8.881   1_455     S
Er14     Er16    8.881   .     S
Er14     Er15    8.881   .     S
Er15     V24    10.414   .     S
Er15     V19    10.414   1_445     S
Er15     V18    10.414   1_544     S
Er15     V22    10.414   1_545     S
Er15     V21    10.414   .     S
Er15     V20    10.414   .     S
Er15     Er10    8.881   1_545     S
Er15     Er11    8.881   1_545     S
Er15     Er16    8.881   .     S
Er16     V24    10.414   .     S
Er16     V18    10.414   1_544     S
Er16     V22    10.414   .     S
Er16     V17    10.414   1_454     S
Er16     V21    10.414   .     S
Er16     V20    10.414   1_554     S
Er16     Er8    8.881   1_554     S
Er16     Er9    8.881   1_554     S
V17     Er1    10.414   1_556     S
V17     Er2    10.414   1_655     S
V17     Er16    10.414   1_656     S
V17     Er8    10.414   1_655     S
V17     Er4    10.414   1_556     S
V17     Er12    10.414   1_655     S
V17     Er13    10.414   1_656     S
V17     Er14    10.414   1_656     S
V17     Er6    10.414   1_556     S
V17     V21    10.877   1_556     S
V17     V20    10.877   1_655     S
V17     V23    10.877   .     S
V17     V22    10.877   1_656     S
V18     Er1    10.414   1_556     S
V18     Er3    10.414   1_565     S
V18     Er4    10.414   1_556     S
V18     Er9    10.414   1_565     S
V18     Er16    10.414   1_566     S
V18     Er15    10.414   1_566     S
V18     Er11    10.414   1_556     S
V18     Er13    10.414   1_566     S
V18     Er7    10.414   1_565     S
V18     V20    10.877   1_565     S
V18     V22    10.877   1_556     S
V18     V21    10.877   1_566     S
V18     V23    10.877   .     S
V19     Er3    10.414   1_565     S
V19     Er2    10.414   1_655     S
V19     Er7    10.414   1_565     S
V19     Er12    10.414   1_655     S
V19     Er10    10.414   1_655     S
V19     Er15    10.414   1_665     S
V19     Er13    10.414   1_665     S
V19     Er14    10.414   1_665     S
V19     Er5    10.414   1_565     S
V19     V22    10.877   1_655     S
V19     V21    10.877   1_565     S
V19     V20    10.877   1_665     S
V19     V23    10.877   .     S
V20     Er5    10.414   1_455     S
V20     Er3    10.414   1_455     S
V20     Er16    10.414   1_556     S
V20     Er13    10.414   1_556     S
V20     Er10    10.414   1_545     S
V20     Er2    10.414   1_545     S
V20     V24    10.877   .     S
V20     V18    10.877   1_545     S
V20     V19    10.877   1_445     S
V20     V17    10.877   1_455     S
V21     Er14    10.414   1_655     S
V21     Er13    10.414   1_655     S
V21     Er11    10.414   1_545     S
V21     Er1    10.414   1_545     S
V21     Er9    10.414   1_554     S
V21     Er3    10.414   1_554     S
V21     V24    10.877   .     S
V21     V17    10.877   1_554     S
V21     V19    10.877   1_545     S
V21     V18    10.877   1_544     S
V22     Er13    10.414   1_565     S
V22     Er15    10.414   1_565     S
V22     Er6    10.414   1_455     S
V22     Er1    10.414   1_455     S
V22     Er8    10.414   1_554     S
V22     Er2    10.414   1_554     S
V22     V24    10.877   .     S
V22     V19    10.877   1_455     S
V22     V18    10.877   1_554     S
V22     V17    10.877   1_454     S
V23     Er7    10.414   1_565     S
V23     Er3    10.414   1_565     S
V23     Er12    10.414   1_655     S
V23     Er2    10.414   1_655     S
V23     Er1    10.414   1_556     S
V23     Er4    10.414   1_556     S
V23     V24    10.877   .     S
