data_mgz
_audit_creation_date              2020-02-02
_audit_creation_method            'Pymatgen'
_symmetry_space_group_name_H-M    'P1'
_symmetry_Int_Tables_number       1
loop_
_symmetry_equiv_pos_as_xyz
  x,y,z
_cell_length_a                    16.9201
_cell_length_b                    16.9201
_cell_length_c                    29.0485
_cell_angle_alpha                 90.0
_cell_angle_beta                 90.0
_cell_angle_gamma                 120.0
loop_
_atom_site_label
_atom_site_type_symbol
_atom_site_fract_x
_atom_site_fract_y
_atom_site_fract_z
Ti1     Ti     0.6667   0.3333   0.9264
Ti2     Ti     0.6667   0.3333   0.5736
Er3     Er     0.5661   0.7831   0.75
Er4     Er     0.2169   0.4339   0.75
Er5     Er     0.2169   0.7831   0.75
Ti6     Ti     0.3333   0.6667   0.0736
Ti7     Ti     0.3333   0.6667   0.4264
Er8     Er     0.7831   0.5661   0.25
Er9     Er     0.4339   0.2169   0.25
Er10     Er     0.7831   0.2169   0.25
V11     V     0.0   0.0   0.0
V12     V     0.0   0.0   0.5
loop_
_geom_bond_atom_site_label_1
_geom_bond_atom_site_label_2
_geom_bond_distance
_geom_bond_site_symmetry_2
_ccdc_geom_bond_type
Ti1     Er3    10.0   .     S
Ti1     Er4    10.0   .     S
Ti1     Er4    10.0   1_655     S
Ti1     Er5    10.0   1_655     S
Ti1     V11    10.0   1_666     S
Ti1     Er5    10.0   1_545     S
Ti1     Er3    10.0   1_545     S
Ti1     Er10    10.0   1_556     S
Ti1     Er9    10.0   1_556     S
Ti1     Er8    10.0   1_556     S
Ti1     V11    10.0   1_656     S
Ti1     V11    10.0   1_556     S
Ti2     Er4    10.0   .     S
Ti2     Er3    10.0   .     S
Ti2     Er5    10.0   1_655     S
Ti2     Er4    10.0   1_655     S
Ti2     Er3    10.0   1_545     S
Ti2     Er5    10.0   1_545     S
Ti2     Er10    10.0   .     S
Ti2     Er8    10.0   .     S
Ti2     Er9    10.0   .     S
Ti2     V12    10.0   .     S
Ti2     V12    10.0   1_655     S
Ti2     V12    10.0   1_665     S
Er3     Ti1    10.0   1_565     S
Er3     Ti2    10.0   1_565     S
Er3     Ti6    10.0   1_556     S
Er3     Ti7    10.0   .     S
Er4     Ti1    10.0   1_455     S
Er4     Ti2    10.0   1_455     S
Er4     Ti6    10.0   1_556     S
Er4     Ti7    10.0   .     S
Er5     Ti1    10.0   1_455     S
Er5     Ti1    10.0   1_565     S
Er5     Ti2    10.0   1_455     S
Er5     Ti2    10.0   1_565     S
Er5     Ti6    10.0   1_556     S
Er5     Ti7    10.0   .     S
Ti6     Er10    10.0   1_455     S
Ti6     Er8    10.0   1_455     S
Ti6     Er8    10.0   .     S
Ti6     Er9    10.0   .     S
Ti6     Er5    10.0   1_554     S
Ti6     Er4    10.0   1_554     S
Ti6     Er3    10.0   1_554     S
Ti6     Er9    10.0   1_565     S
Ti6     Er10    10.0   1_565     S
Ti6     V11    10.0   1_565     S
Ti6     V11    10.0   1_665     S
Ti6     V11    10.0   .     S
Ti7     Er10    10.0   1_565     S
Ti7     Er9    10.0   1_565     S
Ti7     V12    10.0   1_665     S
Ti7     Er8    10.0   1_455     S
Ti7     Er10    10.0   1_455     S
Ti7     V12    10.0   1_565     S
Ti7     Er9    10.0   .     S
Ti7     Er8    10.0   .     S
Ti7     V12    10.0   .     S
Er8     Ti1    10.0   1_554     S
Er8     Ti6    10.0   1_655     S
Er8     Ti7    10.0   1_655     S
Er9     Ti1    10.0   1_554     S
Er9     Ti6    10.0   1_545     S
Er9     Ti7    10.0   1_545     S
Er10     Ti1    10.0   1_554     S
Er10     Ti6    10.0   1_655     S
Er10     Ti6    10.0   1_545     S
Er10     Ti7    10.0   1_545     S
Er10     Ti7    10.0   1_655     S
V11     Ti1    10.0   1_444     S
V11     Ti1    10.0   1_454     S
V11     Ti1    10.0   1_554     S
V11     Ti6    10.0   1_545     S
V11     Ti6    10.0   1_445     S
V12     Ti2    10.0   1_455     S
V12     Ti2    10.0   1_445     S
V12     Ti7    10.0   1_445     S
V12     Ti7    10.0   1_545     S
