data_mgzxd
_audit_creation_date              2020-02-02
_audit_creation_method            'Pymatgen'
_symmetry_space_group_name_H-M    'P1'
_symmetry_Int_Tables_number       1
loop_
_symmetry_equiv_pos_as_xyz
  x,y,z
_cell_length_a                    43.9121
_cell_length_b                    43.9121
_cell_length_c                    71.4848
_cell_angle_alpha                 90.0
_cell_angle_beta                 90.0
_cell_angle_gamma                 120.0
loop_
_atom_site_label
_atom_site_type_symbol
_atom_site_fract_x
_atom_site_fract_y
_atom_site_fract_z
He1     He     0.7205   0.6687   0.9357
He2     He     0.9482   0.6687   0.9357
He3     He     0.3313   0.0518   0.9357
He4     He     0.3313   0.2795   0.9357
He5     He     0.7205   0.0518   0.9357
He6     He     0.9482   0.2795   0.9357
S7     S     0.5422   0.0845   0.8651
S8     S     0.5422   0.4578   0.8651
V9     V     0.6667   0.3333   0.82
S10     S     0.9155   0.4578   0.8651
He11     He     0.7205   0.6687   0.5643
He12     He     0.9482   0.6687   0.5643
He13     He     0.3313   0.0518   0.5643
He14     He     0.3313   0.2795   0.5643
He15     He     0.7205   0.0518   0.5643
He16     He     0.9482   0.2795   0.5643
S17     S     0.9155   0.4578   0.6349
S18     S     0.5422   0.4578   0.6349
V19     V     0.6667   0.3333   0.68
S20     S     0.5422   0.0845   0.6349
Er21     Er     0.0   0.0   0.6801
Er22     Er     0.0   0.0   0.8199
H23     H     0.1255   0.8745   0.6384
H24     H     0.749   0.8745   0.6384
H25     H     0.1255   0.251   0.6384
H26     H     0.1255   0.8745   0.8616
H27     H     0.749   0.8745   0.8616
H28     H     0.1255   0.251   0.8616
Ce29     Ce     0.4675   0.5325   0.75
Ce30     Ce     0.4675   0.9351   0.75
Ti31     Ti     0.5905   0.7952   0.75
Ce32     Ce     0.0649   0.5325   0.75
Ti33     Ti     0.2048   0.7952   0.75
Ti34     Ti     0.2048   0.4095   0.75
He35     He     0.6687   0.9482   0.0643
He36     He     0.6687   0.7205   0.0643
He37     He     0.2795   0.3313   0.0643
He38     He     0.0518   0.3313   0.0643
He39     He     0.0518   0.7205   0.0643
He40     He     0.2795   0.9482   0.0643
S41     S     0.4578   0.9155   0.1349
S42     S     0.0845   0.5422   0.1349
S43     S     0.4578   0.5422   0.1349
V44     V     0.3333   0.6667   0.18
He45     He     0.6687   0.9482   0.4357
He46     He     0.6687   0.7205   0.4357
He47     He     0.0518   0.3313   0.4357
He48     He     0.2795   0.3313   0.4357
He49     He     0.0518   0.7205   0.4357
He50     He     0.2795   0.9482   0.4357
S51     S     0.0845   0.5422   0.3651
S52     S     0.4578   0.9155   0.3651
S53     S     0.4578   0.5422   0.3651
V54     V     0.3333   0.6667   0.32
Er55     Er     0.0   0.0   0.3199
Er56     Er     0.0   0.0   0.1801
H57     H     0.8745   0.1255   0.1384
H58     H     0.8745   0.1255   0.3616
H59     H     0.251   0.1255   0.3616
H60     H     0.251   0.1255   0.1384
H61     H     0.8745   0.749   0.1384
H62     H     0.8745   0.749   0.3616
Ce63     Ce     0.5325   0.4675   0.25
Ce64     Ce     0.9351   0.4675   0.25
Ce65     Ce     0.5325   0.0649   0.25
Ti66     Ti     0.7952   0.2048   0.25
Ti67     Ti     0.4095   0.2048   0.25
Ti68     Ti     0.7952   0.5905   0.25
loop_
_geom_bond_atom_site_label_1
_geom_bond_atom_site_label_2
_geom_bond_distance
_geom_bond_site_symmetry_2
_ccdc_geom_bond_type
He1     H27    10.0   .     S
He1     He2    10.0   .     S
He1     S8    10.0   .     S
He1     He36    10.001   1_556     S
He2     H26    10.0   1_655     S
He2     S10    10.0   .     S
He2     He39    10.001   1_656     S
He3     H26    10.0   1_545     S
He3     He4    10.0   .     S
He3     S7    10.0   .     S
He3     He40    10.001   1_546     S
He4     H28    10.0   .     S
He4     S8    10.0   .     S
He4     He37    10.001   1_556     S
He5     H27    10.0   1_545     S
He5     He6    10.0   .     S
He5     S7    10.0   .     S
He5     He35    10.001   1_546     S
He6     H28    10.0   1_655     S
He6     S10    10.0   .     S
He6     He38    10.001   1_656     S
S7     V9    10.0   .     S
S7     Ce30    10.0   1_545     S
S8     V9    10.0   .     S
S8     Ce29    10.0   .     S
V9     V19    10.001   .     S
V9     S10    10.0   .     S
S10     Ce32    10.0   1_655     S
He11     H24    10.0   .     S
He11     He12    10.0   .     S
He11     S18    10.0   .     S
He11     He46    10.001   .     S
He12     H23    10.0   1_655     S
He12     S17    10.0   .     S
He12     He49    10.001   1_655     S
He13     H23    10.0   1_545     S
He13     He14    10.0   .     S
He13     S20    10.0   .     S
He13     He50    10.001   1_545     S
He14     H25    10.0   .     S
He14     S18    10.0   .     S
He14     He48    10.001   .     S
He15     H24    10.0   1_545     S
He15     He16    10.0   .     S
He15     S20    10.0   .     S
He15     He45    10.001   1_545     S
He16     H25    10.0   1_655     S
He16     S17    10.0   .     S
He16     He47    10.001   1_655     S
S17     V19    10.0   .     S
S17     Ce32    10.0   1_655     S
S18     V19    10.0   .     S
S18     Ce29    10.0   .     S
V19     S20    10.0   .     S
S20     Ce30    10.0   1_545     S
Er21     H25    10.0   .     S
Er21     H24    10.0   1_445     S
Er21     H23    10.0   1_545     S
Er21     Er22    9.999   .     S
Er22     H26    10.0   1_545     S
Er22     H27    10.0   1_445     S
Er22     H28    10.0   .     S
H23     He12    10.0   1_455     S
H23     He13    10.0   1_565     S
H23     Er21    10.0   1_565     S
H23     Ti33    10.0   .     S
H24     He15    10.0   1_565     S
H24     Er21    10.0   1_665     S
H24     Ti31    10.0   .     S
H25     He16    10.0   1_455     S
H25     Ti34    10.0   .     S
H26     He2    10.0   1_455     S
H26     He3    10.0   1_565     S
H26     Er22    10.0   1_565     S
H26     Ti33    10.0   .     S
H27     He5    10.0   1_565     S
H27     Er22    10.0   1_665     S
H27     Ti31    10.0   .     S
H28     He6    10.0   1_455     S
H28     Ti34    10.0   .     S
Ce29     Ti34    10.0   .     S
Ce29     Ti31    10.0   .     S
Ce30     Ti33    10.0   .     S
Ce30     Ti31    10.0   .     S
Ce30     S20    10.0   1_565     S
Ce30     S7    10.0   1_565     S
Ce32     Ti34    10.0   .     S
Ce32     Ti33    10.0   .     S
Ce32     S17    10.0   1_455     S
Ce32     S10    10.0   1_455     S
He35     H57    10.0   1_565     S
He35     He36    10.0   .     S
He35     S41    10.0   .     S
He35     He5    10.001   1_564     S
He36     H61    10.0   .     S
He36     S43    10.0   .     S
He36     He1    10.001   1_554     S
He37     H60    10.0   .     S
He37     He38    10.0   .     S
He37     S43    10.0   .     S
He37     He4    10.001   1_554     S
He38     H57    10.0   1_455     S
He38     S42    10.0   .     S
He38     He6    10.001   1_454     S
He39     H61    10.0   1_455     S
He39     He40    10.0   .     S
He39     S42    10.0   .     S
He39     He2    10.001   1_454     S
He40     H60    10.0   1_565     S
He40     S41    10.0   .     S
He40     He3    10.001   1_564     S
S41     V44    10.0   .     S
S41     Ce65    10.0   1_565     S
S42     V44    10.0   .     S
S42     Ce64    10.0   1_455     S
S43     V44    10.0   .     S
S43     Ce63    10.0   .     S
V44     V54    10.001   .     S
He45     H58    10.0   1_565     S
He45     He46    10.0   .     S
He45     S52    10.0   .     S
He45     He15    10.001   1_565     S
He46     H62    10.0   .     S
He46     S53    10.0   .     S
He47     H58    10.0   1_455     S
He47     He48    10.0   .     S
He47     S51    10.0   .     S
He47     He16    10.001   1_455     S
He48     H59    10.0   .     S
He48     S53    10.0   .     S
He49     H62    10.0   1_455     S
He49     He50    10.0   .     S
He49     S51    10.0   .     S
He49     He12    10.001   1_455     S
He50     H59    10.0   1_565     S
He50     S52    10.0   .     S
He50     He13    10.001   1_565     S
S51     V54    10.0   .     S
S51     Ce64    10.0   1_455     S
S52     V54    10.0   .     S
S52     Ce65    10.0   1_565     S
S53     V54    10.0   .     S
S53     Ce63    10.0   .     S
Er55     H59    10.0   .     S
Er55     H58    10.0   1_455     S
Er55     H62    10.0   1_445     S
Er55     Er56    9.999   .     S
Er56     H61    10.0   1_445     S
Er56     H57    10.0   1_455     S
Er56     H60    10.0   .     S
H57     He35    10.0   1_545     S
H57     He38    10.0   1_655     S
H57     Er56    10.0   1_655     S
H57     Ti66    10.0   .     S
H58     He45    10.0   1_545     S
H58     He47    10.0   1_655     S
H58     Er55    10.0   1_655     S
H58     Ti66    10.0   .     S
H59     He50    10.0   1_545     S
H59     Ti67    10.0   .     S
H60     He40    10.0   1_545     S
H60     Ti67    10.0   .     S
H61     He39    10.0   1_655     S
H61     Er56    10.0   1_665     S
H61     Ti68    10.0   .     S
H62     He49    10.0   1_655     S
H62     Er55    10.0   1_665     S
H62     Ti68    10.0   .     S
Ce63     Ti68    10.0   .     S
Ce63     Ti67    10.0   .     S
Ce64     Ti66    10.0   .     S
Ce64     Ti68    10.0   .     S
Ce64     S51    10.0   1_655     S
Ce64     S42    10.0   1_655     S
Ce65     Ti67    10.0   .     S
Ce65     Ti66    10.0   .     S
Ce65     S52    10.0   1_545     S
Ce65     S41    10.0   1_545     S
