data_mhg
_audit_creation_date              2020-02-02
_audit_creation_method            'Pymatgen'
_symmetry_space_group_name_H-M    'P1'
_symmetry_Int_Tables_number       1
loop_
_symmetry_equiv_pos_as_xyz
  x,y,z
_cell_length_a                    32.4794
_cell_length_b                    32.4794
_cell_length_c                    19.9998
_cell_angle_alpha                 90.0
_cell_angle_beta                 90.0
_cell_angle_gamma                 90.0
loop_
_atom_site_label
_atom_site_type_symbol
_atom_site_fract_x
_atom_site_fract_y
_atom_site_fract_z
Er1     Er     0.7974   0.0797   0.0
Er2     Er     0.7974   0.0797   0.5
Er3     Er     0.5797   0.2974   0.0
Er4     Er     0.5797   0.2974   0.5
V5     V     0.5   0.0   0.0
V6     V     0.5   0.0   0.5
Er7     Er     0.4203   0.7026   0.0
Er8     Er     0.4203   0.7026   0.5
Er9     Er     0.2026   0.9203   0.0
Er10     Er     0.2026   0.9203   0.5
Er11     Er     0.9203   0.7974   0.0
Er12     Er     0.9203   0.7974   0.5
Er13     Er     0.7026   0.5797   0.0
Er14     Er     0.7026   0.5797   0.5
Er15     Er     0.0797   0.2026   0.0
Er16     Er     0.0797   0.2026   0.5
Er17     Er     0.2974   0.4203   0.0
Er18     Er     0.2974   0.4203   0.5
V19     V     0.0   0.5   0.0
V20     V     0.0   0.5   0.5
loop_
_geom_bond_atom_site_label_1
_geom_bond_atom_site_label_2
_geom_bond_distance
_geom_bond_site_symmetry_2
_ccdc_geom_bond_type
Er1     Er15    10.0   1_655     S
Er1     Er2    10.0   .     S
Er1     Er2    10.0   1_554     S
Er1     Er3    10.0   .     S
Er1     V5    10.0   .     S
Er1     Er11    10.0   1_545     S
Er2     Er16    10.0   1_655     S
Er2     Er1    10.0   1_556     S
Er2     Er4    10.0   .     S
Er2     V6    10.0   .     S
Er2     Er12    10.0   1_545     S
Er3     Er13    10.0   .     S
Er3     Er4    10.0   .     S
Er3     Er4    10.0   1_554     S
Er3     V5    10.0   .     S
Er3     Er17    10.0   .     S
Er4     Er14    10.0   .     S
Er4     Er3    10.0   1_556     S
Er4     V6    10.0   .     S
Er4     Er18    10.0   .     S
V5     V6    10.0   .     S
V5     V6    10.0   1_554     S
V5     Er9    10.0   1_545     S
V5     Er7    10.0   1_545     S
V6     V5    10.0   1_556     S
V6     Er10    10.0   1_545     S
V6     Er8    10.0   1_545     S
Er7     Er17    10.0   .     S
Er7     Er8    10.0   .     S
Er7     Er8    10.0   1_554     S
Er7     Er9    10.0   .     S
Er7     V5    10.0   1_565     S
Er7     Er13    10.0   .     S
Er8     Er18    10.0   .     S
Er8     Er7    10.0   1_556     S
Er8     Er10    10.0   .     S
Er8     V6    10.0   1_565     S
Er8     Er14    10.0   .     S
Er9     Er11    10.0   1_455     S
Er9     Er10    10.0   .     S
Er9     Er10    10.0   1_554     S
Er9     V5    10.0   1_565     S
Er9     Er15    10.0   1_565     S
Er10     Er12    10.0   1_455     S
Er10     Er9    10.0   1_556     S
Er10     V6    10.0   1_565     S
Er10     Er16    10.0   1_565     S
Er11     Er9    10.0   1_655     S
Er11     Er1    10.0   1_565     S
Er11     Er12    10.0   .     S
Er11     Er12    10.0   1_554     S
Er11     Er13    10.0   .     S
Er11     V19    10.0   1_655     S
Er12     Er10    10.0   1_655     S
Er12     Er2    10.0   1_565     S
Er12     Er11    10.0   1_556     S
Er12     Er14    10.0   .     S
Er12     V20    10.0   1_655     S
Er13     Er14    10.0   .     S
Er13     Er14    10.0   1_554     S
Er13     V19    10.0   1_655     S
Er14     Er13    10.0   1_556     S
Er14     V20    10.0   1_655     S
Er15     Er1    10.0   1_455     S
Er15     Er9    10.0   1_545     S
Er15     Er16    10.0   .     S
Er15     Er16    10.0   1_554     S
Er15     Er17    10.0   .     S
Er15     V19    10.0   .     S
Er16     Er2    10.0   1_455     S
Er16     Er10    10.0   1_545     S
Er16     Er15    10.0   1_556     S
Er16     Er18    10.0   .     S
Er16     V20    10.0   .     S
Er17     Er18    10.0   .     S
Er17     Er18    10.0   1_554     S
Er17     V19    10.0   .     S
Er18     Er17    10.0   1_556     S
Er18     V20    10.0   .     S
V19     Er13    10.0   1_455     S
V19     Er11    10.0   1_455     S
V19     V20    10.0   .     S
V19     V20    10.0   1_554     S
V20     Er14    10.0   1_455     S
V20     Er12    10.0   1_455     S
V20     V19    10.0   1_556     S
