data_mmg
_audit_creation_date              2020-02-02
_audit_creation_method            'Pymatgen'
_symmetry_space_group_name_H-M    'P1'
_symmetry_Int_Tables_number       1
loop_
_symmetry_equiv_pos_as_xyz
  x,y,z
_cell_length_a                    17.4029
_cell_length_b                    16.1345
_cell_length_c                    21.8176
_cell_angle_alpha                 90.0
_cell_angle_beta                 90.0
_cell_angle_gamma                 90.0
loop_
_atom_site_label
_atom_site_type_symbol
_atom_site_fract_x
_atom_site_fract_y
_atom_site_fract_z
Er1     Er     0.5   0.25   0.1362
V2     V     0.5   0.75   0.406
Er3     Er     0.5   0.75   0.8638
V4     V     0.5   0.25   0.594
Er5     Er     0.0   0.75   0.6362
V6     V     0.0   0.25   0.906
Er7     Er     0.0   0.25   0.3638
V8     V     0.0   0.75   0.094
loop_
_geom_bond_atom_site_label_1
_geom_bond_atom_site_label_2
_geom_bond_distance
_geom_bond_site_symmetry_2
_ccdc_geom_bond_type
Er1     Er7    10.019   1_655     S
Er1     Er7    10.019   .     S
Er1     Er3    10.02   1_554     S
Er1     Er3    10.02   1_544     S
Er1     V4    9.988   .     S
Er1     V2    9.987   1_545     S
Er1     V2    9.987   .     S
V2     Er1    9.987   1_565     S
V2     Er3    9.988   .     S
Er3     Er5    10.019   1_655     S
Er3     Er5    10.019   .     S
Er3     Er1    10.02   1_556     S
Er3     Er1    10.02   1_566     S
Er3     V4    9.987   .     S
Er3     V4    9.987   1_565     S
V4     Er3    9.987   1_545     S
Er5     Er3    10.019   1_455     S
Er5     Er7    10.02   .     S
Er5     Er7    10.02   1_565     S
Er5     V8    9.988   1_556     S
Er5     V6    9.987   .     S
Er5     V6    9.987   1_565     S
V6     Er5    9.987   1_545     S
V6     Er7    9.988   1_556     S
Er7     Er1    10.019   1_455     S
Er7     Er5    10.02   1_545     S
Er7     V6    9.988   1_554     S
Er7     V8    9.987   .     S
Er7     V8    9.987   1_545     S
V8     Er5    9.988   1_554     S
V8     Er7    9.987   1_565     S
