data_mmm
_audit_creation_date              2020-02-02
_audit_creation_method            'Pymatgen'
_symmetry_space_group_name_H-M    'P1'
_symmetry_Int_Tables_number       1
loop_
_symmetry_equiv_pos_as_xyz
  x,y,z
_cell_length_a                    34.641
_cell_length_b                    34.641
_cell_length_c                    24.4949
_cell_angle_alpha                 90.0
_cell_angle_beta                 90.0
_cell_angle_gamma                 90.0
loop_
_atom_site_label
_atom_site_type_symbol
_atom_site_fract_x
_atom_site_fract_y
_atom_site_fract_z
V1     V     0.75   0.25   0.0
V2     V     0.25   0.75   0.0
Er3     Er     0.0833   0.75   0.6667
Er4     Er     0.75   0.4167   0.6667
Er5     Er     0.75   0.0833   0.6667
Er6     Er     0.4167   0.75   0.6667
Er7     Er     0.25   0.9167   0.3333
Er8     Er     0.9167   0.25   0.3333
Er9     Er     0.25   0.5833   0.3333
Er10     Er     0.5833   0.25   0.3333
Ti11     Ti     0.5   0.0   0.5
Ti12     Ti     0.5   0.5   0.5
Ti13     Ti     0.0   0.5   0.5
Ti14     Ti     0.0   0.0   0.5
loop_
_geom_bond_atom_site_label_1
_geom_bond_atom_site_label_2
_geom_bond_distance
_geom_bond_site_symmetry_2
_ccdc_geom_bond_type
V1     Er5    10.0   1_554     S
V1     Er8    10.0   .     S
V1     Er10    10.0   .     S
V1     Er4    10.0   1_554     S
V2     Er3    10.0   1_554     S
V2     Er9    10.0   .     S
V2     Er7    10.0   .     S
V2     Er6    10.0   1_554     S
Er3     V2    10.0   1_556     S
Er3     Ti14    10.0   1_565     S
Er3     Ti13    10.0   .     S
Er4     V1    10.0   1_556     S
Er4     Ti13    10.0   1_655     S
Er4     Ti12    10.0   .     S
Er5     V1    10.0   1_556     S
Er5     Ti11    10.0   .     S
Er5     Ti14    10.0   1_655     S
Er6     V2    10.0   1_556     S
Er6     Ti12    10.0   .     S
Er6     Ti11    10.0   1_565     S
Er7     Ti14    10.0   1_565     S
Er7     Ti11    10.0   1_565     S
Er8     Ti13    10.0   1_655     S
Er8     Ti14    10.0   1_655     S
Er9     Ti12    10.0   .     S
Er9     Ti13    10.0   .     S
Er10     Ti11    10.0   .     S
Er10     Ti12    10.0   .     S
Ti11     Er6    10.0   1_545     S
Ti11     Er7    10.0   1_545     S
Ti13     Er4    10.0   1_455     S
Ti13     Er8    10.0   1_455     S
Ti14     Er3    10.0   1_545     S
Ti14     Er5    10.0   1_455     S
Ti14     Er7    10.0   1_545     S
Ti14     Er8    10.0   1_455     S
