data_mmna
_audit_creation_date              2020-02-02
_audit_creation_method            'Pymatgen'
_symmetry_space_group_name_H-M    'P1'
_symmetry_Int_Tables_number       1
loop_
_symmetry_equiv_pos_as_xyz
  x,y,z
_cell_length_a                    88.2503
_cell_length_b                    88.2503
_cell_length_c                    24.1402
_cell_angle_alpha                 90.0
_cell_angle_beta                 90.0
_cell_angle_gamma                 90.0
loop_
_atom_site_label
_atom_site_type_symbol
_atom_site_fract_x
_atom_site_fract_y
_atom_site_fract_z
Ti1     Ti     0.25   0.6933   0.8535
Ti2     Ti     0.3067   0.75   0.1465
Ti3     Ti     0.1933   0.75   0.1465
Ti4     Ti     0.25   0.8067   0.8535
Er5     Er     0.25   0.5901   0.6826
Er6     Er     0.75   0.4099   0.3174
V7     V     0.996   0.3067   0.5108
V8     V     0.004   0.6933   0.4892
V9     V     0.8067   0.496   0.4892
V10     V     0.1933   0.504   0.5108
Ce11     Ce     0.9199   0.5   0.4978
Ce12     Ce     0.0   0.5801   0.4978
S13     S     0.0006   0.4994   0.2071
Ce14     Ce     0.0801   0.5   0.5022
Ce15     Ce     0.0   0.4199   0.5022
S16     S     0.9994   0.5006   0.7929
Er17     Er     0.0901   0.75   0.3174
Er18     Er     0.4099   0.75   0.3174
Er19     Er     0.75   0.0901   0.3174
Er20     Er     0.25   0.9099   0.6826
V21     V     0.6933   0.004   0.4892
V22     V     0.496   0.8067   0.4892
V23     V     0.504   0.1933   0.5108
V24     V     0.3067   0.996   0.5108
Ce25     Ce     0.5   0.0801   0.5022
Ce26     Ce     0.4199   0.0   0.5022
S27     S     0.5006   0.9994   0.7929
Ce28     Ce     0.5   0.9199   0.4978
Ce29     Ce     0.5801   0.0   0.4978
S30     S     0.4994   0.0006   0.2071
V31     V     0.004   0.8067   0.4892
V32     V     0.8067   0.004   0.4892
V33     V     0.1933   0.996   0.5108
V34     V     0.996   0.1933   0.5108
Ce35     Ce     0.9199   0.0   0.4978
Ce36     Ce     0.0   0.9199   0.4978
S37     S     0.0006   0.0006   0.2071
Ce38     Ce     0.0   0.0801   0.5022
Ce39     Ce     0.0801   0.0   0.5022
S40     S     0.9994   0.9994   0.7929
Er41     Er     0.9099   0.25   0.6826
Er42     Er     0.5901   0.25   0.6826
V43     V     0.3067   0.504   0.5108
V44     V     0.6933   0.496   0.4892
V45     V     0.496   0.6933   0.4892
V46     V     0.504   0.3067   0.5108
Ce47     Ce     0.4199   0.5   0.5022
Ce48     Ce     0.5   0.4199   0.5022
S49     S     0.5006   0.5006   0.7929
Ce50     Ce     0.5   0.5801   0.4978
Ce51     Ce     0.5801   0.5   0.4978
S52     S     0.4994   0.4994   0.2071
Ti53     Ti     0.6933   0.25   0.8535
Ti54     Ti     0.75   0.3067   0.1465
Ti55     Ti     0.75   0.1933   0.1465
Ti56     Ti     0.8067   0.25   0.8535
loop_
_geom_bond_atom_site_label_1
_geom_bond_atom_site_label_2
_geom_bond_distance
_geom_bond_site_symmetry_2
_ccdc_geom_bond_type
Ti1     Er5    10.0   .     S
Ti1     Ti4    10.001   .     S
Ti1     Ti2    10.0   1_556     S
Ti1     Ti3    10.0   1_556     S
Ti2     Er18    10.0   .     S
Ti2     Ti4    10.0   1_554     S
Ti2     Ti3    10.001   .     S
Ti2     Ti1    10.0   1_554     S
Ti3     Er17    10.0   .     S
Ti3     Ti4    10.0   1_554     S
Ti3     Ti1    10.0   1_554     S
Ti4     Ti2    10.0   1_556     S
Ti4     Er20    10.0   .     S
Ti4     Ti3    10.0   1_556     S
Er5     V43    10.0   .     S
Er5     V10    10.0   .     S
Er6     V9    10.0   .     S
Er6     V44    10.0   .     S
Er6     Ti54    10.0   .     S
V7     Ce15    10.0   1_655     S
V7     Er41    10.0   .     S
V7     V34    10.001   .     S
V8     Ce12    10.0   .     S
V8     Er17    10.0   .     S
V8     V31    10.001   .     S
V9     Ce11    10.0   .     S
V9     V44    10.001   .     S
V10     V43    10.001   .     S
V10     Ce14    10.0   .     S
Ce11     Ce12    9.999   1_655     S
Ce11     S13    10.0   1_655     S
Ce11     S16    10.0   .     S
Ce11     Ce15    10.0   1_655     S
Ce12     Ce11    9.999   1_455     S
Ce12     S13    10.0   .     S
Ce12     S16    10.0   1_455     S
Ce12     Ce14    10.0   .     S
S13     Ce11    10.0   1_455     S
S13     Ce15    10.0   .     S
S13     Ce14    10.0   .     S
S13     S16    10.0   1_454     S
Ce14     Ce15    9.999   .     S
Ce14     S16    10.0   1_455     S
Ce15     V7    10.0   1_455     S
Ce15     Ce11    10.0   1_455     S
Ce15     S16    10.0   1_455     S
S16     Ce12    10.0   1_655     S
S16     Ce15    10.0   1_655     S
S16     Ce14    10.0   1_655     S
S16     S13    10.0   1_656     S
Er17     V31    10.0   .     S
Er18     V22    10.0   .     S
Er18     V45    10.0   .     S
Er19     V32    10.0   .     S
Er19     V21    10.0   .     S
Er19     Ti55    10.0   .     S
Er20     V33    10.0   .     S
Er20     V24    10.0   .     S
V21     Ce29    10.0   .     S
V21     V32    10.001   .     S
V22     Ce28    10.0   .     S
V22     V45    10.001   .     S
V23     Ce25    10.0   .     S
V23     Er42    10.0   .     S
V23     V46    10.001   .     S
V24     Ce26    10.0   1_565     S
V24     V33    10.001   .     S
Ce25     Ce26    9.999   .     S
Ce25     S27    10.0   1_545     S
Ce25     S30    10.0   .     S
Ce25     Ce29    10.0   .     S
Ce26     V24    10.0   1_545     S
Ce26     S27    10.0   1_545     S
Ce26     S30    10.0   .     S
Ce26     Ce28    10.0   1_545     S
S27     Ce25    10.0   1_565     S
S27     Ce26    10.0   1_565     S
S27     Ce29    10.0   1_565     S
S27     Ce28    10.0   .     S
S27     S30    10.0   1_566     S
Ce28     Ce26    10.0   1_565     S
Ce28     Ce29    9.999   1_565     S
Ce28     S30    10.0   1_565     S
Ce29     S27    10.0   1_545     S
Ce29     Ce28    9.999   1_545     S
Ce29     S30    10.0   .     S
S30     Ce28    10.0   1_545     S
S30     S27    10.0   1_544     S
V31     Ce36    10.0   .     S
V32     Ce35    10.0   .     S
V33     Ce39    10.0   1_565     S
V34     Ce38    10.0   1_655     S
V34     Er41    10.0   .     S
Ce35     Ce36    9.999   1_645     S
Ce35     S37    10.0   1_655     S
Ce35     S40    10.0   1_545     S
Ce35     Ce38    10.0   1_655     S
Ce36     Ce35    9.999   1_465     S
Ce36     S37    10.0   1_565     S
Ce36     S40    10.0   1_455     S
Ce36     Ce39    10.0   1_565     S
S37     Ce36    10.0   1_545     S
S37     Ce35    10.0   1_455     S
S37     Ce39    10.0   .     S
S37     Ce38    10.0   .     S
S37     S40    10.0   1_444     S
Ce38     V34    10.0   1_455     S
Ce38     Ce35    10.0   1_455     S
Ce38     Ce39    9.999   .     S
Ce38     S40    10.0   1_445     S
Ce39     V33    10.0   1_545     S
Ce39     Ce36    10.0   1_545     S
Ce39     S40    10.0   1_445     S
S40     Ce36    10.0   1_655     S
S40     Ce35    10.0   1_565     S
S40     Ce39    10.0   1_665     S
S40     Ce38    10.0   1_665     S
S40     S37    10.0   1_666     S
Er41     Ti56    10.0   .     S
Er42     V46    10.0   .     S
Er42     Ti53    10.0   .     S
V43     Ce47    10.0   .     S
V44     Ce51    10.0   .     S
V45     Ce50    10.0   .     S
V46     Ce48    10.0   .     S
Ce47     Ce48    9.999   .     S
Ce47     S49    10.0   .     S
Ce47     S52    10.0   .     S
Ce47     Ce50    10.0   .     S
Ce48     S49    10.0   .     S
Ce48     S52    10.0   .     S
Ce48     Ce51    10.0   .     S
S49     Ce50    10.0   .     S
S49     Ce51    10.0   .     S
S49     S52    10.0   1_556     S
Ce50     Ce51    9.999   .     S
Ce50     S52    10.0   .     S
Ce51     S52    10.0   .     S
S52     S49    10.0   1_554     S
Ti53     Ti56    10.001   .     S
Ti53     Ti54    10.0   1_556     S
Ti53     Ti55    10.0   1_556     S
Ti54     Ti56    10.0   1_554     S
Ti54     Ti55    10.001   .     S
Ti54     Ti53    10.0   1_554     S
Ti55     Ti56    10.0   1_554     S
Ti55     Ti53    10.0   1_554     S
Ti56     Ti54    10.0   1_556     S
Ti56     Ti55    10.0   1_556     S
