data_moa
_audit_creation_date              2020-02-02
_audit_creation_method            'Pymatgen'
_symmetry_space_group_name_H-M    'P1'
_symmetry_Int_Tables_number       1
loop_
_symmetry_equiv_pos_as_xyz
  x,y,z
_cell_length_a                    18.9053
_cell_length_b                    53.7291
_cell_length_c                    24.6628
_cell_angle_alpha                 90.0
_cell_angle_beta                 90.0
_cell_angle_gamma                 90.0
loop_
_atom_site_label
_atom_site_type_symbol
_atom_site_fract_x
_atom_site_fract_y
_atom_site_fract_z
Er1     Er     0.0   0.7196   0.5
Er2     Er     0.5   0.7804   0.5
V3     V     0.5   0.9069   0.7973
V4     V     0.5   0.0931   0.7973
V5     V     0.0   0.5931   0.2027
V6     V     0.0   0.4069   0.2027
V7     V     0.5   0.9069   0.2027
V8     V     0.5   0.0931   0.2027
Er9     Er     0.0   0.2804   0.5
Er10     Er     0.5   0.2196   0.5
V11     V     0.0   0.5931   0.7973
V12     V     0.0   0.4069   0.7973
loop_
_geom_bond_atom_site_label_1
_geom_bond_atom_site_label_2
_geom_bond_distance
_geom_bond_site_symmetry_2
_ccdc_geom_bond_type
Er1     Er2    10.0   1_455     S
Er1     Er2    10.0   .     S
Er1     V5    10.0   .     S
Er1     V11    10.0   .     S
Er2     Er1    10.0   1_655     S
Er2     V7    10.0   .     S
Er2     V3    10.0   .     S
V3     V4    10.0   1_565     S
V3     V7    10.0   1_556     S
V4     V3    10.0   1_545     S
V4     Er10    10.0   .     S
V4     V8    10.0   1_556     S
V5     V6    10.0   .     S
V5     V11    10.0   1_554     S
V6     Er9    10.0   .     S
V6     V12    10.0   1_554     S
V7     V8    10.0   1_565     S
V7     V3    10.0   1_554     S
V8     V7    10.0   1_545     S
V8     Er10    10.0   .     S
V8     V4    10.0   1_554     S
Er9     Er10    10.0   1_455     S
Er9     Er10    10.0   .     S
Er9     V12    10.0   .     S
Er10     Er9    10.0   1_655     S
V11     V12    10.0   .     S
V11     V5    10.0   1_556     S
V12     V6    10.0   1_556     S
