data_mok
_audit_creation_date              2020-02-02
_audit_creation_method            'Pymatgen'
_symmetry_space_group_name_H-M    'P1'
_symmetry_Int_Tables_number       1
loop_
_symmetry_equiv_pos_as_xyz
  x,y,z
_cell_length_a                    32.3646
_cell_length_b                    13.4252
_cell_length_c                    16.5518
_cell_angle_alpha                 90.0
_cell_angle_beta                 90.0
_cell_angle_gamma                 90.0
loop_
_atom_site_label
_atom_site_type_symbol
_atom_site_fract_x
_atom_site_fract_y
_atom_site_fract_z
V1     V     0.9036   0.7909   0.5
V2     V     0.5964   0.7091   0.5
V3     V     0.9036   0.2091   0.0
V4     V     0.5964   0.2909   0.0
V5     V     0.4035   0.2909   0.5
V6     V     0.0964   0.2091   0.5
V7     V     0.4035   0.7091   0.0
V8     V     0.0964   0.7909   0.0
loop_
_geom_bond_atom_site_label_1
_geom_bond_atom_site_label_2
_geom_bond_distance
_geom_bond_site_symmetry_2
_ccdc_geom_bond_type
V1     V2    10.0   .     S
V1     V3    10.0   1_565     S
V1     V3    10.0   1_566     S
V1     V6    10.0   1_655     S
V2     V4    10.0   .     S
V2     V4    10.0   1_556     S
V2     V5    10.0   1_565     S
V3     V4    10.0   .     S
V3     V1    10.0   1_545     S
V3     V1    10.0   1_544     S
V3     V8    10.0   1_655     S
V4     V2    10.0   1_554     S
V4     V7    10.0   1_545     S
V5     V6    10.0   .     S
V5     V7    10.0   .     S
V5     V7    10.0   1_556     S
V5     V2    10.0   1_545     S
V6     V8    10.0   1_545     S
V6     V8    10.0   1_546     S
V6     V1    10.0   1_455     S
V7     V8    10.0   .     S
V7     V5    10.0   1_554     S
V7     V4    10.0   1_565     S
V8     V6    10.0   1_565     S
V8     V6    10.0   1_564     S
V8     V3    10.0   1_455     S
