data_mone
_audit_creation_date              2020-02-02
_audit_creation_method            'Pymatgen'
_symmetry_space_group_name_H-M    'P1'
_symmetry_Int_Tables_number       1
loop_
_symmetry_equiv_pos_as_xyz
  x,y,z
_cell_length_a                    27.1713
_cell_length_b                    27.1713
_cell_length_c                    67.7815
_cell_angle_alpha                 90.0
_cell_angle_beta                 90.0
_cell_angle_gamma                 90.0
loop_
_atom_site_label
_atom_site_type_symbol
_atom_site_fract_x
_atom_site_fract_y
_atom_site_fract_z
V1     V     0.0   0.75   0.8917
V2     V     0.5   0.25   0.8583
Er3     Er     0.816   0.066   0.875
Er4     Er     0.184   0.066   0.875
Er5     Er     0.184   0.434   0.875
Er6     Er     0.816   0.434   0.875
V7     V     0.5   0.75   0.6083
Er8     Er     0.316   0.434   0.625
Er9     Er     0.316   0.066   0.625
Er10     Er     0.684   0.066   0.625
Er11     Er     0.684   0.434   0.625
V12     V     0.0   0.25   0.6417
V13     V     0.5   0.25   0.3917
Er14     Er     0.684   0.934   0.375
Er15     Er     0.684   0.566   0.375
Er16     Er     0.316   0.566   0.375
Er17     Er     0.316   0.934   0.375
V18     V     0.0   0.75   0.3583
V19     V     0.0   0.25   0.1083
V20     V     0.5   0.75   0.1417
Er21     Er     0.816   0.934   0.125
Er22     Er     0.184   0.934   0.125
Er23     Er     0.816   0.566   0.125
Er24     Er     0.184   0.566   0.125
Ti25     Ti     0.25   0.75   0.25
Ti26     Ti     0.5   0.0   0.5
Ti27     Ti     0.5   0.5   0.5
Ti28     Ti     0.0   0.0   0.0
Ti29     Ti     0.75   0.75   0.25
Ti30     Ti     0.0   0.5   0.0
Ti31     Ti     0.75   0.25   0.75
Ti32     Ti     0.25   0.25   0.75
loop_
_geom_bond_atom_site_label_1
_geom_bond_atom_site_label_2
_geom_bond_distance
_geom_bond_site_symmetry_2
_ccdc_geom_bond_type
V1     Ti28    10.0   1_566     S
V1     Ti30    10.0   1_556     S
V1     Er3    10.0   1_465     S
V1     Er4    10.0   1_565     S
V1     Er5    10.0   .     S
V1     Er6    10.0   1_455     S
V2     Ti31    10.0   .     S
V2     Ti32    10.0   .     S
V2     Er3    10.0   .     S
V2     Er6    10.0   .     S
V2     Er4    10.0   .     S
V2     Er5    10.0   .     S
Er3     Ti28    10.0   1_656     S
Er3     Ti31    10.0   .     S
Er3     V1    10.0   1_645     S
Er3     Er6    10.0   .     S
Er3     Er4    10.0   1_655     S
Er4     Ti28    10.0   1_556     S
Er4     Ti32    10.0   .     S
Er4     Er3    10.0   1_455     S
Er4     V1    10.0   1_545     S
Er4     Er5    10.0   .     S
Er5     Ti30    10.0   1_556     S
Er5     Ti32    10.0   .     S
Er5     Er6    10.0   1_455     S
Er6     Ti30    10.0   1_656     S
Er6     Ti31    10.0   .     S
Er6     Er5    10.0   1_655     S
Er6     V1    10.0   1_655     S
V7     Ti26    10.0   1_565     S
V7     Ti27    10.0   .     S
V7     Er11    10.0   .     S
V7     Er8    10.0   .     S
V7     Er10    10.0   1_565     S
V7     Er9    10.0   1_565     S
Er8     Ti27    10.0   .     S
Er8     V12    10.0   .     S
Er8     Er9    10.0   .     S
Er8     Er11    10.0   .     S
Er8     Ti32    10.0   .     S
Er9     Ti26    10.0   .     S
Er9     V12    10.0   .     S
Er9     Er10    10.0   .     S
Er9     V7    10.0   1_545     S
Er9     Ti32    10.0   .     S
Er10     Ti26    10.0   .     S
Er10     V7    10.0   1_545     S
Er10     Er11    10.0   .     S
Er10     V12    10.0   1_655     S
Er10     Ti31    10.0   .     S
Er11     Ti27    10.0   .     S
Er11     V12    10.0   1_655     S
Er11     Ti31    10.0   .     S
V12     Er11    10.0   1_455     S
V12     Er10    10.0   1_455     S
V12     Ti31    10.0   1_455     S
V12     Ti32    10.0   .     S
V13     Ti26    10.0   .     S
V13     Ti27    10.0   .     S
V13     Er16    10.0   .     S
V13     Er15    10.0   .     S
V13     Er17    10.0   1_545     S
V13     Er14    10.0   1_545     S
Er14     Ti26    10.0   1_565     S
Er14     V18    10.0   1_655     S
Er14     Er15    10.0   .     S
Er14     Er17    10.0   .     S
Er14     V13    10.0   1_565     S
Er14     Ti29    10.0   .     S
Er15     Ti27    10.0   .     S
Er15     V18    10.0   1_655     S
Er15     Er16    10.0   .     S
Er15     Ti29    10.0   .     S
Er16     Ti27    10.0   .     S
Er16     V18    10.0   .     S
Er16     Er17    10.0   .     S
Er16     Ti25    10.0   .     S
Er17     Ti26    10.0   1_565     S
Er17     V18    10.0   .     S
Er17     V13    10.0   1_565     S
Er17     Ti25    10.0   .     S
V18     Er14    10.0   1_455     S
V18     Er15    10.0   1_455     S
V18     Ti25    10.0   .     S
V18     Ti29    10.0   1_455     S
V19     Ti30    10.0   .     S
V19     Ti28    10.0   .     S
V19     Er21    10.0   1_445     S
V19     Er23    10.0   1_455     S
V19     Er24    10.0   .     S
V19     Er22    10.0   1_545     S
V20     Ti25    10.0   .     S
V20     Ti29    10.0   .     S
V20     Er21    10.0   .     S
V20     Er24    10.0   .     S
V20     Er22    10.0   .     S
V20     Er23    10.0   .     S
Er21     Ti28    10.0   1_665     S
Er21     Ti29    10.0   .     S
Er21     Er23    10.0   .     S
Er21     V19    10.0   1_665     S
Er21     Er22    10.0   1_655     S
Er22     Ti28    10.0   1_565     S
Er22     Ti25    10.0   .     S
Er22     Er24    10.0   .     S
Er22     V19    10.0   1_565     S
Er22     Er21    10.0   1_455     S
Er23     Ti30    10.0   1_655     S
Er23     Ti29    10.0   .     S
Er23     V19    10.0   1_655     S
Er23     Er24    10.0   1_655     S
Er24     Ti30    10.0   .     S
Er24     Ti25    10.0   .     S
Er24     Er23    10.0   1_455     S
Ti26     V7    10.0   1_545     S
Ti26     Er14    10.0   1_545     S
Ti26     Er17    10.0   1_545     S
Ti28     V1    10.0   1_544     S
Ti28     Er4    10.0   1_554     S
Ti28     Er3    10.0   1_454     S
Ti28     Er22    10.0   1_545     S
Ti28     Er21    10.0   1_445     S
Ti29     V18    10.0   1_655     S
Ti30     V1    10.0   1_554     S
Ti30     Er6    10.0   1_454     S
Ti30     Er5    10.0   1_554     S
Ti30     Er23    10.0   1_455     S
Ti31     V12    10.0   1_655     S
