data_motea
_audit_creation_date              2020-02-02
_audit_creation_method            'Pymatgen'
_symmetry_space_group_name_H-M    'P1'
_symmetry_Int_Tables_number       1
loop_
_symmetry_equiv_pos_as_xyz
  x,y,z
_cell_length_a                    62.9341
_cell_length_b                    62.9341
_cell_length_c                    33.6156
_cell_angle_alpha                 90.0
_cell_angle_beta                 90.0
_cell_angle_gamma                 90.0
loop_
_atom_site_label
_atom_site_type_symbol
_atom_site_fract_x
_atom_site_fract_y
_atom_site_fract_z
Ti1     Ti     0.4206   0.0   0.3513
Ti2     Ti     0.4206   0.0   0.6487
Ti3     Ti     0.5794   0.0   0.3513
Ti4     Ti     0.5794   0.0   0.6487
V5     V     0.0795   0.8082   0.0
V6     V     0.1918   0.9206   0.0
Er7     Er     0.3042   0.0   0.8513
Er8     Er     0.3042   0.0   0.1487
Er9     Er     0.0   0.6958   0.8513
Er10     Er     0.0   0.6958   0.1487
V11     V     0.8082   0.9206   0.0
V12     V     0.9206   0.8082   0.0
Er13     Er     0.6958   0.0   0.8513
Er14     Er     0.6958   0.0   0.1487
V15     V     0.0795   0.1918   0.0
V16     V     0.1918   0.0795   0.0
V17     V     0.8082   0.0795   0.0
V18     V     0.9206   0.1918   0.0
Er19     Er     0.0   0.3042   0.8513
Er20     Er     0.0   0.3042   0.1487
Ti21     Ti     0.0   0.4206   0.3513
Ti22     Ti     0.0   0.4206   0.6487
Ti23     Ti     0.0   0.5794   0.3513
Ti24     Ti     0.0   0.5794   0.6487
loop_
_geom_bond_atom_site_label_1
_geom_bond_atom_site_label_2
_geom_bond_distance
_geom_bond_site_symmetry_2
_ccdc_geom_bond_type
Ti1     Er8    10.0   .     S
Ti1     Ti2    10.0   .     S
Ti1     Ti3    10.0   .     S
Ti2     Er7    10.0   .     S
Ti2     Ti4    10.0   .     S
Ti3     Er14    10.0   .     S
Ti3     Ti4    10.0   .     S
Ti4     Er13    10.0   .     S
V5     V6    9.999   .     S
V5     Er9    10.0   1_554     S
V5     Er10    10.0   .     S
V5     V12    10.0   1_455     S
V6     Er7    10.0   1_564     S
V6     Er8    10.0   1_565     S
V6     V16    10.0   1_565     S
Er7     V16    10.0   1_556     S
Er7     V6    10.0   1_546     S
Er7     Er8    10.0   1_556     S
Er8     V6    10.0   1_545     S
Er8     V16    10.0   .     S
Er8     Er7    10.0   1_554     S
Er9     V5    10.0   1_556     S
Er9     V12    10.0   1_456     S
Er9     Er10    10.0   1_556     S
Er9     Ti24    10.0   .     S
Er10     V12    10.0   1_455     S
Er10     Er9    10.0   1_554     S
Er10     Ti23    10.0   .     S
V11     V12    9.999   .     S
V11     Er13    10.0   1_564     S
V11     Er14    10.0   1_565     S
V11     V17    10.0   1_565     S
V12     Er9    10.0   1_654     S
V12     Er10    10.0   1_655     S
V12     V5    10.0   1_655     S
Er13     V11    10.0   1_546     S
Er13     V17    10.0   1_556     S
Er13     Er14    10.0   1_556     S
Er14     V17    10.0   .     S
Er14     V11    10.0   1_545     S
Er14     Er13    10.0   1_554     S
V15     V16    9.999   .     S
V15     Er19    10.0   1_554     S
V15     Er20    10.0   .     S
V15     V18    10.0   1_455     S
V16     Er7    10.0   1_554     S
V16     V6    10.0   1_545     S
V17     Er13    10.0   1_554     S
V17     V11    10.0   1_545     S
V17     V18    9.999   .     S
V18     Er19    10.0   1_654     S
V18     Er20    10.0   1_655     S
V18     V15    10.0   1_655     S
Er19     V18    10.0   1_456     S
Er19     V15    10.0   1_556     S
Er19     Er20    10.0   1_556     S
Er19     Ti22    10.0   .     S
Er20     V18    10.0   1_455     S
Er20     Er19    10.0   1_554     S
Er20     Ti21    10.0   .     S
Ti21     Ti22    10.0   .     S
Ti21     Ti23    10.0   .     S
Ti22     Ti24    10.0   .     S
Ti23     Ti24    10.0   .     S
