data_moue
_audit_creation_date              2020-02-02
_audit_creation_method            'Pymatgen'
_symmetry_space_group_name_H-M    'P1'
_symmetry_Int_Tables_number       1
loop_
_symmetry_equiv_pos_as_xyz
  x,y,z
_cell_length_a                    44.4772
_cell_length_b                    44.4772
_cell_length_c                    13.0363
_cell_angle_alpha                 90.0
_cell_angle_beta                 90.0
_cell_angle_gamma                 90.0
loop_
_atom_site_label
_atom_site_type_symbol
_atom_site_fract_x
_atom_site_fract_y
_atom_site_fract_z
Er1     Er     0.0   0.6705   0.5
Ti2     Ti     0.0   0.5   0.0
Er3     Er     0.0   0.3295   0.5
Er4     Er     0.6705   0.0   0.5
Ti5     Ti     0.5   0.0   0.0
Er6     Er     0.3295   0.0   0.5
V7     V     0.0   0.159   0.0
V8     V     0.159   0.0   0.0
V9     V     0.841   0.0   0.0
V10     V     0.0   0.841   0.0
loop_
_geom_bond_atom_site_label_1
_geom_bond_atom_site_label_2
_geom_bond_distance
_geom_bond_site_symmetry_2
_ccdc_geom_bond_type
Er1     V10    10.0   .     S
Er1     V10    10.0   1_556     S
Er1     Ti2    10.0   .     S
Er1     Ti2    10.0   1_556     S
Ti2     Er3    10.0   1_554     S
Ti2     Er3    10.0   .     S
Ti2     Er1    10.0   1_554     S
Er3     Ti2    10.0   1_556     S
Er3     V7    10.0   1_556     S
Er3     V7    10.0   .     S
Er4     V9    10.0   .     S
Er4     V9    10.0   1_556     S
Er4     Ti5    10.0   .     S
Er4     Ti5    10.0   1_556     S
Ti5     Er6    10.0   1_554     S
Ti5     Er6    10.0   .     S
Ti5     Er4    10.0   1_554     S
Er6     Ti5    10.0   1_556     S
Er6     V8    10.0   1_556     S
Er6     V8    10.0   .     S
V7     Er3    10.0   1_554     S
V7     V8    10.0   .     S
V7     V9    10.0   1_455     S
V8     Er6    10.0   1_554     S
V8     V10    10.0   1_545     S
V9     Er4    10.0   1_554     S
V9     V7    10.0   1_655     S
V9     V10    10.0   1_645     S
V10     Er1    10.0   1_554     S
V10     V9    10.0   1_465     S
V10     V8    10.0   1_565     S
