data_mrc
_audit_creation_date              2020-02-02
_audit_creation_method            'Pymatgen'
_symmetry_space_group_name_H-M    'P1'
_symmetry_Int_Tables_number       1
loop_
_symmetry_equiv_pos_as_xyz
  x,y,z
_cell_length_a                    20.0629
_cell_length_b                    23.555
_cell_length_c                    15.3285
_cell_angle_alpha                 90.0
_cell_angle_beta                 90.0
_cell_angle_gamma                 90.0
loop_
_atom_site_label
_atom_site_type_symbol
_atom_site_fract_x
_atom_site_fract_y
_atom_site_fract_z
Er1     Er     0.2096   0.3852   0.0
Er2     Er     0.7904   0.6148   0.0
V3     V     0.5   0.5   0.5
Er4     Er     0.7096   0.1148   0.5
Er5     Er     0.2904   0.8852   0.5
V6     V     0.0   0.0   0.0
loop_
_geom_bond_atom_site_label_1
_geom_bond_atom_site_label_2
_geom_bond_distance
_geom_bond_site_symmetry_2
_ccdc_geom_bond_type
Er1     V6    10.0   .     S
Er1     V3    10.0   .     S
Er1     V3    10.0   1_554     S
Er1     Er2    10.0   1_455     S
Er2     V6    10.0   1_665     S
Er2     V3    10.0   .     S
Er2     V3    10.0   1_554     S
Er2     Er1    10.0   1_655     S
V3     Er1    10.0   1_556     S
V3     Er2    10.0   1_556     S
V3     Er4    10.0   .     S
V3     Er5    10.0   .     S
Er4     V6    10.0   1_655     S
Er4     V6    10.0   1_656     S
Er4     Er5    10.0   1_545     S
Er5     V6    10.0   1_565     S
Er5     V6    10.0   1_566     S
Er5     Er4    10.0   1_565     S
V6     Er2    10.0   1_445     S
V6     Er4    10.0   1_455     S
V6     Er4    10.0   1_454     S
V6     Er5    10.0   1_545     S
V6     Er5    10.0   1_544     S
