data_msf
_audit_creation_date              2020-02-02
_audit_creation_method            'Pymatgen'
_symmetry_space_group_name_H-M    'P1'
_symmetry_Int_Tables_number       1
loop_
_symmetry_equiv_pos_as_xyz
  x,y,z
_cell_length_a                    122.8479
_cell_length_b                    122.8479
_cell_length_c                    19.6533
_cell_angle_alpha                 90.0
_cell_angle_beta                 90.0
_cell_angle_gamma                 120.0
loop_
_atom_site_label
_atom_site_type_symbol
_atom_site_fract_x
_atom_site_fract_y
_atom_site_fract_z
Ti1     Ti     0.1345   0.8001   0.586
Ce2     Ce     0.1174   0.7841   0.0775
Ti3     Ti     0.999   0.5322   0.2527
Ce4     Ce     0.0001   0.5493   0.7442
Ti5     Ti     0.8665   0.6677   0.9194
Ce6     Ce     0.8826   0.6666   0.4108
V7     V     0.0359   0.7018   0.0816
Er8     Er     0.999   0.6141   0.2482
V9     V     0.9648   0.6674   0.4149
Er10     Er     0.0526   0.7182   0.5816
V11     V     0.9993   0.6308   0.7482
Er12     Er     0.9484   0.6677   0.9149
Ti13     Ti     0.5322   0.5332   0.7473
Ce14     Ce     0.5493   0.5492   0.2558
Ti15     Ti     0.8001   0.6657   0.414
Ce16     Ce     0.7841   0.6667   0.9225
Ti17     Ti     0.6677   0.8011   0.0806
Ce18     Ce     0.6666   0.784   0.5892
V19     V     0.6674   0.7025   0.5851
Er20     Er     0.7182   0.6656   0.4184
V21     V     0.6308   0.6315   0.2518
Er22     Er     0.6677   0.7193   0.0851
V23     V     0.7018   0.666   0.9184
Er24     Er     0.6141   0.6151   0.7518
Ti25     Ti     0.4678   0.4668   0.2527
Ce26     Ce     0.4507   0.4508   0.7442
Ti27     Ti     0.3324   0.1989   0.9194
Ce28     Ce     0.3334   0.216   0.4108
Ti29     Ti     0.1999   0.3343   0.586
Ce30     Ce     0.2159   0.3333   0.0775
V31     V     0.3326   0.2975   0.4149
Er32     Er     0.2818   0.3344   0.5816
V33     V     0.3692   0.3685   0.7482
Er34     Er     0.3323   0.2807   0.9149
V35     V     0.2982   0.334   0.0816
Er36     Er     0.3859   0.3849   0.2482
Ti37     Ti     0.8011   0.1335   0.9194
Ce38     Ce     0.784   0.1174   0.4108
Ti39     Ti     0.5332   0.001   0.2527
Ce40     Ce     0.5492   0.9999   0.7442
Ti41     Ti     0.6657   0.8655   0.586
Ce42     Ce     0.6667   0.8826   0.0775
V43     V     0.6315   0.0007   0.7482
Er44     Er     0.7193   0.0516   0.9149
V45     V     0.666   0.9641   0.0816
Er46     Er     0.6151   0.001   0.2482
V47     V     0.7025   0.0352   0.4149
Er48     Er     0.6656   0.9474   0.5816
Ti49     Ti     0.001   0.4678   0.7473
Ce50     Ce     0.9999   0.4507   0.2558
Ti51     Ti     0.1335   0.3324   0.0806
Ce52     Ce     0.1174   0.3334   0.5892
Ti53     Ti     0.8655   0.1999   0.414
Ce54     Ce     0.8826   0.2159   0.9225
V55     V     0.9641   0.2982   0.9184
Er56     Er     0.001   0.3859   0.7518
V57     V     0.0352   0.3326   0.5851
Er58     Er     0.9474   0.2818   0.4184
V59     V     0.0007   0.3692   0.2518
Er60     Er     0.0516   0.3323   0.0851
Ti61     Ti     0.3343   0.1345   0.414
Ce62     Ce     0.3333   0.1174   0.9225
Ti63     Ti     0.1989   0.8665   0.0806
Ce64     Ce     0.216   0.8826   0.5892
Ti65     Ti     0.4668   0.999   0.7473
Ce66     Ce     0.4508   0.0001   0.2558
V67     V     0.3685   0.9993   0.2518
Er68     Er     0.2807   0.9484   0.0851
V69     V     0.334   0.0359   0.9184
Er70     Er     0.3849   0.999   0.7518
V71     V     0.2975   0.9648   0.5851
Er72     Er     0.3344   0.0526   0.4184
loop_
_geom_bond_atom_site_label_1
_geom_bond_atom_site_label_2
_geom_bond_distance
_geom_bond_site_symmetry_2
_ccdc_geom_bond_type
Ti1     Er10    10.057   .     S
Ti1     Ce64    10.069   .     S
Ti1     Ce2    9.871   1_556     S
Ce2     V7    10.061   .     S
Ce2     Ti63    10.069   .     S
Ce2     Ti1    9.871   1_554     S
Ti3     Er8    10.057   .     S
Ti3     Ce50    10.069   .     S
Ti3     Ce4    9.871   1_655     S
Ce4     V11    10.061   1_455     S
Ce4     Ti49    10.069   .     S
Ce4     Ti3    9.871   1_455     S
Ti5     Er12    10.057   .     S
Ti5     Ce16    10.069   .     S
Ti5     Ce6    9.871   1_556     S
Ce6     V9    10.061   .     S
Ce6     Ti15    10.069   .     S
Ce6     Ti5    9.871   1_554     S
V7     Er10    10.036   .     S
V7     Er10    10.036   1_554     S
V7     Er12    9.933   1_454     S
V7     Er8    9.934   1_455     S
V7     V9    10.002   1_455     S
V7     V11    10.002   1_454     S
Er8     V11    10.036   .     S
Er8     V11    10.036   1_554     S
Er8     V7    9.934   1_655     S
Er8     V9    9.933   .     S
V9     Er12    10.036   1_554     S
V9     Er12    10.036   .     S
V9     Er10    9.934   1_655     S
V9     V7    10.002   1_655     S
V9     V11    10.002   .     S
Er10     V7    10.036   1_556     S
Er10     V9    9.934   1_455     S
Er10     V11    9.933   1_455     S
V11     Ce4    10.061   1_655     S
V11     Er8    10.036   1_556     S
V11     Er10    9.933   1_655     S
V11     Er12    9.934   .     S
V11     V7    10.002   1_656     S
Er12     V9    10.036   1_556     S
Er12     V7    9.933   1_656     S
Ti13     Er24    10.057   .     S
Ti13     Ce26    10.069   .     S
Ti13     Ce14    9.871   .     S
Ce14     V21    10.061   .     S
Ce14     Ti25    10.069   .     S
Ti15     Er20    10.057   .     S
Ti15     Ce16    9.871   1_554     S
Ce16     V23    10.061   .     S
Ce16     Ti15    9.871   1_556     S
Ti17     Er22    10.057   .     S
Ti17     Ce42    10.069   .     S
Ti17     Ce18    9.871   1_554     S
Ce18     V19    10.061   .     S
Ce18     Ti41    10.069   .     S
Ce18     Ti17    9.871   1_556     S
V19     Er22    10.036   .     S
V19     Er22    10.036   1_556     S
V19     Er24    9.933   .     S
V19     Er20    9.934   .     S
V19     V21    10.002   .     S
V19     V23    10.002   .     S
Er20     V23    10.036   1_554     S
Er20     V23    10.036   .     S
Er20     V21    9.933   .     S
V21     Er24    10.036   .     S
V21     Er24    10.036   1_554     S
V21     Er22    9.934   .     S
V21     V23    10.002   1_554     S
Er22     V19    10.036   1_554     S
Er22     V23    9.933   1_554     S
V23     Er20    10.036   1_556     S
V23     Er22    9.933   1_556     S
V23     Er24    9.934   .     S
V23     V21    10.002   1_556     S
Er24     V21    10.036   1_556     S
Ti25     Er36    10.057   .     S
Ti25     Ce26    9.871   .     S
Ce26     V33    10.061   .     S
Ti27     Er34    10.057   .     S
Ti27     Ce62    10.069   .     S
Ti27     Ce28    9.871   1_556     S
Ce28     V31    10.061   .     S
Ce28     Ti61    10.069   .     S
Ce28     Ti27    9.871   1_554     S
Ti29     Er32    10.057   .     S
Ti29     Ce52    10.069   .     S
Ti29     Ce30    9.871   1_556     S
Ce30     V35    10.061   .     S
Ce30     Ti51    10.069   .     S
Ce30     Ti29    9.871   1_554     S
V31     Er34    10.036   .     S
V31     Er34    10.036   1_554     S
V31     Er36    9.933   .     S
V31     Er32    9.934   .     S
V31     V33    10.002   .     S
V31     V35    10.002   .     S
Er32     V35    10.036   1_556     S
Er32     V35    10.036   .     S
Er32     V33    9.933   .     S
V33     Er36    10.036   .     S
V33     Er36    10.036   1_556     S
V33     Er34    9.934   .     S
V33     V35    10.002   1_556     S
Er34     V31    10.036   1_556     S
Er34     V35    9.933   1_556     S
V35     Er32    10.036   1_554     S
V35     Er34    9.933   1_554     S
V35     Er36    9.934   .     S
V35     V33    10.002   1_554     S
Er36     V33    10.036   1_554     S
Ti37     Er44    10.057   .     S
Ti37     Ce54    10.069   .     S
Ti37     Ce38    9.871   1_556     S
Ce38     V47    10.061   .     S
Ce38     Ti53    10.069   .     S
Ce38     Ti37    9.871   1_554     S
Ti39     Er46    10.057   .     S
Ti39     Ce66    10.069   .     S
Ti39     Ce40    9.871   1_545     S
Ce40     V43    10.061   1_565     S
Ce40     Ti65    10.069   .     S
Ce40     Ti39    9.871   1_565     S
Ti41     Er48    10.057   .     S
Ti41     Ce42    9.871   1_556     S
Ce42     V45    10.061   .     S
Ce42     Ti41    9.871   1_554     S
V43     Ce40    10.061   1_545     S
V43     Er46    10.036   1_556     S
V43     Er46    10.036   .     S
V43     Er48    9.933   1_545     S
V43     Er44    9.934   .     S
V43     V45    10.002   1_546     S
V43     V47    10.002   .     S
Er44     V47    10.036   1_556     S
Er44     V47    10.036   .     S
Er44     V45    9.933   1_546     S
V45     Er48    10.036   1_554     S
V45     Er48    10.036   .     S
V45     Er44    9.933   1_564     S
V45     Er46    9.934   1_565     S
V45     V43    10.002   1_564     S
V45     V47    10.002   1_565     S
Er46     V43    10.036   1_554     S
Er46     V45    9.934   1_545     S
Er46     V47    9.933   .     S
V47     Er44    10.036   1_554     S
V47     Er48    9.934   1_545     S
V47     V45    10.002   1_545     S
Er48     V45    10.036   1_556     S
Er48     V43    9.933   1_565     S
Er48     V47    9.934   1_565     S
Ti49     Er56    10.057   .     S
Ti49     Ce50    9.871   1_455     S
Ce50     V59    10.061   1_655     S
Ce50     Ti49    9.871   1_655     S
Ti51     Er60    10.057   .     S
Ti51     Ce52    9.871   1_554     S
Ce52     V57    10.061   .     S
Ce52     Ti51    9.871   1_556     S
Ti53     Er58    10.057   .     S
Ti53     Ce54    9.871   1_554     S
Ce54     V55    10.061   .     S
Ce54     Ti53    9.871   1_556     S
V55     Er58    10.036   .     S
V55     Er58    10.036   1_556     S
V55     Er60    9.933   1_656     S
V55     Er56    9.934   1_655     S
V55     V57    10.002   1_655     S
V55     V59    10.002   1_656     S
Er56     V59    10.036   .     S
Er56     V59    10.036   1_556     S
Er56     V55    9.934   1_455     S
Er56     V57    9.933   .     S
V57     Er60    10.036   1_556     S
V57     Er60    10.036   .     S
V57     Er58    9.934   1_455     S
V57     V55    10.002   1_455     S
V57     V59    10.002   .     S
Er58     V55    10.036   1_554     S
Er58     V57    9.934   1_655     S
Er58     V59    9.933   1_655     S
V59     Ce50    10.061   1_455     S
V59     Er56    10.036   1_554     S
V59     Er58    9.933   1_455     S
V59     Er60    9.934   .     S
V59     V55    10.002   1_454     S
Er60     V57    10.036   1_554     S
Er60     V55    9.933   1_454     S
Ti61     Er72    10.057   .     S
Ti61     Ce62    9.871   1_554     S
Ce62     V69    10.061   .     S
Ce62     Ti61    9.871   1_556     S
Ti63     Er68    10.057   .     S
Ti63     Ce64    9.871   1_554     S
Ce64     V71    10.061   .     S
Ce64     Ti63    9.871   1_556     S
Ti65     Er70    10.057   .     S
Ti65     Ce66    9.871   1_565     S
Ce66     V67    10.061   1_545     S
Ce66     Ti65    9.871   1_545     S
V67     Ce66    10.061   1_565     S
V67     Er70    10.036   1_554     S
V67     Er70    10.036   .     S
V67     Er72    9.933   1_565     S
V67     Er68    9.934   .     S
V67     V69    10.002   1_564     S
V67     V71    10.002   .     S
Er68     V71    10.036   1_554     S
Er68     V71    10.036   .     S
Er68     V69    9.933   1_564     S
V69     Er72    10.036   1_556     S
V69     Er72    10.036   .     S
V69     Er68    9.933   1_546     S
V69     Er70    9.934   1_545     S
V69     V67    10.002   1_546     S
V69     V71    10.002   1_545     S
Er70     V67    10.036   1_556     S
Er70     V69    9.934   1_565     S
Er70     V71    9.933   .     S
V71     Er68    10.036   1_556     S
V71     Er72    9.934   1_565     S
V71     V69    10.002   1_565     S
Er72     V69    10.036   1_554     S
Er72     V67    9.933   1_545     S
Er72     V71    9.934   1_545     S
