data_msi
_audit_creation_date              2020-02-02
_audit_creation_method            'Pymatgen'
_symmetry_space_group_name_H-M    'P1'
_symmetry_Int_Tables_number       1
loop_
_symmetry_equiv_pos_as_xyz
  x,y,z
_cell_length_a                    100.0623
_cell_length_b                    100.0623
_cell_length_c                    19.557
_cell_angle_alpha                 90.0
_cell_angle_beta                 90.0
_cell_angle_gamma                 120.0
loop_
_atom_site_label
_atom_site_type_symbol
_atom_site_fract_x
_atom_site_fract_y
_atom_site_fract_z
Ti1     Ti     0.4239   0.5673   0.3379
Ce2     Ce     0.4162   0.5837   0.8383
Ti3     Ti     0.5673   0.4239   0.6621
Ce4     Ce     0.5837   0.4162   0.1617
S5     S     0.4691   0.5268   0.9957
S6     S     0.5268   0.4691   0.0043
Er7     Er     0.7413   0.3709   0.0098
V8     V     0.6416   0.2828   0.8431
Er9     Er     0.6296   0.2587   0.3431
V10     V     0.6412   0.3584   0.1765
V11     V     0.7172   0.3588   0.5098
Er12     Er     0.6291   0.3704   0.6765
Ti13     Ti     0.8566   0.4327   0.9955
Ce14     Ce     0.8325   0.4163   0.4951
Ti15     Ti     0.1434   0.5761   0.6712
Ce16     Ce     0.1675   0.5838   0.1716
S17     S     0.0577   0.5309   0.3291
S18     S     0.9423   0.4732   0.3376
Er19     Er     0.3709   0.7413   0.9902
V20     V     0.2828   0.6416   0.1569
V21     V     0.3588   0.7172   0.4902
Er22     Er     0.3704   0.6291   0.3235
V23     V     0.3584   0.6412   0.8235
Er24     Er     0.2587   0.6296   0.6569
Ti25     Ti     0.5761   0.1434   0.3288
Ce26     Ce     0.5838   0.1675   0.8284
Ti27     Ti     0.4327   0.8566   0.0045
Ce28     Ce     0.4163   0.8325   0.5049
S29     S     0.4732   0.9423   0.6624
S30     S     0.5309   0.0577   0.6709
loop_
_geom_bond_atom_site_label_1
_geom_bond_atom_site_label_2
_geom_bond_distance
_geom_bond_site_symmetry_2
_ccdc_geom_bond_type
Ti1     Er22    10.0   .     S
Ti1     Ce2    10.0   1_554     S
Ti1     S5    10.0   1_554     S
Ce2     V23    10.0   .     S
Ce2     Ti1    10.0   1_556     S
Ce2     S5    10.0   .     S
Ti3     Er12    10.0   .     S
Ti3     Ce4    10.0   1_556     S
Ti3     S6    10.0   1_556     S
Ce4     Ti3    10.0   1_554     S
Ce4     S6    10.0   .     S
Ce4     V10    10.0   .     S
S5     Ti1    10.0   1_556     S
S5     S6    10.0   1_556     S
S6     Ti3    10.0   1_554     S
S6     S5    10.0   1_554     S
Er7     V10    10.0   .     S
Er7     V8    10.0   1_554     S
Er7     V11    10.0   .     S
Er7     V11    10.0   1_554     S
Er7     Ti13    10.0   1_554     S
V8     V11    10.0   .     S
V8     Er7    10.0   1_556     S
V8     Er9    10.0   .     S
V8     V10    10.0   1_556     S
V8     Er12    10.0   .     S
V8     Er9    10.0   1_556     S
V8     Ce26    10.0   .     S
Er9     V11    10.0   .     S
Er9     V10    10.0   .     S
Er9     V8    10.0   1_554     S
Er9     Ti25    10.0   .     S
V10     V8    10.0   1_554     S
V10     Er12    10.0   1_554     S
V10     V11    10.0   .     S
V10     Er12    10.0   .     S
V11     Er12    10.0   .     S
V11     Er7    10.0   1_556     S
V11     Ce14    10.0   .     S
Er12     V10    10.0   1_556     S
Ti13     Er7    10.0   1_556     S
Ti13     Ce14    10.0   1_556     S
Ti13     S18    10.0   1_556     S
Ce14     Ti13    10.0   1_554     S
Ce14     S18    10.0   .     S
Ti15     Er24    10.0   .     S
Ti15     Ce16    10.0   .     S
Ti15     S17    10.0   .     S
Ce16     V20    10.0   .     S
Ce16     S17    10.0   .     S
S17     S18    10.0   1_455     S
S18     Ti13    10.0   1_554     S
S18     S17    10.0   1_655     S
Er19     V23    10.0   .     S
Er19     V20    10.0   1_556     S
Er19     V21    10.0   .     S
Er19     V21    10.0   1_556     S
Er19     Ti27    10.0   1_556     S
V20     V21    10.0   .     S
V20     Er19    10.0   1_554     S
V20     Er24    10.0   .     S
V20     Er22    10.0   .     S
V20     V23    10.0   1_554     S
V20     Er24    10.0   1_554     S
V21     V23    10.0   .     S
V21     Er22    10.0   .     S
V21     Er24    10.0   .     S
V21     Er19    10.0   1_554     S
V21     Ce28    10.0   .     S
Er22     V23    10.0   1_554     S
Er22     V23    10.0   .     S
V23     V20    10.0   1_556     S
V23     Er24    10.0   .     S
V23     Er22    10.0   1_556     S
Er24     V20    10.0   1_556     S
Ti25     Ce26    10.0   .     S
Ti25     S30    10.0   .     S
Ce26     S30    10.0   .     S
Ti27     Er19    10.0   1_554     S
Ti27     Ce28    10.0   1_554     S
Ti27     S29    10.0   1_554     S
Ce28     Ti27    10.0   1_556     S
Ce28     S29    10.0   .     S
S29     Ti27    10.0   1_556     S
S29     S30    10.0   1_565     S
S30     S29    10.0   1_545     S
