data_myca
_audit_creation_date              2020-02-02
_audit_creation_method            'Pymatgen'
_symmetry_space_group_name_H-M    'P1'
_symmetry_Int_Tables_number       1
loop_
_symmetry_equiv_pos_as_xyz
  x,y,z
_cell_length_a                    91.4277
_cell_length_b                    91.4277
_cell_length_c                    91.4277
_cell_angle_alpha                 90.0
_cell_angle_beta                 90.0
_cell_angle_gamma                 90.0
loop_
_atom_site_label
_atom_site_type_symbol
_atom_site_fract_x
_atom_site_fract_y
_atom_site_fract_z
Ti1     Ti     0.6272   0.2889   0.0007
Ce2     Ce     0.6574   0.2847   0.1055
S3     S     0.5537   0.2624   0.077
Ti4     Ti     0.7111   0.5007   0.8728
Ce5     Ce     0.7153   0.6055   0.8426
S6     S     0.7376   0.577   0.9463
Er7     Er     0.6977   0.3415   0.7524
V8     V     0.6925   0.3962   0.8463
Er9     Er     0.7476   0.3023   0.8415
V10     V     0.6537   0.3075   0.8962
Er11     Er     0.6585   0.2524   0.8023
V12     V     0.6038   0.3463   0.8075
Ti13     Ti     0.4993   0.3728   0.7889
Ce14     Ce     0.3945   0.3425   0.7847
S15     S     0.423   0.4463   0.7624
Ti16     Ti     0.0007   0.3728   0.2111
Ce17     Ce     0.1055   0.3426   0.2153
S18     S     0.077   0.4463   0.2376
Ti19     Ti     0.7889   0.5007   0.1272
Ce20     Ce     0.7847   0.6055   0.1574
S21     S     0.7624   0.577   0.0537
Ti22     Ti     0.8728   0.2889   0.9993
Ce23     Ce     0.8426   0.2847   0.8945
S24     S     0.9463   0.2624   0.923
Er25     Er     0.7524   0.3023   0.1585
V26     V     0.8463   0.3075   0.1038
Er27     Er     0.8415   0.2524   0.1977
V28     V     0.8962   0.3463   0.1925
Er29     Er     0.8023   0.3415   0.2476
V30     V     0.8075   0.3962   0.1537
Ti31     Ti     0.0007   0.6272   0.2889
Ce32     Ce     0.1055   0.6574   0.2847
S33     S     0.077   0.5537   0.2624
Ti34     Ti     0.8728   0.7111   0.5007
Ce35     Ce     0.8426   0.7153   0.6055
S36     S     0.9463   0.7376   0.577
Er37     Er     0.7524   0.6977   0.3415
V38     V     0.8463   0.6925   0.3962
Er39     Er     0.8415   0.7476   0.3023
V40     V     0.8962   0.6537   0.3075
Er41     Er     0.8023   0.6585   0.2524
V42     V     0.8075   0.6038   0.3463
Ti43     Ti     0.7889   0.4993   0.3728
Ce44     Ce     0.7847   0.3945   0.3426
S45     S     0.7624   0.423   0.4463
Ti46     Ti     0.7111   0.4993   0.6272
Ce47     Ce     0.7153   0.3945   0.6574
S48     S     0.7376   0.423   0.5537
Ti49     Ti     0.4993   0.6272   0.7111
Ce50     Ce     0.3945   0.6574   0.7153
S51     S     0.423   0.5537   0.7376
Er52     Er     0.6977   0.6585   0.7476
V53     V     0.6925   0.6038   0.6537
Er54     Er     0.7476   0.6977   0.6585
V55     V     0.6537   0.6925   0.6038
Er56     Er     0.6585   0.7476   0.6977
V57     V     0.6038   0.6537   0.6925
Ti58     Ti     0.6272   0.7111   0.4993
Ce59     Ce     0.6574   0.7153   0.3945
S60     S     0.5537   0.7376   0.423
Ti61     Ti     0.2889   0.0007   0.6272
Ce62     Ce     0.2847   0.1055   0.6574
S63     S     0.2624   0.077   0.5537
Ti64     Ti     0.5007   0.8728   0.7111
Ce65     Ce     0.6055   0.8426   0.7153
S66     S     0.577   0.9463   0.7376
Er67     Er     0.3415   0.7524   0.6977
V68     V     0.3962   0.8463   0.6925
Er69     Er     0.3023   0.8415   0.7476
V70     V     0.3075   0.8962   0.6537
Er71     Er     0.2524   0.8023   0.6585
V72     V     0.3463   0.8075   0.6038
Ti73     Ti     0.3728   0.7889   0.4993
Ce74     Ce     0.3426   0.7847   0.3945
S75     S     0.4463   0.7624   0.423
Ti76     Ti     0.5007   0.1272   0.7889
Ce77     Ce     0.6055   0.1574   0.7847
S78     S     0.577   0.0537   0.7624
Ti79     Ti     0.2889   0.9993   0.8728
Ce80     Ce     0.2847   0.8945   0.8426
S81     S     0.2624   0.923   0.9463
Er82     Er     0.2524   0.1977   0.8415
V83     V     0.3463   0.1925   0.8962
Er84     Er     0.3023   0.1585   0.7524
V85     V     0.3075   0.1038   0.8463
Er86     Er     0.3415   0.2476   0.8023
V87     V     0.3962   0.1537   0.8075
Ti88     Ti     0.3728   0.2111   0.0007
Ce89     Ce     0.3426   0.2153   0.1055
S90     S     0.4463   0.2376   0.077
Ti91     Ti     0.1272   0.2111   0.9993
Ce92     Ce     0.1574   0.2153   0.8945
S93     S     0.0537   0.2376   0.923
Ti94     Ti     0.2111   0.9993   0.1272
Ce95     Ce     0.2153   0.8945   0.1574
S96     S     0.2376   0.923   0.0537
Er97     Er     0.2476   0.1977   0.1585
V98     V     0.1537   0.1925   0.1038
Er99     Er     0.1585   0.2476   0.1977
V100     V     0.1038   0.1537   0.1925
Er101     Er     0.1977   0.1585   0.2476
V102     V     0.1925   0.1038   0.1537
Ti103     Ti     0.9993   0.1272   0.2111
Ce104     Ce     0.8945   0.1574   0.2153
S105     S     0.923   0.0537   0.2376
Ti106     Ti     0.2111   0.0007   0.3728
Ce107     Ce     0.2153   0.1055   0.3426
S108     S     0.2376   0.077   0.4463
Ti109     Ti     0.1272   0.7889   0.5007
Ce110     Ce     0.1574   0.7847   0.6055
S111     S     0.0537   0.7624   0.577
Ti112     Ti     0.9993   0.8728   0.2889
Ce113     Ce     0.8945   0.8426   0.2847
S114     S     0.923   0.9463   0.2624
Er115     Er     0.1977   0.8415   0.2524
V116     V     0.1925   0.8962   0.3463
Er117     Er     0.2476   0.8023   0.3415
V118     V     0.1537   0.8075   0.3962
Er119     Er     0.1585   0.7524   0.3023
V120     V     0.1038   0.8463   0.3075
loop_
_geom_bond_atom_site_label_1
_geom_bond_atom_site_label_2
_geom_bond_distance
_geom_bond_site_symmetry_2
_ccdc_geom_bond_type
Ti1     S3    9.979   .     S
Ti1     Ce2    9.975   .     S
Ti1     V10    10.006   1_554     S
Ce2     Er25    10.07   .     S
Ce2     S3    10.049   .     S
S3     S90    10.07   .     S
Ti4     S6    9.979   .     S
Ti4     Ce5    9.975   .     S
Ti4     V8    10.006   .     S
Ce5     Er52    10.07   .     S
Ce5     S6    10.049   .     S
S6     S21    10.07   1_556     S
Er7     Ce47    10.07   .     S
Er7     V8    9.954   .     S
Er7     V12    9.968   .     S
Er7     Er9    10.002   .     S
Er7     Er11    10.002   .     S
V8     V10    9.96   .     S
V8     Er9    9.968   .     S
V8     V12    9.96   .     S
Er9     Ce23    10.07   .     S
Er9     V10    9.954   .     S
Er9     Er11    10.002   .     S
V10     V12    9.96   .     S
V10     Er11    9.968   .     S
V10     Ti1    10.006   1_556     S
Er11     Ce77    10.07   .     S
Er11     V12    9.954   .     S
V12     Ti13    10.006   .     S
Ti13     S15    9.979   .     S
Ti13     Ce14    9.975   .     S
Ce14     Er86    10.07   .     S
Ce14     S15    10.049   .     S
S15     S51    10.07   .     S
Ti16     S18    9.979   .     S
Ti16     Ce17    9.975   .     S
Ti16     V28    10.006   1_455     S
Ce17     Er99    10.07   .     S
Ce17     S18    10.049   .     S
S18     S33    10.07   .     S
Ti19     S21    9.979   .     S
Ti19     Ce20    9.975   .     S
Ti19     V30    10.006   .     S
Ce20     Er41    10.07   .     S
Ce20     S21    10.049   .     S
S21     S6    10.07   1_554     S
Ti22     S24    9.979   .     S
Ti22     Ce23    9.975   .     S
Ti22     V26    10.006   1_556     S
Ce23     S24    10.049   .     S
S24     S93    10.07   1_655     S
Er25     V26    9.954   .     S
Er25     V30    9.968   .     S
Er25     Er27    10.002   .     S
Er25     Er29    10.002   .     S
V26     V28    9.96   .     S
V26     Er27    9.968   .     S
V26     V30    9.96   .     S
V26     Ti22    10.006   1_554     S
Er27     Ce104    10.07   .     S
Er27     V28    9.954   .     S
Er27     Er29    10.002   .     S
V28     V30    9.96   .     S
V28     Er29    9.968   .     S
V28     Ti16    10.006   1_655     S
Er29     Ce44    10.07   .     S
Er29     V30    9.954   .     S
Ti31     S33    9.979   .     S
Ti31     Ce32    9.975   .     S
Ti31     V40    10.006   1_455     S
Ce32     Er119    10.07   .     S
Ce32     S33    10.049   .     S
Ti34     S36    9.979   .     S
Ti34     Ce35    9.975   .     S
Ti34     V38    10.006   .     S
Ce35     Er54    10.07   .     S
Ce35     S36    10.049   .     S
S36     S111    10.07   1_655     S
Er37     Ce59    10.07   .     S
Er37     V38    9.954   .     S
Er37     V42    9.968   .     S
Er37     Er39    10.002   .     S
Er37     Er41    10.002   .     S
V38     V40    9.96   .     S
V38     Er39    9.968   .     S
V38     V42    9.96   .     S
Er39     Ce113    10.07   .     S
Er39     V40    9.954   .     S
Er39     Er41    10.002   .     S
V40     V42    9.96   .     S
V40     Er41    9.968   .     S
V40     Ti31    10.006   1_655     S
Er41     V42    9.954   .     S
V42     Ti43    10.006   .     S
Ti43     S45    9.979   .     S
Ti43     Ce44    9.975   .     S
Ce44     S45    10.049   .     S
S45     S48    10.07   .     S
Ti46     S48    9.979   .     S
Ti46     Ce47    9.975   .     S
Ti46     V53    10.006   .     S
Ce47     S48    10.049   .     S
Ti49     S51    9.979   .     S
Ti49     Ce50    9.975   .     S
Ti49     V57    10.006   .     S
Ce50     Er67    10.07   .     S
Ce50     S51    10.049   .     S
Er52     V53    9.954   .     S
Er52     V57    9.968   .     S
Er52     Er54    10.002   .     S
Er52     Er56    10.002   .     S
V53     V55    9.96   .     S
V53     Er54    9.968   .     S
V53     V57    9.96   .     S
Er54     V55    9.954   .     S
Er54     Er56    10.002   .     S
V55     V57    9.96   .     S
V55     Er56    9.968   .     S
V55     Ti58    10.006   .     S
Er56     Ce65    10.07   .     S
Er56     V57    9.954   .     S
Ti58     S60    9.979   .     S
Ti58     Ce59    9.975   .     S
Ce59     S60    10.049   .     S
S60     S75    10.07   .     S
Ti61     S63    9.979   .     S
Ti61     Ce62    9.975   .     S
Ti61     V70    10.006   1_545     S
Ce62     Er84    10.07   .     S
Ce62     S63    10.049   .     S
S63     S108    10.07   .     S
Ti64     S66    9.979   .     S
Ti64     Ce65    9.975   .     S
Ti64     V68    10.006   .     S
Ce65     S66    10.049   .     S
S66     S78    10.07   1_565     S
Er67     V68    9.954   .     S
Er67     V72    9.968   .     S
Er67     Er69    10.002   .     S
Er67     Er71    10.002   .     S
V68     V70    9.96   .     S
V68     Er69    9.968   .     S
V68     V72    9.96   .     S
Er69     Ce80    10.07   .     S
Er69     V70    9.954   .     S
Er69     Er71    10.002   .     S
V70     V72    9.96   .     S
V70     Er71    9.968   .     S
V70     Ti61    10.006   1_565     S
Er71     Ce110    10.07   .     S
Er71     V72    9.954   .     S
V72     Ti73    10.006   .     S
Ti73     S75    9.979   .     S
Ti73     Ce74    9.975   .     S
Ce74     Er117    10.07   .     S
Ce74     S75    10.049   .     S
Ti76     S78    9.979   .     S
Ti76     Ce77    9.975   .     S
Ti76     V87    10.006   .     S
Ce77     S78    10.049   .     S
S78     S66    10.07   1_545     S
Ti79     S81    9.979   .     S
Ti79     Ce80    9.975   .     S
Ti79     V85    10.006   1_565     S
Ce80     S81    10.049   .     S
S81     S96    10.07   1_556     S
Er82     Ce92    10.07   .     S
Er82     V85    9.968   .     S
Er82     V83    9.954   .     S
Er82     Er84    10.002   .     S
Er82     Er86    10.002   .     S
V83     V85    9.96   .     S
V83     V87    9.96   .     S
V83     Er86    9.968   .     S
V83     Ti88    10.006   1_556     S
Er84     V85    9.954   .     S
Er84     V87    9.968   .     S
Er84     Er86    10.002   .     S
V85     V87    9.96   .     S
V85     Ti79    10.006   1_545     S
Er86     V87    9.954   .     S
Ti88     S90    9.979   .     S
Ti88     Ce89    9.975   .     S
Ti88     V83    10.006   1_554     S
Ce89     Er97    10.07   .     S
Ce89     S90    10.049   .     S
Ti91     S93    9.979   .     S
Ti91     Ce92    9.975   .     S
Ti91     V98    10.006   1_556     S
Ce92     S93    10.049   .     S
S93     S24    10.07   1_455     S
Ti94     S96    9.979   .     S
Ti94     Ce95    9.975   .     S
Ti94     V102    10.006   1_565     S
Ce95     Er115    10.07   .     S
Ce95     S96    10.049   .     S
S96     S81    10.07   1_554     S
Er97     V98    9.954   .     S
Er97     V102    9.968   .     S
Er97     Er99    10.002   .     S
Er97     Er101    10.002   .     S
V98     V100    9.96   .     S
V98     Er99    9.968   .     S
V98     V102    9.96   .     S
V98     Ti91    10.006   1_554     S
Er99     V100    9.954   .     S
Er99     Er101    10.002   .     S
V100     V102    9.96   .     S
V100     Er101    9.968   .     S
V100     Ti103    10.006   1_455     S
Er101     Ce107    10.07   .     S
Er101     V102    9.954   .     S
V102     Ti94    10.006   1_545     S
Ti103     S105    9.979   .     S
Ti103     Ce104    9.975   .     S
Ti103     V100    10.006   1_655     S
Ce104     S105    10.049   .     S
S105     S114    10.07   1_545     S
Ti106     S108    9.979   .     S
Ti106     Ce107    9.975   .     S
Ti106     V116    10.006   1_545     S
Ce107     S108    10.049   .     S
Ti109     S111    9.979   .     S
Ti109     Ce110    9.975   .     S
Ti109     V118    10.006   .     S
Ce110     S111    10.049   .     S
S111     S36    10.07   1_455     S
Ti112     S114    9.979   .     S
Ti112     Ce113    9.975   .     S
Ti112     V120    10.006   1_655     S
Ce113     S114    10.049   .     S
S114     S105    10.07   1_565     S
Er115     V120    9.968   .     S
Er115     V116    9.954   .     S
Er115     Er119    10.002   .     S
Er115     Er117    10.002   .     S
V116     V120    9.96   .     S
V116     V118    9.96   .     S
V116     Er117    9.968   .     S
V116     Ti106    10.006   1_565     S
Er117     V118    9.954   .     S
Er117     Er119    10.002   .     S
V118     V120    9.96   .     S
V118     Er119    9.968   .     S
Er119     V120    9.954   .     S
V120     Ti112    10.006   1_455     S
