data_myda
_audit_creation_date              2020-02-02
_audit_creation_method            'Pymatgen'
_symmetry_space_group_name_H-M    'P1'
_symmetry_Int_Tables_number       1
loop_
_symmetry_equiv_pos_as_xyz
  x,y,z
_cell_length_a                    70.2747
_cell_length_b                    70.2747
_cell_length_c                    70.2747
_cell_angle_alpha                 90.0
_cell_angle_beta                 90.0
_cell_angle_gamma                 90.0
loop_
_atom_site_label
_atom_site_type_symbol
_atom_site_fract_x
_atom_site_fract_y
_atom_site_fract_z
Ce1     Ce     0.6793   0.7377   0.5082
Ce2     Ce     0.7377   0.5082   0.6793
Ce3     Ce     0.5082   0.6793   0.7377
Ti4     Ti     0.5038   0.321   0.6201
Ti5     Ti     0.321   0.6201   0.5038
Ti6     Ti     0.6201   0.5038   0.321
V7     V     0.6374   0.5212   0.5792
V8     V     0.5212   0.5792   0.6374
V9     V     0.5792   0.6374   0.5212
Er10     Er     0.5703   0.5123   0.4541
Er11     Er     0.4541   0.5703   0.5123
Er12     Er     0.5123   0.4541   0.5703
Ce13     Ce     0.2623   0.9918   0.6793
Ce14     Ce     0.4918   0.8207   0.7377
Ce15     Ce     0.3207   0.7623   0.5082
Ti16     Ti     0.4962   0.1789   0.6201
Ti17     Ti     0.679   0.8799   0.5038
Ti18     Ti     0.3799   0.9962   0.321
V19     V     0.4208   0.8626   0.5212
V20     V     0.3626   0.9788   0.5792
V21     V     0.4788   0.9208   0.6374
Er22     Er     0.4297   0.9877   0.4541
Er23     Er     0.4877   0.0459   0.5703
Er24     Er     0.5459   0.9297   0.5123
Ce25     Ce     0.2623   0.0082   0.8207
Ce26     Ce     0.4918   0.1793   0.7623
Ce27     Ce     0.3207   0.2377   0.9918
Ti28     Ti     0.679   0.1201   0.9962
Ti29     Ti     0.3799   0.0038   0.179
Ti30     Ti     0.4962   0.821   0.8799
V31     V     0.3626   0.0212   0.9208
V32     V     0.4788   0.0792   0.8626
V33     V     0.4208   0.1374   0.9788
Er34     Er     0.4297   0.0123   0.0459
Er35     Er     0.5459   0.0703   0.9877
Er36     Er     0.4877   0.9541   0.9297
Ce37     Ce     0.0082   0.8207   0.2623
Ce38     Ce     0.2377   0.9918   0.3207
Ce39     Ce     0.1793   0.7623   0.4918
Ti40     Ti     0.1201   0.9962   0.679
Ti41     Ti     0.0038   0.179   0.3799
Ti42     Ti     0.821   0.8799   0.4962
Er43     Er     0.0123   0.0459   0.4297
V44     V     0.1374   0.9788   0.4208
V45     V     0.0212   0.9208   0.3626
V46     V     0.0792   0.8626   0.4788
Er47     Er     0.9541   0.9297   0.4877
Er48     Er     0.0703   0.9877   0.5459
Ce49     Ce     0.1793   0.2377   0.0082
Ce50     Ce     0.2377   0.0082   0.1793
Ce51     Ce     0.0082   0.1793   0.2377
Ti52     Ti     0.1201   0.0038   0.821
Ti53     Ti     0.821   0.1201   0.0038
Ti54     Ti     0.0038   0.821   0.1201
Er55     Er     0.0703   0.0123   0.9541
Er56     Er     0.0123   0.9541   0.0703
V57     V     0.1374   0.0212   0.0792
V58     V     0.0212   0.0792   0.1374
V59     V     0.0792   0.1374   0.0212
Er60     Er     0.9541   0.0703   0.0123
Ce61     Ce     0.6793   0.2623   0.9918
Ce62     Ce     0.7377   0.4918   0.8207
Ce63     Ce     0.5082   0.3207   0.7623
Ti64     Ti     0.5038   0.679   0.8799
Ti65     Ti     0.6201   0.4962   0.179
Ti66     Ti     0.321   0.3799   0.9962
Er67     Er     0.5703   0.4877   0.0459
V68     V     0.5212   0.4208   0.8626
V69     V     0.5792   0.3626   0.9788
V70     V     0.6374   0.4788   0.9208
Er71     Er     0.4541   0.4297   0.9877
Er72     Er     0.5123   0.5459   0.9297
Ce73     Ce     0.8207   0.2623   0.0082
Ce74     Ce     0.9918   0.3207   0.2377
Ce75     Ce     0.7623   0.4918   0.1793
Ti76     Ti     0.9962   0.679   0.1201
Ti77     Ti     0.179   0.3799   0.0038
Ti78     Ti     0.8799   0.4962   0.821
Er79     Er     0.0459   0.4297   0.0123
V80     V     0.9788   0.4208   0.1374
V81     V     0.8626   0.4788   0.0792
V82     V     0.9208   0.3626   0.0212
Er83     Er     0.9877   0.5459   0.0703
Er84     Er     0.9297   0.4877   0.9541
Ce85     Ce     0.9918   0.6793   0.2623
Ce86     Ce     0.8207   0.7377   0.4918
Ce87     Ce     0.7623   0.5082   0.3207
Ti88     Ti     0.8799   0.5038   0.679
Ti89     Ti     0.9962   0.321   0.3799
Ti90     Ti     0.179   0.6201   0.4962
Er91     Er     0.0459   0.5703   0.4877
V92     V     0.8626   0.5212   0.4208
V93     V     0.9788   0.5792   0.3626
V94     V     0.9208   0.6374   0.4788
Er95     Er     0.9877   0.4541   0.4297
Er96     Er     0.9297   0.5123   0.5459
loop_
_geom_bond_atom_site_label_1
_geom_bond_atom_site_label_2
_geom_bond_distance
_geom_bond_site_symmetry_2
_ccdc_geom_bond_type
Ce1     V9    10.0   .     S
Ce1     Ti17    10.0   .     S
Ce1     Ce86    10.001   .     S
Ce2     V7    10.0   .     S
Ce2     Ti88    10.0   .     S
Ce2     Ce62    10.001   .     S
Ce3     V8    10.0   .     S
Ce3     Ti64    10.0   .     S
Ce3     Ce14    10.001   .     S
Ti4     Ce63    10.0   .     S
Ti4     Er12    10.0   .     S
Ti4     Ti16    10.0   .     S
Ti5     Ce15    10.0   .     S
Ti5     Er11    10.0   .     S
Ti5     Ti90    10.0   .     S
Ti6     Ce87    10.0   .     S
Ti6     Er10    10.0   .     S
Ti6     Ti65    10.0   .     S
V7     Er12    10.0   .     S
V7     V9    9.999   .     S
V7     V8    9.999   .     S
V7     Er10    10.0   .     S
V8     Er11    10.0   .     S
V8     V9    9.999   .     S
V8     Er12    10.0   .     S
V9     Er11    10.0   .     S
V9     Er10    10.0   .     S
Er10     Er12    10.0   .     S
Er10     Er11    10.0   .     S
Er11     Er12    10.0   .     S
Ce13     V20    10.0   .     S
Ce13     Ti40    10.0   .     S
Ce13     Ce25    10.001   1_565     S
Ce14     V21    10.0   .     S
Ce14     Ti30    10.0   .     S
Ce15     V19    10.0   .     S
Ce15     Ce39    10.001   .     S
Ti16     Ce26    10.0   .     S
Ti16     Er23    10.0   .     S
Ti17     Er24    10.0   .     S
Ti17     Ti42    10.0   .     S
Ti18     Ce38    10.0   .     S
Ti18     Er22    10.0   .     S
Ti18     Ti29    10.0   1_565     S
V19     V21    9.999   .     S
V19     V20    9.999   .     S
V19     Er24    10.0   .     S
V19     Er22    10.0   .     S
V20     V21    9.999   .     S
V20     Er22    10.0   .     S
V20     Er23    10.0   1_565     S
V21     Er24    10.0   .     S
V21     Er23    10.0   1_565     S
Er22     Er24    10.0   .     S
Er22     Er23    10.0   1_565     S
Er23     Er24    10.0   1_545     S
Er23     V21    10.0   1_545     S
Er23     V20    10.0   1_545     S
Er23     Er22    10.0   1_545     S
Er24     Er23    10.0   1_565     S
Ce25     V31    10.0   .     S
Ce25     Ti52    10.0   .     S
Ce25     Ce13    10.001   1_545     S
Ce26     V32    10.0   .     S
Ce26     Ce63    10.001   .     S
Ce27     V33    10.0   .     S
Ce27     Ti66    10.0   .     S
Ce27     Ce49    10.001   1_556     S
Ti28     Ce61    10.0   .     S
Ti28     Er35    10.0   .     S
Ti28     Ti53    10.0   1_556     S
Ti29     Ti18    10.0   1_545     S
Ti29     Ce50    10.0   .     S
Ti29     Er34    10.0   .     S
Ti30     Er36    10.0   .     S
Ti30     Ti64    10.0   .     S
V31     Er36    10.0   1_545     S
V31     V33    9.999   .     S
V31     V32    9.999   .     S
V31     Er34    10.0   1_556     S
V32     Er35    10.0   .     S
V32     V33    9.999   .     S
V32     Er36    10.0   1_545     S
V33     Er35    10.0   .     S
V33     Er34    10.0   1_556     S
Er34     Er36    10.0   1_544     S
Er34     V31    10.0   1_554     S
Er34     V33    10.0   1_554     S
Er34     Er35    10.0   1_554     S
Er35     Er36    10.0   1_545     S
Er35     Er34    10.0   1_556     S
Er36     Er35    10.0   1_565     S
Er36     V31    10.0   1_565     S
Er36     Er34    10.0   1_566     S
Er36     V32    10.0   1_565     S
Ce37     V45    10.0   .     S
Ce37     Ti54    10.0   .     S
Ce37     Ce85    10.001   1_455     S
Ce38     V44    10.0   .     S
Ce38     Ce50    10.001   1_565     S
Ce39     V46    10.0   .     S
Ce39     Ti90    10.0   .     S
Ti40     Er48    10.0   .     S
Ti40     Ti52    10.0   1_565     S
Ti41     Ce51    10.0   .     S
Ti41     Er43    10.0   .     S
Ti41     Ti89    10.0   1_455     S
Ti42     Ce86    10.0   .     S
Ti42     Er47    10.0   .     S
Er43     V44    10.0   1_545     S
Er43     Er48    10.0   1_545     S
Er43     Er47    10.0   1_445     S
Er43     V45    10.0   1_545     S
V44     Er43    10.0   1_565     S
V44     V46    9.999   .     S
V44     V45    9.999   .     S
V44     Er48    10.0   .     S
V45     Er47    10.0   1_455     S
V45     V46    9.999   .     S
V45     Er43    10.0   1_565     S
V46     Er48    10.0   .     S
V46     Er47    10.0   1_455     S
Er47     Er48    10.0   1_655     S
Er47     V45    10.0   1_655     S
Er47     Er43    10.0   1_665     S
Er47     V46    10.0   1_655     S
Er48     Er43    10.0   1_565     S
Er48     Er47    10.0   1_455     S
Ce49     V59    10.0   .     S
Ce49     Ti77    10.0   .     S
Ce49     Ce27    10.001   1_554     S
Ce50     V57    10.0   .     S
Ce50     Ce38    10.001   1_545     S
Ce51     V58    10.0   .     S
Ce51     Ce74    10.001   1_455     S
Ti52     Er55    10.0   .     S
Ti52     Ti40    10.0   1_545     S
Ti53     Ce73    10.0   .     S
Ti53     Er60    10.0   .     S
Ti53     Ti28    10.0   1_554     S
Ti54     Er56    10.0   .     S
Ti54     Ti76    10.0   1_455     S
Er55     V59    10.0   1_556     S
Er55     Er60    10.0   1_456     S
Er55     Er56    10.0   1_546     S
Er55     V57    10.0   1_556     S
Er56     V57    10.0   1_565     S
Er56     Er55    10.0   1_564     S
Er56     V58    10.0   1_565     S
Er56     Er60    10.0   1_465     S
V57     Er56    10.0   1_545     S
V57     V58    9.999   .     S
V57     V59    9.999   .     S
V57     Er55    10.0   1_554     S
V58     V59    9.999   .     S
V58     Er56    10.0   1_545     S
V58     Er60    10.0   1_455     S
V59     Er55    10.0   1_554     S
V59     Er60    10.0   1_455     S
Er60     Er55    10.0   1_654     S
Er60     V59    10.0   1_655     S
Er60     V58    10.0   1_655     S
Er60     Er56    10.0   1_645     S
Ce61     V69    10.0   .     S
Ce61     Ce73    10.001   1_556     S
Ce62     V70    10.0   .     S
Ce62     Ti78    10.0   .     S
Ce63     V68    10.0   .     S
Ti64     Er72    10.0   .     S
Ti65     Ce75    10.0   .     S
Ti65     Er67    10.0   .     S
Ti66     Er71    10.0   .     S
Ti66     Ti77    10.0   1_556     S
Er67     V69    10.0   1_554     S
Er67     Er71    10.0   1_554     S
Er67     Er72    10.0   1_554     S
Er67     V70    10.0   1_554     S
V68     Er71    10.0   .     S
V68     V70    9.999   .     S
V68     V69    9.999   .     S
V68     Er72    10.0   .     S
V69     Er67    10.0   1_556     S
V69     V70    9.999   .     S
V69     Er71    10.0   .     S
V70     Er72    10.0   .     S
V70     Er67    10.0   1_556     S
Er71     Er67    10.0   1_556     S
Er71     Er72    10.0   .     S
Er72     Er67    10.0   1_556     S
Ce73     V82    10.0   .     S
Ce73     Ce61    10.001   1_554     S
Ce74     V80    10.0   .     S
Ce74     Ti89    10.0   .     S
Ce74     Ce51    10.001   1_655     S
Ce75     V81    10.0   .     S
Ce75     Ce87    10.001   .     S
Ti76     Ce85    10.0   .     S
Ti76     Er83    10.0   .     S
Ti76     Ti54    10.0   1_655     S
Ti77     Ti66    10.0   1_554     S
Ti77     Er79    10.0   .     S
Ti78     Er84    10.0   .     S
Ti78     Ti88    10.0   .     S
Er79     V80    10.0   1_455     S
Er79     Er83    10.0   1_455     S
Er79     Er84    10.0   1_454     S
Er79     V82    10.0   1_455     S
V80     Er79    10.0   1_655     S
V80     V81    9.999   .     S
V80     V82    9.999   .     S
V80     Er83    10.0   .     S
V81     Er83    10.0   .     S
V81     V82    9.999   .     S
V81     Er84    10.0   1_554     S
V82     Er84    10.0   1_554     S
V82     Er79    10.0   1_655     S
Er83     Er79    10.0   1_655     S
Er83     Er84    10.0   1_554     S
Er84     Er83    10.0   1_556     S
Er84     V82    10.0   1_556     S
Er84     Er79    10.0   1_656     S
Er84     V81    10.0   1_556     S
Ce85     V93    10.0   .     S
Ce85     Ce37    10.001   1_655     S
Ce86     V94    10.0   .     S
Ce87     V92    10.0   .     S
Ti88     Er96    10.0   .     S
Ti89     Er95    10.0   .     S
Ti89     Ti41    10.0   1_655     S
Ti90     Er91    10.0   .     S
Er91     V93    10.0   1_455     S
Er91     Er95    10.0   1_455     S
Er91     Er96    10.0   1_455     S
Er91     V94    10.0   1_455     S
V92     Er95    10.0   .     S
V92     V94    9.999   .     S
V92     V93    9.999   .     S
V92     Er96    10.0   .     S
V93     Er91    10.0   1_655     S
V93     V94    9.999   .     S
V93     Er95    10.0   .     S
V94     Er96    10.0   .     S
V94     Er91    10.0   1_655     S
Er95     Er91    10.0   1_655     S
Er95     Er96    10.0   .     S
Er96     Er91    10.0   1_655     S
