data_mzz
_audit_creation_date              2020-02-02
_audit_creation_method            'Pymatgen'
_symmetry_space_group_name_H-M    'P1'
_symmetry_Int_Tables_number       1
loop_
_symmetry_equiv_pos_as_xyz
  x,y,z
_cell_length_a                    57.7505
_cell_length_b                    57.7505
_cell_length_c                    14.8991
_cell_angle_alpha                 90.0
_cell_angle_beta                 90.0
_cell_angle_gamma                 120.0
loop_
_atom_site_label
_atom_site_type_symbol
_atom_site_fract_x
_atom_site_fract_y
_atom_site_fract_z
Ce1     Ce     0.6667   0.8326   0.25
V2     V     0.7331   0.966   0.75
Ce3     Ce     0.1674   0.834   0.25
V4     V     0.034   0.7671   0.75
Ti5     Ti     0.5333   0.7663   0.75
Er6     Er     0.3333   0.6667   0.75
Ti7     Ti     0.2337   0.767   0.75
Ce8     Ce     0.1659   0.3333   0.25
V9     V     0.2329   0.2669   0.75
Ti10     Ti     0.233   0.4667   0.75
Ce11     Ce     0.834   0.6667   0.75
V12     V     0.7671   0.7331   0.25
Ce13     Ce     0.8326   0.1659   0.75
V14     V     0.966   0.2329   0.25
Ti15     Ti     0.7663   0.233   0.25
Er16     Er     0.6667   0.3333   0.25
Ti17     Ti     0.767   0.5333   0.25
Ce18     Ce     0.3333   0.1674   0.75
V19     V     0.2669   0.034   0.25
Ti20     Ti     0.4667   0.2337   0.25
loop_
_geom_bond_atom_site_label_1
_geom_bond_atom_site_label_2
_geom_bond_distance
_geom_bond_site_symmetry_2
_ccdc_geom_bond_type
Ce1     V12    10.0   .     S
Ce1     V2    10.0   .     S
Ce1     V2    10.0   1_554     S
Ce1     Ti5    10.0   .     S
Ce1     Ti5    10.0   1_554     S
V2     Ce1    10.0   1_556     S
V2     Ce13    10.0   1_565     S
Ce3     V19    10.0   1_565     S
Ce3     V4    10.0   .     S
Ce3     V4    10.0   1_554     S
Ce3     Ti7    10.0   .     S
Ce3     Ti7    10.0   1_554     S
V4     Ce3    10.0   1_556     S
V4     Ce11    10.0   1_455     S
Ti5     Er6    10.0   .     S
Ti5     Ce1    10.0   1_556     S
Er6     Ti7    10.0   .     S
Er6     Ti10    10.0   .     S
Ti7     Ce3    10.0   1_556     S
Ce8     V14    10.0   1_455     S
Ce8     V9    10.0   .     S
Ce8     V9    10.0   1_554     S
Ce8     Ti10    10.0   .     S
Ce8     Ti10    10.0   1_554     S
V9     Ce8    10.0   1_556     S
V9     Ce18    10.0   .     S
Ti10     Ce8    10.0   1_556     S
Ce11     V4    10.0   1_655     S
Ce11     V12    10.0   .     S
Ce11     V12    10.0   1_556     S
Ce11     Ti17    10.0   .     S
Ce11     Ti17    10.0   1_556     S
V12     Ce11    10.0   1_554     S
Ce13     V2    10.0   1_545     S
Ce13     V14    10.0   .     S
Ce13     V14    10.0   1_556     S
Ce13     Ti15    10.0   .     S
Ce13     Ti15    10.0   1_556     S
V14     Ce8    10.0   1_655     S
V14     Ce13    10.0   1_554     S
Ti15     Er16    10.0   .     S
Ti15     Ce13    10.0   1_554     S
Er16     Ti17    10.0   .     S
Er16     Ti20    10.0   .     S
Ti17     Ce11    10.0   1_554     S
Ce18     V19    10.0   .     S
Ce18     V19    10.0   1_556     S
Ce18     Ti20    10.0   .     S
Ce18     Ti20    10.0   1_556     S
V19     Ce3    10.0   1_545     S
V19     Ce18    10.0   1_554     S
Ti20     Ce18    10.0   1_554     S
