data_nbd
_audit_creation_date              2020-02-02
_audit_creation_method            'Pymatgen'
_symmetry_space_group_name_H-M    'P1'
_symmetry_Int_Tables_number       1
loop_
_symmetry_equiv_pos_as_xyz
  x,y,z
_cell_length_a                    44.5239
_cell_length_b                    44.5239
_cell_length_c                    209.9323
_cell_angle_alpha                 90.0
_cell_angle_beta                 90.0
_cell_angle_gamma                 120.0
loop_
_atom_site_label
_atom_site_type_symbol
_atom_site_fract_x
_atom_site_fract_y
_atom_site_fract_z
C1     C     0.0   0.0   0.1
C2     C     0.6667   0.3333   0.2334
Er3     Er     0.2041   0.4082   0.0842
Er4     Er     0.5918   0.7959   0.0842
Er5     Er     0.2041   0.7959   0.0842
He6     He     0.5397   0.4603   0.0451
He7     He     0.5397   0.0794   0.0451
H8     H     0.6667   0.3333   0.0547
He9     He     0.9206   0.4603   0.0451
B10     B     0.0   0.0   0.0523
Li11     Li     0.3328   0.0541   0.0216
Li12     Li     0.3328   0.2787   0.0216
Be13     Be     0.1283   0.8717   0.0455
Be14     Be     0.1283   0.2567   0.0455
Li15     Li     0.7213   0.0541   0.0216
Li16     Li     0.9459   0.2787   0.0216
Be17     Be     0.7433   0.8717   0.0455
Li18     Li     0.7213   0.6672   0.0216
Li19     Li     0.9459   0.6672   0.0216
Er20     Er     0.4626   0.9251   0.2492
Er21     Er     0.0749   0.5374   0.2492
Er22     Er     0.4626   0.5374   0.2492
He23     He     0.127   0.873   0.2882
H24     H     0.0   0.0   0.2786
He25     He     0.127   0.254   0.2882
He26     He     0.746   0.873   0.2882
B27     B     0.6667   0.3333   0.281
Be28     Be     0.5383   0.0767   0.2878
Li29     Li     0.3339   0.2792   0.3117
Li30     Li     0.3339   0.0547   0.3117
Li31     Li     0.7208   0.0547   0.3117
Li32     Li     0.9453   0.2792   0.3117
Be33     Be     0.5383   0.4617   0.2878
Be34     Be     0.9233   0.4617   0.2878
Li35     Li     0.7208   0.6661   0.3117
Li36     Li     0.9453   0.6661   0.3117
V37     V     0.073   0.5365   0.0836
V38     V     0.4635   0.927   0.0836
V39     V     0.4635   0.5365   0.0836
Ti40     Ti     0.5465   0.4535   0.1202
Ti41     Ti     0.907   0.4535   0.1202
N42     N     0.6667   0.3333   0.1024
Ti43     Ti     0.5465   0.093   0.1202
S44     S     0.5487   0.0975   0.2136
Ce45     Ce     0.3322   0.0538   0.1428
Ce46     Ce     0.3345   0.055   0.1905
Ce47     Ce     0.3345   0.2795   0.1905
Ce48     Ce     0.3322   0.2784   0.1428
S49     S     0.1179   0.2358   0.1198
Ce50     Ce     0.945   0.2795   0.1905
Ce51     Ce     0.9462   0.2784   0.1428
Ce52     Ce     0.7205   0.055   0.1905
Ce53     Ce     0.7216   0.0538   0.1428
S54     S     0.5487   0.4513   0.2136
S55     S     0.1179   0.8821   0.1198
S56     S     0.7642   0.8821   0.1198
S57     S     0.9025   0.4513   0.2136
Ce58     Ce     0.7205   0.6655   0.1905
Ce59     Ce     0.7216   0.6678   0.1428
Ce60     Ce     0.9462   0.6678   0.1428
Ce61     Ce     0.945   0.6655   0.1905
V62     V     0.2032   0.7968   0.2497
V63     V     0.5936   0.7968   0.2497
V64     V     0.2032   0.4064   0.2497
Ti65     Ti     0.1202   0.2404   0.2131
Ti66     Ti     0.1202   0.8798   0.2131
N67     N     0.0   0.0   0.231
Ti68     Ti     0.7596   0.8798   0.2131
C69     C     0.0   0.0   0.9
C70     C     0.3333   0.6667   0.7666
Er71     Er     0.7959   0.5918   0.9158
Er72     Er     0.4082   0.2041   0.9158
Er73     Er     0.7959   0.2041   0.9158
H74     H     0.3333   0.6667   0.9453
He75     He     0.4603   0.5397   0.9549
He76     He     0.0794   0.5397   0.9549
He77     He     0.4603   0.9206   0.9549
B78     B     0.0   0.0   0.9477
Be79     Be     0.8717   0.1283   0.9545
Be80     Be     0.8717   0.7433   0.9545
Li81     Li     0.6672   0.7213   0.9784
Li82     Li     0.6672   0.9459   0.9784
Li83     Li     0.2787   0.9459   0.9784
Li84     Li     0.0541   0.7213   0.9784
Be85     Be     0.2567   0.1283   0.9545
Li86     Li     0.0541   0.3328   0.9784
Li87     Li     0.2787   0.3328   0.9784
Er88     Er     0.9251   0.4626   0.7508
Er89     Er     0.5374   0.4626   0.7508
Er90     Er     0.5374   0.0749   0.7508
He91     He     0.873   0.746   0.7118
He92     He     0.254   0.127   0.7118
He93     He     0.873   0.127   0.7118
H94     H     0.0   0.0   0.7214
B95     B     0.3333   0.6667   0.719
Li96     Li     0.2792   0.9453   0.6883
Li97     Li     0.0547   0.7208   0.6883
Be98     Be     0.4617   0.9233   0.7122
Li99     Li     0.6661   0.9453   0.6883
Li100     Li     0.6661   0.7208   0.6883
Be101     Be     0.4617   0.5383   0.7122
Be102     Be     0.0767   0.5383   0.7122
Li103     Li     0.2792   0.3339   0.6883
Li104     Li     0.0547   0.3339   0.6883
V105     V     0.927   0.4635   0.9164
V106     V     0.5365   0.073   0.9164
V107     V     0.5365   0.4635   0.9164
Ti108     Ti     0.4535   0.5465   0.8798
Ti109     Ti     0.4535   0.907   0.8798
N110     N     0.3333   0.6667   0.8976
Ti111     Ti     0.093   0.5465   0.8798
S112     S     0.8821   0.1179   0.8802
S113     S     0.4513   0.5487   0.7864
Ce114     Ce     0.6678   0.9462   0.8572
Ce115     Ce     0.6655   0.945   0.8095
Ce116     Ce     0.6655   0.7205   0.8095
Ce117     Ce     0.6678   0.7216   0.8572
S118     S     0.8821   0.7642   0.8802
S119     S     0.2358   0.1179   0.8802
S120     S     0.4513   0.9025   0.7864
S121     S     0.0975   0.5487   0.7864
Ce122     Ce     0.2795   0.945   0.8095
Ce123     Ce     0.2784   0.9462   0.8572
Ce124     Ce     0.055   0.7205   0.8095
Ce125     Ce     0.0538   0.7216   0.8572
Ce126     Ce     0.0538   0.3322   0.8572
Ce127     Ce     0.055   0.3345   0.8095
Ce128     Ce     0.2795   0.3345   0.8095
Ce129     Ce     0.2784   0.3322   0.8572
V130     V     0.4064   0.2032   0.7503
V131     V     0.7968   0.5936   0.7503
V132     V     0.7968   0.2032   0.7503
Ti133     Ti     0.8798   0.7596   0.7869
Ti134     Ti     0.8798   0.1202   0.7869
N135     N     0.0   0.0   0.769
Ti136     Ti     0.2404   0.1202   0.7869
C137     C     0.3333   0.6667   0.5667
C138     C     0.6667   0.3333   0.4333
Er139     Er     0.7415   0.8708   0.5825
Er140     Er     0.1292   0.2585   0.5825
Er141     Er     0.1292   0.8708   0.5825
He142     He     0.7936   0.5873   0.6216
He143     He     0.7936   0.2064   0.6216
H144     H     0.6667   0.3333   0.6119
He145     He     0.4127   0.2064   0.6216
B146     B     0.3333   0.6667   0.6143
Li147     Li     0.3874   0.9994   0.645
Li148     Li     0.612   0.9994   0.645
Be149     Be     0.59   0.795   0.6211
Li150     Li     0.3874   0.388   0.645
Li151     Li     0.612   0.6126   0.645
Be152     Be     0.205   0.41   0.6211
Be153     Be     0.205   0.795   0.6211
Li154     Li     0.0006   0.388   0.645
Li155     Li     0.0006   0.6126   0.645
Er156     Er     0.8708   0.7415   0.4175
Er157     Er     0.2585   0.1292   0.4175
Er158     Er     0.8708   0.1292   0.4175
He159     He     0.5873   0.7936   0.3784
He160     He     0.2064   0.7936   0.3784
H161     H     0.3333   0.6667   0.3881
He162     He     0.2064   0.4127   0.3784
B163     B     0.6667   0.3333   0.3857
Li164     Li     0.9994   0.3874   0.355
Li165     Li     0.9994   0.612   0.355
Be166     Be     0.795   0.59   0.3789
Be167     Be     0.41   0.205   0.3789
Li168     Li     0.388   0.3874   0.355
Li169     Li     0.6126   0.612   0.355
Be170     Be     0.795   0.205   0.3789
Li171     Li     0.6126   0.0006   0.355
Li172     Li     0.388   0.0006   0.355
V173     V     0.8699   0.7397   0.583
V174     V     0.2603   0.1301   0.583
V175     V     0.8699   0.1301   0.583
Ti176     Ti     0.7869   0.5737   0.5464
Ti177     Ti     0.7869   0.2131   0.5464
N178     N     0.6667   0.3333   0.5643
Ti179     Ti     0.4263   0.2131   0.5464
S180     S     0.2154   0.7846   0.5469
S181     S     0.5692   0.7846   0.5469
S182     S     0.2154   0.4308   0.5469
S183     S     0.7846   0.5692   0.4531
S184     S     0.7846   0.2154   0.4531
Ce185     Ce     0.9988   0.6117   0.4762
Ce186     Ce     0.0012   0.6129   0.5238
Ce187     Ce     0.0012   0.3883   0.5238
Ce188     Ce     0.9988   0.3871   0.4762
Ce189     Ce     0.6117   0.9988   0.5238
Ce190     Ce     0.6129   0.0012   0.4762
Ce191     Ce     0.3883   0.0012   0.4762
Ce192     Ce     0.3871   0.9988   0.5238
S193     S     0.4308   0.2154   0.4531
Ce194     Ce     0.6129   0.6117   0.4762
Ce195     Ce     0.6117   0.6129   0.5238
Ce196     Ce     0.3883   0.3871   0.4762
Ce197     Ce     0.3871   0.3883   0.5238
V198     V     0.7397   0.8699   0.417
V199     V     0.1301   0.8699   0.417
V200     V     0.1301   0.2603   0.417
Ti201     Ti     0.5737   0.7869   0.4536
Ti202     Ti     0.2131   0.7869   0.4536
N203     N     0.3333   0.6667   0.4357
Ti204     Ti     0.2131   0.4263   0.4536
loop_
_geom_bond_atom_site_label_1
_geom_bond_atom_site_label_2
_geom_bond_distance
_geom_bond_site_symmetry_2
_ccdc_geom_bond_type
C1     S55    10.0   1_545     S
C1     S49    10.0   .     S
C1     S56    10.0   1_445     S
C1     B10    9.999   .     S
C2     S44    10.0   .     S
C2     S57    10.0   .     S
C2     S54    10.0   .     S
C2     B27    9.999   .     S
Er3     S49    10.0   .     S
Er3     Be14    10.0   .     S
Er3     V39    10.002   .     S
Er3     V37    10.002   .     S
Er4     S56    10.0   .     S
Er4     Be17    10.0   .     S
Er4     V39    10.002   .     S
Er4     V38    10.002   .     S
Er5     S55    10.0   .     S
Er5     Be13    10.0   .     S
Er5     V37    10.002   .     S
Er5     V38    10.002   .     S
He6     V39    10.001   .     S
He6     H8    9.999   .     S
He6     Li12    10.0   .     S
He6     Li18    10.0   .     S
He7     H8    9.999   .     S
He7     V38    10.001   1_545     S
He7     Li11    10.0   .     S
He7     Li15    10.0   .     S
H8     He9    9.999   .     S
H8     N42    9.999   .     S
He9     V37    10.001   1_655     S
He9     Li16    10.0   .     S
He9     Li19    10.0   .     S
B10     Be13    10.0   1_545     S
B10     Be14    10.0   .     S
B10     Be17    10.0   1_445     S
Li11     Li12    9.999   .     S
Li11     Be13    10.0   1_545     S
Li11     Li83    10.001   1_544     S
Li12     Be14    10.0   .     S
Li12     Li87    10.001   1_554     S
Be13     Li11    10.0   1_565     S
Be13     B10    10.0   1_565     S
Be13     Li19    10.0   1_455     S
Be14     Li16    10.0   1_455     S
Li15     Li16    9.999   .     S
Li15     Be17    10.0   1_545     S
Li15     Li82    10.001   1_544     S
Li16     Be14    10.0   1_655     S
Li16     Li86    10.001   1_654     S
Be17     Li15    10.0   1_565     S
Be17     B10    10.0   1_665     S
Be17     Li18    10.0   .     S
Li18     Li19    9.999   .     S
Li18     Li81    10.001   1_554     S
Li19     Be13    10.0   1_655     S
Li19     Li84    10.001   1_654     S
Er20     S44    10.0   1_565     S
Er20     Be28    10.0   1_565     S
Er20     V63    10.002   .     S
Er20     V62    10.002   .     S
Er21     S57    10.0   1_455     S
Er21     Be34    10.0   1_455     S
Er21     V64    10.002   .     S
Er21     V62    10.002   .     S
Er22     S54    10.0   .     S
Er22     Be33    10.0   .     S
Er22     V64    10.002   .     S
Er22     V63    10.002   .     S
He23     V62    10.001   .     S
He23     H24    9.999   1_565     S
He23     Li30    10.0   1_565     S
He23     Li36    10.0   1_455     S
H24     He23    9.999   1_545     S
H24     He26    9.999   1_445     S
H24     He25    9.999   .     S
H24     N67    9.999   .     S
He25     V64    10.001   .     S
He25     Li29    10.0   .     S
He25     Li32    10.0   1_455     S
He26     H24    9.999   1_665     S
He26     V63    10.001   .     S
He26     Li31    10.0   1_565     S
He26     Li35    10.0   .     S
B27     Be28    10.0   .     S
B27     Be33    10.0   .     S
B27     Be34    10.0   .     S
Be28     Er20    10.0   1_545     S
Be28     Li30    10.0   .     S
Be28     Li31    10.0   .     S
Li29     Be33    10.0   .     S
Li29     Li30    9.999   .     S
Li29     Li168    10.001   .     S
Li30     He23    10.0   1_545     S
Li30     Li172    10.001   .     S
Li31     Li32    9.999   .     S
Li31     He26    10.0   1_545     S
Li31     Li171    10.001   .     S
Li32     Be34    10.0   .     S
Li32     He25    10.0   1_655     S
Li32     Li164    10.001   .     S
Be33     Li35    10.0   .     S
Be34     Er21    10.0   1_655     S
Be34     Li36    10.0   .     S
Li35     Li36    9.999   .     S
Li35     Li169    10.001   .     S
Li36     He23    10.0   1_655     S
Li36     Li165    10.001   .     S
V37     He9    10.001   1_455     S
V37     Ti41    10.0   1_455     S
V38     He7    10.001   1_565     S
V38     Ti43    10.0   1_565     S
V39     Ti40    10.0   .     S
Ti40     N42    9.999   .     S
Ti40     Ce48    10.0   .     S
Ti40     Ce59    10.0   .     S
Ti41     V37    10.0   1_655     S
Ti41     N42    9.999   .     S
Ti41     Ce51    10.0   .     S
Ti41     Ce60    10.0   .     S
N42     Ti43    9.999   .     S
Ti43     V38    10.0   1_545     S
Ti43     Ce45    10.0   .     S
Ti43     Ce53    10.0   .     S
S44     Er20    10.0   1_545     S
S44     Ce52    9.999   .     S
S44     Ce46    9.999   .     S
Ce45     Ce46    10.0   .     S
Ce45     Ce48    9.999   .     S
Ce45     S55    9.999   1_545     S
Ce46     Ce47    9.999   .     S
Ce46     Ti66    10.0   1_545     S
Ce47     Ce48    10.0   .     S
Ce47     Ti65    10.0   .     S
Ce47     S54    9.999   .     S
Ce48     S49    10.0   .     S
S49     Ce51    9.999   1_455     S
Ce50     Ce51    10.0   .     S
Ce50     Ce52    9.999   .     S
Ce50     Ti65    10.0   1_655     S
Ce50     S57    9.999   .     S
Ce51     S49    9.999   1_655     S
Ce51     Ce53    9.999   .     S
Ce52     Ce53    10.0   .     S
Ce52     Ti68    10.0   1_545     S
Ce53     S56    10.0   1_545     S
S54     Ce58    9.999   .     S
S55     C1    10.0   1_565     S
S55     Ce45    9.999   1_565     S
S55     Ce60    9.999   1_455     S
S56     C1    10.0   1_665     S
S56     Ce59    9.999   .     S
S56     Ce53    10.0   1_565     S
S57     Er21    10.0   1_655     S
S57     Ce61    9.999   .     S
Ce58     Ce59    10.0   .     S
Ce58     Ce61    9.999   .     S
Ce58     Ti68    10.0   .     S
Ce59     Ce60    9.999   .     S
Ce60     S55    9.999   1_655     S
Ce60     Ce61    10.0   .     S
Ce61     Ti66    10.0   1_655     S
V62     Ti66    10.0   .     S
V63     Ti68    10.0   .     S
V64     Ti65    10.0   .     S
Ti65     Ce50    10.0   1_455     S
Ti65     N67    9.999   .     S
Ti66     Ce46    10.0   1_565     S
Ti66     Ce61    10.0   1_455     S
Ti66     N67    9.999   1_565     S
N67     Ti66    9.999   1_545     S
N67     Ti68    9.999   1_445     S
Ti68     Ce52    10.0   1_565     S
Ti68     N67    9.999   1_665     S
C69     S112    10.0   1_455     S
C69     S119    10.0   .     S
C69     S118    10.0   1_445     S
C69     B78    9.999   .     S
C70     S121    10.0   .     S
C70     S120    10.0   .     S
C70     S113    10.0   .     S
C70     B95    9.999   .     S
Er71     S118    10.0   .     S
Er71     Be80    10.0   .     S
Er71     V107    10.002   .     S
Er71     V105    10.002   .     S
Er72     S119    10.0   .     S
Er72     Be85    10.0   .     S
Er72     V107    10.002   .     S
Er72     V106    10.002   .     S
Er73     S112    10.0   .     S
Er73     Be79    10.0   .     S
Er73     V105    10.002   .     S
Er73     V106    10.002   .     S
H74     He76    9.999   .     S
H74     He77    9.999   .     S
H74     He75    9.999   .     S
H74     N110    9.999   .     S
He75     V107    10.001   .     S
He75     Li81    10.0   .     S
He75     Li87    10.0   .     S
He76     V105    10.001   1_455     S
He76     Li84    10.0   .     S
He76     Li86    10.0   .     S
He77     V106    10.001   1_565     S
He77     Li82    10.0   .     S
He77     Li83    10.0   .     S
B78     Be79    10.0   1_455     S
B78     Be80    10.0   1_445     S
B78     Be85    10.0   .     S
Be79     B78    10.0   1_655     S
Be79     Li82    10.0   1_545     S
Be79     Li86    10.0   1_655     S
Be80     B78    10.0   1_665     S
Be80     Li81    10.0   .     S
Be80     Li84    10.0   1_655     S
Li81     Li82    9.999   .     S
Li81     Li18    10.001   1_556     S
Li82     Be79    10.0   1_565     S
Li82     Li15    10.001   1_566     S
Li83     Li84    9.999   .     S
Li83     Be85    10.0   1_565     S
Li83     Li11    10.001   1_566     S
Li84     Be80    10.0   1_455     S
Li84     Li19    10.001   1_456     S
Be85     Li83    10.0   1_545     S
Be85     Li87    10.0   .     S
Li86     Li87    9.999   .     S
Li86     Be79    10.0   1_455     S
Li86     Li16    10.001   1_456     S
Li87     Li12    10.001   1_556     S
Er88     S121    10.0   1_655     S
Er88     Be102    10.0   1_655     S
Er88     V131    10.002   .     S
Er88     V132    10.002   .     S
Er89     S113    10.0   .     S
Er89     Be101    10.0   .     S
Er89     V130    10.002   .     S
Er89     V131    10.002   .     S
Er90     S120    10.0   1_545     S
Er90     Be98    10.0   1_545     S
Er90     V130    10.002   .     S
Er90     V132    10.002   .     S
He91     H94    9.999   1_665     S
He91     V131    10.001   .     S
He91     Li97    10.0   1_655     S
He91     Li100    10.0   .     S
He92     H94    9.999   .     S
He92     V130    10.001   .     S
He92     Li96    10.0   1_545     S
He92     Li103    10.0   .     S
He93     V132    10.001   .     S
He93     H94    9.999   1_655     S
He93     Li99    10.0   1_545     S
He93     Li104    10.0   1_655     S
H94     He91    9.999   1_445     S
H94     He93    9.999   1_455     S
H94     N135    9.999   .     S
B95     Be98    10.0   .     S
B95     Be101    10.0   .     S
B95     Be102    10.0   .     S
Li96     Li97    9.999   .     S
Li96     Be98    10.0   .     S
Li96     He92    10.0   1_565     S
Li96     Li147    10.001   .     S
Li97     Be102    10.0   .     S
Li97     He91    10.0   1_455     S
Li97     Li155    10.001   .     S
Be98     Er90    10.0   1_565     S
Be98     Li99    10.0   .     S
Li99     Li100    9.999   .     S
Li99     He93    10.0   1_565     S
Li99     Li148    10.001   .     S
Li100     Be101    10.0   .     S
Li100     Li151    10.001   .     S
Be101     Li103    10.0   .     S
Be102     Er88    10.0   1_455     S
Be102     Li104    10.0   .     S
Li103     Li104    9.999   .     S
Li103     Li150    10.001   .     S
Li104     He93    10.0   1_455     S
Li104     Li154    10.001   .     S
V105     He76    10.001   1_655     S
V105     Ti111    10.0   1_655     S
V106     He77    10.001   1_545     S
V106     Ti109    10.0   1_545     S
V107     Ti108    10.0   .     S
Ti108     N110    9.999   .     S
Ti108     Ce117    10.0   .     S
Ti108     Ce129    10.0   .     S
Ti109     V106    10.0   1_565     S
Ti109     N110    9.999   .     S
Ti109     Ce114    10.0   .     S
Ti109     Ce123    10.0   .     S
N110     Ti111    9.999   .     S
Ti111     V105    10.0   1_455     S
Ti111     Ce125    10.0   .     S
Ti111     Ce126    10.0   .     S
S112     C69    10.0   1_655     S
S112     Ce114    9.999   1_545     S
S112     Ce126    9.999   1_655     S
S113     Ce116    9.999   .     S
S113     Ce128    9.999   .     S
Ce114     S112    9.999   1_565     S
Ce114     Ce115    10.0   .     S
Ce114     Ce117    9.999   .     S
Ce115     Ce116    9.999   .     S
Ce115     Ti134    10.0   1_565     S
Ce115     S120    9.999   .     S
Ce116     Ce117    10.0   .     S
Ce116     Ti133    10.0   .     S
Ce117     S118    9.999   .     S
S118     C69    10.0   1_665     S
S118     Ce125    10.0   1_655     S
S119     Ce123    9.999   1_545     S
S119     Ce129    10.0   .     S
S120     Er90    10.0   1_565     S
S120     Ce122    9.999   .     S
S121     Er88    10.0   1_455     S
S121     Ce127    9.999   .     S
S121     Ce124    9.999   .     S
Ce122     Ce123    10.0   .     S
Ce122     Ce124    9.999   .     S
Ce122     Ti136    10.0   1_565     S
Ce123     S119    9.999   1_565     S
Ce123     Ce125    9.999   .     S
Ce124     Ce125    10.0   .     S
Ce124     Ti133    10.0   1_455     S
Ce125     S118    10.0   1_455     S
Ce126     S112    9.999   1_455     S
Ce126     Ce127    10.0   .     S
Ce126     Ce129    9.999   .     S
Ce127     Ce128    9.999   .     S
Ce127     Ti134    10.0   1_455     S
Ce128     Ce129    10.0   .     S
Ce128     Ti136    10.0   .     S
V130     Ti136    10.0   .     S
V131     Ti133    10.0   .     S
V132     Ti134    10.0   .     S
Ti133     Ce124    10.0   1_655     S
Ti133     N135    9.999   1_665     S
Ti134     Ce115    10.0   1_545     S
Ti134     Ce127    10.0   1_655     S
Ti134     N135    9.999   1_655     S
N135     Ti133    9.999   1_445     S
N135     Ti134    9.999   1_455     S
N135     Ti136    9.999   .     S
Ti136     Ce122    10.0   1_545     S
C137     S180    10.0   .     S
C137     S182    10.0   .     S
C137     S181    10.0   .     S
C137     B146    9.999   .     S
C138     S184    10.0   .     S
C138     S193    10.0   .     S
C138     S183    10.0   .     S
C138     B163    9.999   .     S
Er139     S181    10.0   .     S
Er139     Be149    10.0   .     S
Er139     V175    10.002   1_565     S
Er139     V173    10.002   .     S
Er140     S182    10.0   .     S
Er140     Be152    10.0   .     S
Er140     V175    10.002   1_455     S
Er140     V174    10.002   .     S
Er141     S180    10.0   .     S
Er141     Be153    10.0   .     S
Er141     V173    10.002   1_455     S
Er141     V174    10.002   1_565     S
He142     V173    10.001   .     S
He142     H144    9.999   .     S
He142     Li151    10.0   .     S
He142     Li155    10.0   1_655     S
He143     V175    10.001   .     S
He143     H144    9.999   .     S
He143     Li148    10.0   1_545     S
He143     Li154    10.0   1_655     S
H144     He145    9.999   .     S
H144     N178    9.999   .     S
He145     V174    10.001   .     S
He145     Li147    10.0   1_545     S
He145     Li150    10.0   .     S
B146     Be149    10.0   .     S
B146     Be152    10.0   .     S
B146     Be153    10.0   .     S
Li147     Li148    9.999   .     S
Li147     Be153    10.0   .     S
Li147     He145    10.0   1_565     S
Li148     Be149    10.0   .     S
Li148     He143    10.0   1_565     S
Be149     Li151    10.0   .     S
Li150     Li151    9.999   .     S
Li150     Be152    10.0   .     S
Be152     Li154    10.0   .     S
Be153     Li155    10.0   .     S
Li154     Li155    9.999   .     S
Li154     He143    10.0   1_455     S
Li155     He142    10.0   1_455     S
Er156     S183    10.0   .     S
Er156     Be166    10.0   .     S
Er156     V199    10.002   1_655     S
Er156     V198    10.002   .     S
Er157     S193    10.0   .     S
Er157     Be167    10.0   .     S
Er157     V199    10.002   1_545     S
Er157     V200    10.002   .     S
Er158     S184    10.0   .     S
Er158     Be170    10.0   .     S
Er158     V198    10.002   1_545     S
Er158     V200    10.002   1_655     S
He159     V198    10.001   .     S
He159     H161    9.999   .     S
He159     Li169    10.0   .     S
He159     Li171    10.0   1_565     S
He160     V199    10.001   .     S
He160     H161    9.999   .     S
He160     Li165    10.0   1_455     S
He160     Li172    10.0   1_565     S
H161     He162    9.999   .     S
H161     N203    9.999   .     S
He162     V200    10.001   .     S
He162     Li164    10.0   1_455     S
He162     Li168    10.0   .     S
B163     Be166    10.0   .     S
B163     Be167    10.0   .     S
B163     Be170    10.0   .     S
Li164     Li165    9.999   .     S
Li164     Be170    10.0   .     S
Li164     He162    10.0   1_655     S
Li165     Be166    10.0   .     S
Li165     He160    10.0   1_655     S
Be166     Li169    10.0   .     S
Be167     Li168    10.0   .     S
Be167     Li172    10.0   .     S
Li168     Li169    9.999   .     S
Be170     Li171    10.0   .     S
Li171     Li172    9.999   .     S
Li171     He159    10.0   1_545     S
Li172     He160    10.0   1_545     S
V173     Ti176    10.0   .     S
V173     Er141    10.002   1_655     S
V174     Ti179    10.0   .     S
V174     Er141    10.002   1_545     S
V175     Ti177    10.0   .     S
V175     Er140    10.002   1_655     S
V175     Er139    10.002   1_545     S
Ti176     N178    9.999   .     S
Ti176     Ce186    10.0   1_655     S
Ti176     Ce195    10.0   .     S
Ti177     N178    9.999   .     S
Ti177     Ce187    10.0   1_655     S
Ti177     Ce189    10.0   1_545     S
N178     Ti179    9.999   .     S
Ti179     Ce192    10.0   1_545     S
Ti179     Ce197    10.0   .     S
S180     Ce192    9.999   .     S
S180     Ce186    9.999   .     S
S181     Ce195    9.999   .     S
S181     Ce189    10.0   .     S
S182     Ce197    9.999   .     S
S182     Ce187    9.999   .     S
S183     Ce194    9.999   .     S
S183     Ce185    10.0   .     S
S184     Ce190    9.999   .     S
S184     Ce188    9.999   .     S
Ce185     Ce186    10.0   1_655     S
Ce185     Ce188    9.999   .     S
Ce185     Ti202    10.0   1_655     S
Ce186     Ce185    10.0   1_455     S
Ce186     Ce187    9.999   .     S
Ce186     Ti176    10.0   1_455     S
Ce187     Ce188    10.0   1_455     S
Ce187     Ti177    10.0   1_455     S
Ce188     Ce187    10.0   1_655     S
Ce188     Ti204    10.0   1_655     S
Ce189     Ce190    10.0   1_565     S
Ce189     Ce192    9.999   .     S
Ce189     Ti177    10.0   1_565     S
Ce190     Ce189    10.0   1_545     S
Ce190     Ce191    9.999   .     S
Ce190     Ti201    10.0   1_545     S
Ce191     Ce192    10.0   1_545     S
Ce191     Ti202    10.0   1_545     S
Ce191     S193    9.999   .     S
Ce192     Ce191    10.0   1_565     S
Ce192     Ti179    10.0   1_565     S
S193     Ce196    9.999   .     S
Ce194     Ce195    10.0   .     S
Ce194     Ce196    9.999   .     S
Ce194     Ti201    10.0   .     S
Ce195     Ce197    9.999   .     S
Ce196     Ce197    10.0   .     S
Ce196     Ti204    10.0   .     S
V198     Ti201    10.0   .     S
V198     Er158    10.002   1_565     S
V199     Ti202    10.0   .     S
V199     Er157    10.002   1_565     S
V199     Er156    10.002   1_455     S
V200     Ti204    10.0   .     S
V200     Er158    10.002   1_455     S
Ti201     Ce190    10.0   1_565     S
Ti201     N203    9.999   .     S
Ti202     Ce185    10.0   1_455     S
Ti202     Ce191    10.0   1_565     S
Ti202     N203    9.999   .     S
N203     Ti204    9.999   .     S
Ti204     Ce188    10.0   1_455     S
