data_nboxd
_audit_creation_date              2020-02-02
_audit_creation_method            'Pymatgen'
_symmetry_space_group_name_H-M    'P1'
_symmetry_Int_Tables_number       1
loop_
_symmetry_equiv_pos_as_xyz
  x,y,z
_cell_length_a                    21.1325
_cell_length_b                    21.1325
_cell_length_c                    21.1325
_cell_angle_alpha                 90.0
_cell_angle_beta                 90.0
_cell_angle_gamma                 90.0
loop_
_atom_site_label
_atom_site_type_symbol
_atom_site_fract_x
_atom_site_fract_y
_atom_site_fract_z
V1     V     0.5   0.5   0.5
V2     V     0.0   0.0   0.0
Er3     Er     0.75   0.25   0.25
Er4     Er     0.25   0.75   0.25
Er5     Er     0.25   0.25   0.75
Er6     Er     0.25   0.25   0.25
Er7     Er     0.75   0.75   0.25
Er8     Er     0.25   0.75   0.75
Er9     Er     0.75   0.25   0.75
Er10     Er     0.75   0.75   0.75
loop_
_geom_bond_atom_site_label_1
_geom_bond_atom_site_label_2
_geom_bond_distance
_geom_bond_site_symmetry_2
_ccdc_geom_bond_type
V1     Er10    9.151   .     S
V1     Er8    9.151   .     S
V1     Er9    9.151   .     S
V1     Er7    9.151   .     S
V1     Er5    9.151   .     S
V1     Er3    9.151   .     S
V1     Er4    9.151   .     S
V1     Er6    9.151   .     S
V2     Er7    9.151   1_445     S
V2     Er8    9.151   1_544     S
V2     Er9    9.151   1_454     S
V2     Er10    9.151   1_444     S
V2     Er3    9.151   1_455     S
V2     Er4    9.151   1_545     S
V2     Er5    9.151   1_554     S
V2     Er6    9.151   .     S
Er3     Er9    10.566   .     S
Er3     Er6    10.566   .     S
Er3     Er9    10.566   1_554     S
Er3     Er6    10.566   1_655     S
Er3     Er7    10.566   1_545     S
Er3     Er7    10.566   .     S
Er3     V2    9.151   1_655     S
Er4     Er8    10.566   .     S
Er4     Er6    10.566   .     S
Er4     Er8    10.566   1_554     S
Er4     Er6    10.566   1_565     S
Er4     Er7    10.566   1_455     S
Er4     Er7    10.566   .     S
Er4     V2    9.151   1_565     S
Er5     Er6    10.566   .     S
Er5     Er8    10.566   .     S
Er5     Er9    10.566   .     S
Er5     Er8    10.566   1_545     S
Er5     Er9    10.566   1_455     S
Er5     Er6    10.566   1_556     S
Er5     V2    9.151   1_556     S
Er6     Er3    10.566   1_455     S
Er6     Er4    10.566   1_545     S
Er6     Er5    10.566   1_554     S
Er7     Er10    10.566   1_554     S
Er7     Er3    10.566   1_565     S
Er7     Er4    10.566   1_655     S
Er7     Er10    10.566   .     S
Er7     V2    9.151   1_665     S
Er8     Er4    10.566   1_556     S
Er8     Er5    10.566   1_565     S
Er8     Er10    10.566   1_455     S
Er8     Er10    10.566   .     S
Er8     V2    9.151   1_566     S
Er9     Er3    10.566   1_556     S
Er9     Er5    10.566   1_655     S
Er9     Er10    10.566   1_545     S
Er9     Er10    10.566   .     S
Er9     V2    9.151   1_656     S
Er10     Er7    10.566   1_556     S
Er10     Er8    10.566   1_655     S
Er10     Er9    10.566   1_565     S
Er10     V2    9.151   1_666     S
