data_ncba
_audit_creation_date              2020-02-02
_audit_creation_method            'Pymatgen'
_symmetry_space_group_name_H-M    'P1'
_symmetry_Int_Tables_number       1
loop_
_symmetry_equiv_pos_as_xyz
  x,y,z
_cell_length_a                    49.8578
_cell_length_b                    49.8578
_cell_length_c                    49.8578
_cell_angle_alpha                 90.0
_cell_angle_beta                 90.0
_cell_angle_gamma                 90.0
loop_
_atom_site_label
_atom_site_type_symbol
_atom_site_fract_x
_atom_site_fract_y
_atom_site_fract_z
V1     V     0.7576   0.7576   0.513
V2     V     0.7576   0.513   0.7576
V3     V     0.513   0.7576   0.7576
Er4     Er     0.6867   0.6867   0.8285
Er5     Er     0.3133   0.3133   0.8285
Ti6     Ti     0.4291   0.4291   0.7127
Ti7     Ti     0.5709   0.5709   0.7127
Er8     Er     0.8285   0.6867   0.6867
Er9     Er     0.8285   0.3133   0.3133
Ti10     Ti     0.7127   0.4291   0.4291
Ti11     Ti     0.7127   0.5709   0.5709
Er12     Er     0.6867   0.8285   0.6867
Er13     Er     0.3133   0.8285   0.3133
Ti14     Ti     0.4291   0.7127   0.4291
Ti15     Ti     0.5709   0.7127   0.5709
V16     V     0.487   0.2424   0.7576
V17     V     0.2424   0.487   0.7576
V18     V     0.2424   0.2424   0.513
Er19     Er     0.3133   0.1715   0.6867
Er20     Er     0.6867   0.1715   0.3133
Ti21     Ti     0.5709   0.2873   0.4291
Ti22     Ti     0.4291   0.2873   0.5709
V23     V     0.7576   0.2424   0.487
V24     V     0.7576   0.487   0.2424
V25     V     0.513   0.2424   0.2424
Er26     Er     0.1715   0.3133   0.6867
Er27     Er     0.1715   0.6867   0.3133
Ti28     Ti     0.2873   0.5709   0.4291
Ti29     Ti     0.2873   0.4291   0.5709
V30     V     0.2424   0.7576   0.487
V31     V     0.487   0.7576   0.2424
V32     V     0.2424   0.513   0.2424
Er33     Er     0.6867   0.3133   0.1715
Er34     Er     0.3133   0.6867   0.1715
Ti35     Ti     0.4291   0.5709   0.2873
Ti36     Ti     0.5709   0.4291   0.2873
V37     V     0.2576   0.2576   0.013
V38     V     0.2576   0.013   0.2576
V39     V     0.013   0.2576   0.2576
Ti40     Ti     0.9291   0.7873   0.0709
Ti41     Ti     0.0709   0.7873   0.9291
Er42     Er     0.8133   0.6715   0.1867
Er43     Er     0.1867   0.6715   0.8133
V44     V     0.2576   0.7424   0.987
V45     V     0.2576   0.987   0.7424
V46     V     0.013   0.7424   0.7424
Ti47     Ti     0.2127   0.0709   0.0709
Ti48     Ti     0.2127   0.9291   0.9291
Er49     Er     0.3285   0.8133   0.8133
Er50     Er     0.3285   0.1867   0.1867
Er51     Er     0.1867   0.8133   0.6715
Ti52     Ti     0.9291   0.0709   0.7873
Ti53     Ti     0.0709   0.9291   0.7873
Er54     Er     0.8133   0.1867   0.6715
V55     V     0.7424   0.987   0.2576
V56     V     0.987   0.7424   0.2576
V57     V     0.7424   0.7424   0.013
Ti58     Ti     0.0709   0.0709   0.2127
Ti59     Ti     0.9291   0.9291   0.2127
Er60     Er     0.8133   0.8133   0.3285
Er61     Er     0.1867   0.1867   0.3285
Ti62     Ti     0.7873   0.9291   0.0709
Ti63     Ti     0.7873   0.0709   0.9291
Er64     Er     0.6715   0.8133   0.1867
Er65     Er     0.6715   0.1867   0.8133
V66     V     0.7424   0.2576   0.987
V67     V     0.987   0.2576   0.7424
V68     V     0.7424   0.013   0.7424
Ti69     Ti     0.0709   0.2127   0.0709
Ti70     Ti     0.9291   0.2127   0.9291
Er71     Er     0.8133   0.3285   0.8133
Er72     Er     0.1867   0.3285   0.1867
loop_
_geom_bond_atom_site_label_1
_geom_bond_atom_site_label_2
_geom_bond_distance
_geom_bond_site_symmetry_2
_ccdc_geom_bond_type
V1     Ti15    10.0   .     S
V1     Ti11    10.0   .     S
V1     Er12    10.0   .     S
V1     Er8    10.0   .     S
V1     Er60    10.0   .     S
V2     Ti7    10.0   .     S
V2     Ti11    10.0   .     S
V2     Er4    10.0   .     S
V2     Er8    10.0   .     S
V2     Er71    10.0   .     S
V3     Ti7    10.0   .     S
V3     Ti15    10.0   .     S
V3     Er4    10.0   .     S
V3     Er12    10.0   .     S
V3     Er49    10.0   .     S
Er4     Er12    10.0   .     S
Er4     Er8    10.0   .     S
Er4     V57    10.0   1_556     S
Er4     Ti7    10.0   .     S
Er5     V37    10.0   1_556     S
Er5     Ti6    10.0   .     S
Er5     V16    10.0   .     S
Er5     Er26    10.0   .     S
Er5     Er19    10.0   .     S
Er5     V17    10.0   .     S
Ti6     Ti22    10.0   .     S
Ti6     Ti29    10.0   .     S
Ti6     Ti7    10.0   .     S
Ti6     V16    10.0   .     S
Ti6     V17    10.0   .     S
Ti7     Ti15    10.0   .     S
Ti7     Ti11    10.0   .     S
Er8     Er12    10.0   .     S
Er8     V46    10.0   1_655     S
Er8     Ti11    10.0   .     S
Er9     V39    10.0   1_655     S
Er9     Ti10    10.0   .     S
Er9     V23    10.0   .     S
Er9     Er33    10.0   .     S
Er9     Er20    10.0   .     S
Er9     V24    10.0   .     S
Ti10     Ti36    10.0   .     S
Ti10     Ti21    10.0   .     S
Ti10     Ti11    10.0   .     S
Ti10     V23    10.0   .     S
Ti10     V24    10.0   .     S
Ti11     Ti15    10.0   .     S
Er12     V68    10.0   1_565     S
Er12     Ti15    10.0   .     S
Er13     V38    10.0   1_565     S
Er13     Ti14    10.0   .     S
Er13     V30    10.0   .     S
Er13     Er34    10.0   .     S
Er13     Er27    10.0   .     S
Er13     V31    10.0   .     S
Ti14     Ti35    10.0   .     S
Ti14     Ti28    10.0   .     S
Ti14     Ti15    10.0   .     S
Ti14     V30    10.0   .     S
Ti14     V31    10.0   .     S
V16     Ti22    10.0   .     S
V16     Er19    10.0   .     S
V16     Er65    10.0   .     S
V17     Ti29    10.0   .     S
V17     Er26    10.0   .     S
V17     Er43    10.0   .     S
V18     Ti29    10.0   .     S
V18     Ti22    10.0   .     S
V18     Er26    10.0   .     S
V18     Er19    10.0   .     S
V18     Er61    10.0   .     S
Er19     Er26    10.0   .     S
Er19     V45    10.0   1_545     S
Er19     Ti22    10.0   .     S
Er20     V55    10.0   1_545     S
Er20     Ti21    10.0   .     S
Er20     V23    10.0   .     S
Er20     Er33    10.0   .     S
Er20     V25    10.0   .     S
Ti21     Ti36    10.0   .     S
Ti21     Ti22    10.0   .     S
Ti21     V23    10.0   .     S
Ti21     V25    10.0   .     S
Ti22     Ti29    10.0   .     S
V23     Er54    10.0   .     S
V24     Ti36    10.0   .     S
V24     Er33    10.0   .     S
V24     Er42    10.0   .     S
V25     Ti36    10.0   .     S
V25     Er33    10.0   .     S
V25     Er50    10.0   .     S
Er26     V67    10.0   1_455     S
Er26     Ti29    10.0   .     S
Er27     V56    10.0   1_455     S
Er27     Ti28    10.0   .     S
Er27     V30    10.0   .     S
Er27     Er34    10.0   .     S
Er27     V32    10.0   .     S
Ti28     Ti35    10.0   .     S
Ti28     Ti29    10.0   .     S
Ti28     V30    10.0   .     S
Ti28     V32    10.0   .     S
V30     Er51    10.0   .     S
V31     Ti35    10.0   .     S
V31     Er34    10.0   .     S
V31     Er64    10.0   .     S
V32     Ti35    10.0   .     S
V32     Er34    10.0   .     S
V32     Er72    10.0   .     S
Er33     V66    10.0   1_554     S
Er33     Ti36    10.0   .     S
Er34     V44    10.0   1_554     S
Er34     Ti35    10.0   .     S
Ti35     Ti36    10.0   .     S
V37     Er5    10.0   1_554     S
V37     Ti69    10.0   .     S
V37     Ti47    10.0   .     S
V37     Er72    10.0   .     S
V37     Er50    10.0   .     S
V38     Er13    10.0   1_545     S
V38     Ti47    10.0   .     S
V38     Ti58    10.0   .     S
V38     Er61    10.0   .     S
V38     Er50    10.0   .     S
V39     Er9    10.0   1_455     S
V39     Ti69    10.0   .     S
V39     Ti58    10.0   .     S
V39     Er61    10.0   .     S
V39     Er72    10.0   .     S
Ti40     Ti59    10.0   .     S
Ti40     Ti62    10.0   .     S
Ti40     Ti41    10.0   1_654     S
Ti40     Er42    10.0   .     S
Ti40     V56    10.0   .     S
Ti40     V57    10.0   .     S
Ti41     Ti48    10.0   .     S
Ti41     Ti53    10.0   .     S
Ti41     Ti40    10.0   1_456     S
Ti41     Er43    10.0   .     S
Ti41     V44    10.0   .     S
Ti41     V46    10.0   .     S
Er42     V57    10.0   .     S
Er42     Er60    10.0   .     S
Er42     Er64    10.0   .     S
Er42     V56    10.0   .     S
Er43     V46    10.0   .     S
Er43     Er49    10.0   .     S
Er43     Er51    10.0   .     S
Er43     V44    10.0   .     S
V44     Er34    10.0   1_556     S
V44     Ti48    10.0   .     S
V44     Er49    10.0   .     S
V45     Er19    10.0   1_565     S
V45     Ti48    10.0   .     S
V45     Ti53    10.0   .     S
V45     Er51    10.0   .     S
V45     Er49    10.0   .     S
V46     Er8    10.0   1_455     S
V46     Ti53    10.0   .     S
V46     Er51    10.0   .     S
Ti47     Ti58    10.0   .     S
Ti47     Ti69    10.0   .     S
Ti47     Ti48    10.0   1_544     S
Ti47     Er50    10.0   .     S
Ti48     Ti53    10.0   .     S
Ti48     Ti47    10.0   1_566     S
Ti48     Er49    10.0   .     S
Er49     Er51    10.0   .     S
Er50     Er61    10.0   .     S
Er50     Er72    10.0   .     S
Er51     Ti53    10.0   .     S
Ti52     Ti70    10.0   .     S
Ti52     Ti63    10.0   .     S
Ti52     Ti53    10.0   1_645     S
Ti52     Er54    10.0   .     S
Ti52     V67    10.0   .     S
Ti52     V68    10.0   .     S
Ti53     Ti52    10.0   1_465     S
Er54     V68    10.0   .     S
Er54     V67    10.0   .     S
Er54     Er71    10.0   .     S
Er54     Er65    10.0   .     S
V55     Er20    10.0   1_565     S
V55     Ti59    10.0   .     S
V55     Ti62    10.0   .     S
V55     Er60    10.0   .     S
V55     Er64    10.0   .     S
V56     Er27    10.0   1_655     S
V56     Ti59    10.0   .     S
V56     Er60    10.0   .     S
V57     Er4    10.0   1_554     S
V57     Ti62    10.0   .     S
V57     Er64    10.0   .     S
Ti58     Ti69    10.0   .     S
Ti58     Ti59    10.0   1_445     S
Ti58     Er61    10.0   .     S
Ti59     Ti62    10.0   .     S
Ti59     Ti58    10.0   1_665     S
Ti59     Er60    10.0   .     S
Er60     Er64    10.0   .     S
Er61     Er72    10.0   .     S
Ti62     Ti63    10.0   1_564     S
Ti62     Er64    10.0   .     S
Ti63     Ti70    10.0   .     S
Ti63     Ti62    10.0   1_546     S
Ti63     Er65    10.0   .     S
Ti63     V66    10.0   .     S
Ti63     V68    10.0   .     S
Er65     V68    10.0   .     S
Er65     Er71    10.0   .     S
Er65     V66    10.0   .     S
V66     Er33    10.0   1_556     S
V66     Ti70    10.0   .     S
V66     Er71    10.0   .     S
V67     Er26    10.0   1_655     S
V67     Ti70    10.0   .     S
V67     Er71    10.0   .     S
V68     Er12    10.0   1_545     S
Ti69     Ti70    10.0   1_454     S
Ti69     Er72    10.0   .     S
Ti70     Ti69    10.0   1_656     S
Ti70     Er71    10.0   .     S
