data_nck
_audit_creation_date              2020-02-02
_audit_creation_method            'Pymatgen'
_symmetry_space_group_name_H-M    'P1'
_symmetry_Int_Tables_number       1
loop_
_symmetry_equiv_pos_as_xyz
  x,y,z
_cell_length_a                    41.4276
_cell_length_b                    41.4276
_cell_length_c                    20.0002
_cell_angle_alpha                 90.0
_cell_angle_beta                 90.0
_cell_angle_gamma                 120.0
loop_
_atom_site_label
_atom_site_type_symbol
_atom_site_fract_x
_atom_site_fract_y
_atom_site_fract_z
V1     V     0.5202   0.8924   0.4583
V2     V     0.5202   0.8924   0.9583
V3     V     0.8131   0.7743   0.375
V4     V     0.8131   0.7743   0.875
V5     V     0.7743   0.9612   0.125
V6     V     0.7743   0.9612   0.625
V7     V     0.8924   0.3722   0.0417
V8     V     0.8924   0.3722   0.5417
V9     V     0.5591   0.7055   0.2083
V10     V     0.5591   0.7055   0.7083
V11     V     0.4409   0.2945   0.2917
V12     V     0.4409   0.2945   0.7917
V13     V     0.1464   0.4409   0.2083
V14     V     0.1464   0.4409   0.7083
V15     V     0.8536   0.5591   0.2917
V16     V     0.8536   0.5591   0.7917
V17     V     0.2257   0.0388   0.375
V18     V     0.2257   0.0388   0.875
V19     V     0.1076   0.6278   0.4583
V20     V     0.1076   0.6278   0.9583
V21     V     0.0388   0.8131   0.125
V22     V     0.0388   0.8131   0.625
V23     V     0.6278   0.5202   0.0417
V24     V     0.6278   0.5202   0.5417
V25     V     0.9612   0.1869   0.375
V26     V     0.9612   0.1869   0.875
V27     V     0.3722   0.4798   0.4583
V28     V     0.3722   0.4798   0.9583
V29     V     0.1869   0.2257   0.125
V30     V     0.1869   0.2257   0.625
V31     V     0.4798   0.1076   0.0417
V32     V     0.4798   0.1076   0.5417
V33     V     0.7055   0.1464   0.2917
V34     V     0.7055   0.1464   0.7917
V35     V     0.2945   0.8536   0.2083
V36     V     0.2945   0.8536   0.7083
loop_
_geom_bond_atom_site_label_1
_geom_bond_atom_site_label_2
_geom_bond_distance
_geom_bond_site_symmetry_2
_ccdc_geom_bond_type
V1     V6    10.0   .     S
V1     V33    10.0   1_565     S
V1     V32    10.0   1_565     S
V1     V36    10.0   .     S
V1     V10    10.0   .     S
V1     V9    10.0   .     S
V1     V2    10.0   1_554     S
V1     V2    10.0   .     S
V1     V35    10.0   .     S
V2     V5    10.0   1_556     S
V2     V34    10.0   1_565     S
V2     V31    10.0   1_566     S
V2     V35    10.0   1_556     S
V2     V9    10.0   1_556     S
V2     V10    10.0   .     S
V2     V1    10.0   1_556     S
V2     V36    10.0   .     S
V3     V9    10.0   .     S
V3     V15    10.0   .     S
V3     V24    10.0   .     S
V3     V21    10.0   1_655     S
V3     V5    10.0   .     S
V3     V6    10.0   .     S
V3     V4    10.0   1_554     S
V3     V4    10.0   .     S
V3     V22    10.0   1_655     S
V4     V10    10.0   .     S
V4     V16    10.0   .     S
V4     V23    10.0   1_556     S
V4     V22    10.0   1_655     S
V4     V6    10.0   .     S
V4     V5    10.0   1_556     S
V4     V3    10.0   1_556     S
V4     V21    10.0   1_656     S
V5     V2    10.0   1_554     S
V5     V9    10.0   .     S
V5     V33    10.0   1_565     S
V5     V25    10.0   1_565     S
V5     V4    10.0   1_554     S
V5     V6    10.0   .     S
V5     V6    10.0   1_554     S
V5     V26    10.0   1_564     S
V6     V10    10.0   .     S
V6     V34    10.0   1_565     S
V6     V26    10.0   1_565     S
V6     V5    10.0   1_556     S
V6     V25    10.0   1_565     S
V7     V26    10.0   1_554     S
V7     V13    10.0   1_655     S
V7     V20    10.0   1_654     S
V7     V16    10.0   1_554     S
V7     V34    10.0   1_554     S
V7     V15    10.0   .     S
V7     V8    10.0   .     S
V7     V8    10.0   1_554     S
V7     V33    10.0   .     S
V8     V25    10.0   .     S
V8     V14    10.0   1_655     S
V8     V19    10.0   1_655     S
V8     V15    10.0   .     S
V8     V33    10.0   .     S
V8     V16    10.0   .     S
V8     V7    10.0   1_556     S
V8     V34    10.0   .     S
V9     V23    10.0   .     S
V9     V2    10.0   1_554     S
V9     V28    10.0   1_554     S
V9     V27    10.0   .     S
V9     V10    10.0   .     S
V9     V10    10.0   1_554     S
V10     V24    10.0   .     S
V10     V27    10.0   .     S
V10     V28    10.0   .     S
V10     V9    10.0   1_556     S
V11     V27    10.0   .     S
V11     V29    10.0   .     S
V11     V17    10.0   .     S
V11     V24    10.0   .     S
V11     V32    10.0   .     S
V11     V31    10.0   .     S
V11     V23    10.0   .     S
V11     V12    10.0   1_554     S
V11     V12    10.0   .     S
V12     V28    10.0   .     S
V12     V30    10.0   .     S
V12     V18    10.0   .     S
V12     V23    10.0   1_556     S
V12     V31    10.0   1_556     S
V12     V32    10.0   .     S
V12     V24    10.0   .     S
V12     V11    10.0   1_556     S
V13     V7    10.0   1_455     S
V13     V25    10.0   1_455     S
V13     V29    10.0   .     S
V13     V28    10.0   1_554     S
V13     V20    10.0   1_554     S
V13     V19    10.0   .     S
V13     V14    10.0   .     S
V13     V14    10.0   1_554     S
V13     V27    10.0   .     S
V14     V8    10.0   1_455     S
V14     V26    10.0   1_455     S
V14     V30    10.0   .     S
V14     V27    10.0   .     S
V14     V19    10.0   .     S
V14     V20    10.0   .     S
V14     V13    10.0   1_556     S
V14     V28    10.0   .     S
V15     V19    10.0   1_655     S
V15     V21    10.0   1_655     S
V15     V24    10.0   .     S
V15     V16    10.0   1_554     S
V15     V16    10.0   .     S
V15     V23    10.0   .     S
V16     V20    10.0   1_655     S
V16     V22    10.0   1_655     S
V16     V7    10.0   1_556     S
V16     V23    10.0   1_556     S
V16     V15    10.0   1_556     S
V16     V24    10.0   .     S
V17     V35    10.0   1_545     S
V17     V32    10.0   .     S
V17     V21    10.0   1_545     S
V17     V29    10.0   .     S
V17     V30    10.0   .     S
V17     V18    10.0   1_554     S
V17     V18    10.0   .     S
V17     V22    10.0   1_545     S
V18     V36    10.0   1_545     S
V18     V31    10.0   1_556     S
V18     V22    10.0   1_545     S
V18     V30    10.0   .     S
V18     V29    10.0   1_556     S
V18     V17    10.0   1_556     S
V18     V21    10.0   1_546     S
V19     V8    10.0   1_455     S
V19     V15    10.0   1_455     S
V19     V22    10.0   .     S
V19     V36    10.0   .     S
V19     V35    10.0   .     S
V19     V20    10.0   1_554     S
V19     V20    10.0   .     S
V20     V7    10.0   1_456     S
V20     V16    10.0   1_455     S
V20     V21    10.0   1_556     S
V20     V35    10.0   1_556     S
V20     V13    10.0   1_556     S
V20     V36    10.0   .     S
V20     V19    10.0   1_556     S
V21     V35    10.0   .     S
V21     V20    10.0   1_554     S
V21     V15    10.0   1_455     S
V21     V17    10.0   1_565     S
V21     V3    10.0   1_455     S
V21     V18    10.0   1_564     S
V21     V22    10.0   .     S
V21     V22    10.0   1_554     S
V21     V4    10.0   1_454     S
V22     V36    10.0   .     S
V22     V16    10.0   1_455     S
V22     V18    10.0   1_565     S
V22     V4    10.0   1_455     S
V22     V17    10.0   1_565     S
V22     V21    10.0   1_556     S
V22     V3    10.0   1_455     S
V23     V28    10.0   1_554     S
V23     V4    10.0   1_554     S
V23     V12    10.0   1_554     S
V23     V16    10.0   1_554     S
V23     V24    10.0   .     S
V23     V24    10.0   1_554     S
V24     V27    10.0   .     S
V24     V23    10.0   1_556     S
V25     V33    10.0   .     S
V25     V13    10.0   1_655     S
V25     V5    10.0   1_545     S
V25     V29    10.0   1_655     S
V25     V30    10.0   1_655     S
V25     V26    10.0   1_554     S
V25     V26    10.0   .     S
V25     V6    10.0   1_545     S
V26     V34    10.0   .     S
V26     V7    10.0   1_556     S
V26     V14    10.0   1_655     S
V26     V6    10.0   1_545     S
V26     V30    10.0   1_655     S
V26     V29    10.0   1_656     S
V26     V25    10.0   1_556     S
V26     V5    10.0   1_546     S
V27     V30    10.0   .     S
V27     V28    10.0   1_554     S
V27     V28    10.0   .     S
V28     V23    10.0   1_556     S
V28     V29    10.0   1_556     S
V28     V13    10.0   1_556     S
V28     V9    10.0   1_556     S
V28     V27    10.0   1_556     S
V29     V28    10.0   1_554     S
V29     V25    10.0   1_455     S
V29     V18    10.0   1_554     S
V29     V26    10.0   1_454     S
V29     V30    10.0   .     S
V29     V30    10.0   1_554     S
V30     V26    10.0   1_455     S
V30     V25    10.0   1_455     S
V30     V29    10.0   1_556     S
V31     V33    10.0   .     S
V31     V18    10.0   1_554     S
V31     V2    10.0   1_544     S
V31     V35    10.0   1_545     S
V31     V12    10.0   1_554     S
V31     V34    10.0   1_554     S
V31     V32    10.0   .     S
V31     V32    10.0   1_554     S
V32     V34    10.0   .     S
V32     V1    10.0   1_545     S
V32     V36    10.0   1_545     S
V32     V33    10.0   .     S
V32     V31    10.0   1_556     S
V33     V34    10.0   1_554     S
V33     V34    10.0   .     S
V33     V5    10.0   1_545     S
V33     V1    10.0   1_545     S
V34     V33    10.0   1_556     S
V34     V6    10.0   1_545     S
V34     V2    10.0   1_545     S
V34     V31    10.0   1_556     S
V34     V7    10.0   1_556     S
V35     V17    10.0   1_565     S
V35     V31    10.0   1_565     S
V35     V20    10.0   1_554     S
V35     V2    10.0   1_554     S
V35     V36    10.0   .     S
V35     V36    10.0   1_554     S
V36     V18    10.0   1_565     S
V36     V32    10.0   1_565     S
V36     V35    10.0   1_556     S
