data_ncl
_audit_creation_date              2020-02-02
_audit_creation_method            'Pymatgen'
_symmetry_space_group_name_H-M    'P1'
_symmetry_Int_Tables_number       1
loop_
_symmetry_equiv_pos_as_xyz
  x,y,z
_cell_length_a                    31.7981
_cell_length_b                    31.7981
_cell_length_c                    16.3298
_cell_angle_alpha                 90.0
_cell_angle_beta                 90.0
_cell_angle_gamma                 120.0
loop_
_atom_site_label
_atom_site_type_symbol
_atom_site_fract_x
_atom_site_fract_y
_atom_site_fract_z
V1     V     0.5201   0.6777   0.4167
V2     V     0.8132   0.989   0.25
V3     V     0.4799   0.3223   0.5833
V4     V     0.1868   0.011   0.75
V5     V     0.6557   0.5092   0.0833
V6     V     0.3443   0.4908   0.9167
V7     V     0.011   0.8242   0.25
V8     V     0.3223   0.8425   0.4167
V9     V     0.4908   0.1465   0.0833
V10     V     0.5092   0.8535   0.9167
V11     V     0.6777   0.1575   0.5833
V12     V     0.989   0.1758   0.75
V13     V     0.1575   0.4799   0.4167
V14     V     0.1758   0.1868   0.25
V15     V     0.8425   0.5201   0.5833
V16     V     0.8242   0.8132   0.75
V17     V     0.8535   0.3443   0.0833
V18     V     0.1465   0.6557   0.9167
loop_
_geom_bond_atom_site_label_1
_geom_bond_atom_site_label_2
_geom_bond_distance
_geom_bond_site_symmetry_2
_ccdc_geom_bond_type
V1     V8    10.0   .     S
V1     V2    10.0   .     S
V1     V16    10.0   .     S
V1     V10    10.0   1_554     S
V1     V10    10.0   .     S
V1     V5    10.0   .     S
V1     V6    10.0   .     S
V1     V6    10.0   1_554     S
V1     V13    10.0   .     S
V2     V7    10.0   1_655     S
V2     V10    10.0   1_554     S
V2     V16    10.0   .     S
V2     V16    10.0   1_554     S
V2     V11    10.0   1_565     S
V2     V12    10.0   1_565     S
V2     V12    10.0   1_564     S
V2     V14    10.0   1_665     S
V3     V11    10.0   .     S
V3     V4    10.0   .     S
V3     V14    10.0   .     S
V3     V9    10.0   1_556     S
V3     V9    10.0   .     S
V3     V6    10.0   .     S
V3     V5    10.0   1_556     S
V3     V5    10.0   .     S
V3     V15    10.0   .     S
V4     V12    10.0   1_455     S
V4     V9    10.0   1_556     S
V4     V14    10.0   .     S
V4     V14    10.0   1_556     S
V4     V8    10.0   1_545     S
V4     V7    10.0   1_545     S
V4     V7    10.0   1_546     S
V4     V16    10.0   1_445     S
V5     V9    10.0   .     S
V5     V6    10.0   1_554     S
V5     V3    10.0   1_554     S
V5     V16    10.0   1_554     S
V5     V15    10.0   1_554     S
V5     V15    10.0   .     S
V5     V17    10.0   .     S
V6     V10    10.0   .     S
V6     V5    10.0   1_556     S
V6     V1    10.0   1_556     S
V6     V14    10.0   1_556     S
V6     V13    10.0   1_556     S
V6     V13    10.0   .     S
V6     V18    10.0   .     S
V7     V2    10.0   1_455     S
V7     V14    10.0   1_565     S
V7     V8    10.0   .     S
V7     V18    10.0   1_554     S
V7     V4    10.0   1_565     S
V7     V4    10.0   1_564     S
V7     V15    10.0   1_455     S
V7     V16    10.0   1_455     S
V7     V16    10.0   1_454     S
V8     V13    10.0   .     S
V8     V4    10.0   1_565     S
V8     V18    10.0   1_554     S
V8     V18    10.0   .     S
V8     V9    10.0   1_565     S
V8     V10    10.0   .     S
V8     V10    10.0   1_554     S
V9     V4    10.0   1_554     S
V9     V3    10.0   1_554     S
V9     V17    10.0   .     S
V9     V10    10.0   1_544     S
V9     V8    10.0   1_545     S
V9     V11    10.0   .     S
V9     V11    10.0   1_554     S
V10     V2    10.0   1_556     S
V10     V1    10.0   1_556     S
V10     V18    10.0   .     S
V10     V9    10.0   1_566     S
V10     V11    10.0   1_565     S
V10     V8    10.0   1_556     S
V11     V10    10.0   1_545     S
V11     V9    10.0   1_556     S
V11     V15    10.0   .     S
V11     V12    10.0   .     S
V11     V2    10.0   1_545     S
V11     V17    10.0   1_556     S
V11     V17    10.0   .     S
V12     V4    10.0   1_655     S
V12     V16    10.0   1_545     S
V12     V17    10.0   1_556     S
V12     V2    10.0   1_545     S
V12     V2    10.0   1_546     S
V12     V13    10.0   1_655     S
V12     V14    10.0   1_655     S
V12     V14    10.0   1_656     S
V13     V14    10.0   .     S
V13     V12    10.0   1_455     S
V13     V6    10.0   1_554     S
V13     V17    10.0   1_455     S
V13     V18    10.0   .     S
V13     V18    10.0   1_554     S
V14     V4    10.0   1_554     S
V14     V7    10.0   1_545     S
V14     V2    10.0   1_445     S
V14     V6    10.0   1_554     S
V14     V12    10.0   1_455     S
V14     V12    10.0   1_454     S
V15     V16    10.0   .     S
V15     V7    10.0   1_655     S
V15     V5    10.0   1_556     S
V15     V18    10.0   1_655     S
V15     V17    10.0   .     S
V15     V17    10.0   1_556     S
V16     V2    10.0   1_556     S
V16     V12    10.0   1_565     S
V16     V4    10.0   1_665     S
V16     V5    10.0   1_556     S
V16     V7    10.0   1_655     S
V16     V7    10.0   1_656     S
V17     V12    10.0   1_554     S
V17     V11    10.0   1_554     S
V17     V18    10.0   1_654     S
V17     V13    10.0   1_655     S
V17     V15    10.0   1_554     S
V18     V7    10.0   1_556     S
V18     V8    10.0   1_556     S
V18     V17    10.0   1_456     S
V18     V15    10.0   1_455     S
V18     V13    10.0   1_556     S
