data_ncm
_audit_creation_date              2020-02-02
_audit_creation_method            'Pymatgen'
_symmetry_space_group_name_H-M    'P1'
_symmetry_Int_Tables_number       1
loop_
_symmetry_equiv_pos_as_xyz
  x,y,z
_cell_length_a                    17.3205
_cell_length_b                    74.641
_cell_length_c                    20.0
_cell_angle_alpha                 90.0
_cell_angle_beta                 90.0
_cell_angle_gamma                 90.0
loop_
_atom_site_label
_atom_site_type_symbol
_atom_site_fract_x
_atom_site_fract_y
_atom_site_fract_z
V1     V     0.625   0.058   0.0625
V2     V     0.625   0.058   0.5625
V3     V     0.125   0.058   0.3125
V4     V     0.125   0.058   0.8125
V5     V     0.875   0.942   0.1875
V6     V     0.875   0.942   0.6875
V7     V     0.375   0.942   0.4375
V8     V     0.375   0.942   0.9375
V9     V     0.875   0.308   0.4375
V10     V     0.875   0.308   0.9375
V11     V     0.625   0.192   0.0625
V12     V     0.625   0.192   0.5625
V13     V     0.125   0.192   0.3125
V14     V     0.125   0.192   0.8125
V15     V     0.375   0.308   0.1875
V16     V     0.375   0.308   0.6875
V17     V     0.625   0.692   0.3125
V18     V     0.625   0.692   0.8125
V19     V     0.125   0.692   0.0625
V20     V     0.125   0.692   0.5625
V21     V     0.875   0.808   0.1875
V22     V     0.875   0.808   0.6875
V23     V     0.375   0.808   0.4375
V24     V     0.375   0.808   0.9375
V25     V     0.875   0.442   0.4375
V26     V     0.875   0.442   0.9375
V27     V     0.625   0.558   0.3125
V28     V     0.625   0.558   0.8125
V29     V     0.125   0.558   0.0625
V30     V     0.125   0.558   0.5625
V31     V     0.375   0.442   0.1875
V32     V     0.375   0.442   0.6875
loop_
_geom_bond_atom_site_label_1
_geom_bond_atom_site_label_2
_geom_bond_distance
_geom_bond_site_symmetry_2
_ccdc_geom_bond_type
V1     V5    10.0   1_545     S
V1     V3    10.0   1_655     S
V1     V4    10.0   1_554     S
V1     V8    10.0   1_544     S
V1     V4    10.0   1_654     S
V1     V2    10.0   .     S
V1     V2    10.0   1_554     S
V1     V3    10.0   .     S
V1     V11    10.0   .     S
V2     V6    10.0   1_545     S
V2     V4    10.0   1_655     S
V2     V3    10.0   .     S
V2     V7    10.0   1_545     S
V2     V3    10.0   1_655     S
V2     V1    10.0   1_556     S
V2     V4    10.0   .     S
V2     V12    10.0   .     S
V3     V1    10.0   1_455     S
V3     V5    10.0   1_445     S
V3     V7    10.0   1_545     S
V3     V2    10.0   1_455     S
V3     V4    10.0   1_554     S
V3     V4    10.0   .     S
V3     V13    10.0   .     S
V4     V2    10.0   1_455     S
V4     V6    10.0   1_445     S
V4     V8    10.0   1_545     S
V4     V1    10.0   1_556     S
V4     V1    10.0   1_456     S
V4     V3    10.0   1_556     S
V4     V14    10.0   .     S
V5     V1    10.0   1_565     S
V5     V3    10.0   1_665     S
V5     V8    10.0   1_554     S
V5     V7    10.0   1_655     S
V5     V7    10.0   .     S
V5     V6    10.0   .     S
V5     V6    10.0   1_554     S
V5     V8    10.0   1_654     S
V5     V21    10.0   .     S
V6     V2    10.0   1_565     S
V6     V4    10.0   1_665     S
V6     V7    10.0   .     S
V6     V8    10.0   1_655     S
V6     V8    10.0   .     S
V6     V5    10.0   1_556     S
V6     V7    10.0   1_655     S
V6     V22    10.0   .     S
V7     V3    10.0   1_565     S
V7     V2    10.0   1_565     S
V7     V5    10.0   1_455     S
V7     V6    10.0   1_455     S
V7     V8    10.0   1_554     S
V7     V8    10.0   .     S
V7     V23    10.0   .     S
V8     V4    10.0   1_565     S
V8     V1    10.0   1_566     S
V8     V5    10.0   1_556     S
V8     V6    10.0   1_455     S
V8     V5    10.0   1_456     S
V8     V7    10.0   1_556     S
V8     V24    10.0   .     S
V9     V12    10.0   .     S
V9     V16    10.0   .     S
V9     V13    10.0   1_655     S
V9     V15    10.0   1_655     S
V9     V15    10.0   .     S
V9     V10    10.0   1_554     S
V9     V10    10.0   .     S
V9     V16    10.0   1_655     S
V9     V25    10.0   .     S
V10     V11    10.0   1_556     S
V10     V15    10.0   1_556     S
V10     V14    10.0   1_655     S
V10     V16    10.0   1_655     S
V10     V16    10.0   .     S
V10     V9    10.0   1_556     S
V10     V15    10.0   1_656     S
V10     V26    10.0   .     S
V11     V10    10.0   1_554     S
V11     V14    10.0   1_654     S
V11     V15    10.0   .     S
V11     V13    10.0   .     S
V11     V13    10.0   1_655     S
V11     V12    10.0   .     S
V11     V12    10.0   1_554     S
V11     V14    10.0   1_554     S
V12     V13    10.0   1_655     S
V12     V16    10.0   .     S
V12     V14    10.0   .     S
V12     V14    10.0   1_655     S
V12     V11    10.0   1_556     S
V12     V13    10.0   .     S
V13     V12    10.0   1_455     S
V13     V9    10.0   1_455     S
V13     V15    10.0   .     S
V13     V11    10.0   1_455     S
V13     V14    10.0   1_554     S
V13     V14    10.0   .     S
V14     V11    10.0   1_456     S
V14     V10    10.0   1_455     S
V14     V16    10.0   .     S
V14     V12    10.0   1_455     S
V14     V11    10.0   1_556     S
V14     V13    10.0   1_556     S
V15     V10    10.0   1_554     S
V15     V9    10.0   1_455     S
V15     V10    10.0   1_454     S
V15     V16    10.0   .     S
V15     V16    10.0   1_554     S
V15     V31    10.0   .     S
V16     V10    10.0   1_455     S
V16     V9    10.0   1_455     S
V16     V15    10.0   1_556     S
V16     V32    10.0   .     S
V17     V21    10.0   .     S
V17     V19    10.0   1_655     S
V17     V23    10.0   .     S
V17     V20    10.0   .     S
V17     V20    10.0   1_655     S
V17     V18    10.0   1_554     S
V17     V18    10.0   .     S
V17     V19    10.0   .     S
V17     V27    10.0   .     S
V18     V22    10.0   .     S
V18     V20    10.0   1_655     S
V18     V24    10.0   .     S
V18     V19    10.0   1_556     S
V18     V19    10.0   1_656     S
V18     V17    10.0   1_556     S
V18     V20    10.0   .     S
V18     V28    10.0   .     S
V19     V17    10.0   1_455     S
V19     V21    10.0   1_455     S
V19     V24    10.0   1_554     S
V19     V18    10.0   1_554     S
V19     V18    10.0   1_454     S
V19     V20    10.0   .     S
V19     V20    10.0   1_554     S
V19     V29    10.0   .     S
V20     V18    10.0   1_455     S
V20     V22    10.0   1_455     S
V20     V23    10.0   .     S
V20     V17    10.0   1_455     S
V20     V19    10.0   1_556     S
V20     V30    10.0   .     S
V21     V19    10.0   1_655     S
V21     V23    10.0   .     S
V21     V24    10.0   1_654     S
V21     V24    10.0   1_554     S
V21     V22    10.0   .     S
V21     V22    10.0   1_554     S
V21     V23    10.0   1_655     S
V22     V20    10.0   1_655     S
V22     V24    10.0   .     S
V22     V23    10.0   1_655     S
V22     V23    10.0   .     S
V22     V21    10.0   1_556     S
V22     V24    10.0   1_655     S
V23     V22    10.0   1_455     S
V23     V21    10.0   1_455     S
V23     V24    10.0   1_554     S
V23     V24    10.0   .     S
V24     V19    10.0   1_556     S
V24     V21    10.0   1_456     S
V24     V21    10.0   1_556     S
V24     V22    10.0   1_455     S
V24     V23    10.0   1_556     S
V25     V27    10.0   .     S
V25     V31    10.0   .     S
V25     V30    10.0   1_655     S
V25     V32    10.0   1_655     S
V25     V32    10.0   .     S
V25     V26    10.0   1_554     S
V25     V26    10.0   .     S
V25     V31    10.0   1_655     S
V26     V28    10.0   .     S
V26     V32    10.0   .     S
V26     V29    10.0   1_656     S
V26     V31    10.0   1_656     S
V26     V31    10.0   1_556     S
V26     V25    10.0   1_556     S
V26     V32    10.0   1_655     S
V27     V30    10.0   1_655     S
V27     V31    10.0   .     S
V27     V29    10.0   .     S
V27     V29    10.0   1_655     S
V27     V28    10.0   1_554     S
V27     V28    10.0   .     S
V27     V30    10.0   .     S
V28     V29    10.0   1_656     S
V28     V32    10.0   .     S
V28     V30    10.0   .     S
V28     V30    10.0   1_655     S
V28     V27    10.0   1_556     S
V28     V29    10.0   1_556     S
V29     V28    10.0   1_454     S
V29     V31    10.0   .     S
V29     V26    10.0   1_454     S
V29     V27    10.0   1_455     S
V29     V28    10.0   1_554     S
V29     V30    10.0   .     S
V29     V30    10.0   1_554     S
V30     V27    10.0   1_455     S
V30     V32    10.0   .     S
V30     V25    10.0   1_455     S
V30     V28    10.0   1_455     S
V30     V29    10.0   1_556     S
V31     V26    10.0   1_454     S
V31     V26    10.0   1_554     S
V31     V25    10.0   1_455     S
V31     V32    10.0   .     S
V31     V32    10.0   1_554     S
V32     V25    10.0   1_455     S
V32     V26    10.0   1_455     S
V32     V31    10.0   1_556     S
