data_ngc
_audit_creation_date              2020-02-02
_audit_creation_method            'Pymatgen'
_symmetry_space_group_name_H-M    'P1'
_symmetry_Int_Tables_number       1
loop_
_symmetry_equiv_pos_as_xyz
  x,y,z
_cell_length_a                    18.7276
_cell_length_b                    18.7276
_cell_length_c                    35.1747
_cell_angle_alpha                 90.0
_cell_angle_beta                 90.0
_cell_angle_gamma                 90.0
loop_
_atom_site_label
_atom_site_type_symbol
_atom_site_fract_x
_atom_site_fract_y
_atom_site_fract_z
V1     V     0.0   0.125   0.0181
V2     V     0.0   0.625   0.0181
V3     V     0.5   0.125   0.0181
V4     V     0.5   0.625   0.0181
V5     V     0.0   0.375   0.9819
V6     V     0.0   0.875   0.9819
V7     V     0.5   0.375   0.9819
V8     V     0.5   0.875   0.9819
V9     V     0.0   0.375   0.2681
V10     V     0.0   0.875   0.2681
V11     V     0.5   0.375   0.2681
V12     V     0.5   0.875   0.2681
V13     V     0.25   0.375   0.2319
V14     V     0.25   0.875   0.2319
V15     V     0.75   0.375   0.2319
V16     V     0.75   0.875   0.2319
V17     V     0.25   0.375   0.5181
V18     V     0.25   0.875   0.5181
V19     V     0.75   0.375   0.5181
V20     V     0.75   0.875   0.5181
V21     V     0.25   0.125   0.4819
V22     V     0.25   0.625   0.4819
V23     V     0.75   0.125   0.4819
V24     V     0.75   0.625   0.4819
V25     V     0.25   0.125   0.7681
V26     V     0.25   0.625   0.7681
V27     V     0.75   0.125   0.7681
V28     V     0.75   0.625   0.7681
V29     V     0.0   0.125   0.7319
V30     V     0.0   0.625   0.7319
V31     V     0.5   0.125   0.7319
V32     V     0.5   0.625   0.7319
loop_
_geom_bond_atom_site_label_1
_geom_bond_atom_site_label_2
_geom_bond_distance
_geom_bond_site_symmetry_2
_ccdc_geom_bond_type
V1     V29    10.065   1_554     S
V1     V27    9.962   1_454     S
V1     V25    9.962   1_554     S
V1     V10    9.962   1_545     S
V1     V9    9.962   .     S
V1     V14    10.021   1_545     S
V1     V16    10.021   1_445     S
V1     V15    10.021   1_455     S
V1     V13    10.021   .     S
V2     V30    10.065   1_554     S
V2     V28    9.962   1_454     S
V2     V26    9.962   1_554     S
V2     V9    9.962   .     S
V2     V10    9.962   .     S
V2     V13    10.021   .     S
V2     V15    10.021   1_455     S
V2     V16    10.021   1_455     S
V2     V14    10.021   .     S
V3     V31    10.065   1_554     S
V3     V25    9.962   1_554     S
V3     V27    9.962   1_554     S
V3     V12    9.962   1_545     S
V3     V11    9.962   .     S
V3     V16    10.021   1_545     S
V3     V14    10.021   1_545     S
V3     V13    10.021   .     S
V3     V15    10.021   .     S
V4     V32    10.065   1_554     S
V4     V26    9.962   1_554     S
V4     V28    9.962   1_554     S
V4     V11    9.962   .     S
V4     V12    9.962   .     S
V4     V15    10.021   .     S
V4     V13    10.021   .     S
V4     V14    10.021   .     S
V4     V16    10.021   .     S
V5     V9    10.065   1_556     S
V5     V30    9.962   .     S
V5     V29    9.962   .     S
V5     V13    9.962   1_556     S
V5     V15    9.962   1_456     S
V5     V28    10.021   1_455     S
V5     V27    10.021   1_455     S
V5     V26    10.021   .     S
V5     V25    10.021   .     S
V6     V10    10.065   1_556     S
V6     V29    9.962   1_565     S
V6     V30    9.962   .     S
V6     V14    9.962   1_556     S
V6     V16    9.962   1_456     S
V6     V27    10.021   1_465     S
V6     V28    10.021   1_455     S
V6     V25    10.021   1_565     S
V6     V26    10.021   .     S
V7     V11    10.065   1_556     S
V7     V32    9.962   .     S
V7     V31    9.962   .     S
V7     V15    9.962   1_556     S
V7     V13    9.962   1_556     S
V7     V26    10.021   .     S
V7     V25    10.021   .     S
V7     V28    10.021   .     S
V7     V27    10.021   .     S
V8     V12    10.065   1_556     S
V8     V31    9.962   1_565     S
V8     V32    9.962   .     S
V8     V16    9.962   1_556     S
V8     V14    9.962   1_556     S
V8     V25    10.021   1_565     S
V8     V26    10.021   .     S
V8     V27    10.021   1_565     S
V8     V28    10.021   .     S
V9     V5    10.065   1_554     S
V9     V19    9.962   1_455     S
V9     V17    9.962   .     S
V9     V24    10.021   1_455     S
V9     V21    10.021   .     S
V9     V22    10.021   .     S
V9     V23    10.021   1_455     S
V10     V6    10.065   1_554     S
V10     V1    9.962   1_565     S
V10     V20    9.962   1_455     S
V10     V18    9.962   .     S
V10     V23    10.021   1_465     S
V10     V22    10.021   .     S
V10     V21    10.021   1_565     S
V10     V24    10.021   1_455     S
V11     V7    10.065   1_554     S
V11     V17    9.962   .     S
V11     V19    9.962   .     S
V11     V22    10.021   .     S
V11     V23    10.021   .     S
V11     V24    10.021   .     S
V11     V21    10.021   .     S
V12     V8    10.065   1_554     S
V12     V3    9.962   1_565     S
V12     V18    9.962   .     S
V12     V20    9.962   .     S
V12     V21    10.021   1_565     S
V12     V24    10.021   .     S
V12     V23    10.021   1_565     S
V12     V22    10.021   .     S
V13     V17    10.065   .     S
V13     V5    9.962   1_554     S
V13     V7    9.962   1_554     S
V13     V21    9.962   .     S
V13     V22    9.962   .     S
V14     V18    10.065   .     S
V14     V6    9.962   1_554     S
V14     V8    9.962   1_554     S
V14     V22    9.962   .     S
V14     V21    9.962   1_565     S
V14     V1    10.021   1_565     S
V14     V3    10.021   1_565     S
V15     V19    10.065   .     S
V15     V7    9.962   1_554     S
V15     V5    9.962   1_654     S
V15     V23    9.962   .     S
V15     V24    9.962   .     S
V15     V2    10.021   1_655     S
V15     V1    10.021   1_655     S
V16     V20    10.065   .     S
V16     V8    9.962   1_554     S
V16     V6    9.962   1_654     S
V16     V24    9.962   .     S
V16     V23    9.962   1_565     S
V16     V3    10.021   1_565     S
V16     V1    10.021   1_665     S
V16     V2    10.021   1_655     S
V17     V25    9.962   .     S
V17     V26    9.962   .     S
V17     V32    10.021   .     S
V17     V31    10.021   .     S
V17     V30    10.021   .     S
V17     V29    10.021   .     S
V18     V26    9.962   .     S
V18     V25    9.962   1_565     S
V18     V31    10.021   1_565     S
V18     V32    10.021   .     S
V18     V29    10.021   1_565     S
V18     V30    10.021   .     S
V19     V9    9.962   1_655     S
V19     V27    9.962   .     S
V19     V28    9.962   .     S
V19     V30    10.021   1_655     S
V19     V29    10.021   1_655     S
V19     V32    10.021   .     S
V19     V31    10.021   .     S
V20     V10    9.962   1_655     S
V20     V28    9.962   .     S
V20     V27    9.962   1_565     S
V20     V29    10.021   1_665     S
V20     V30    10.021   1_655     S
V20     V31    10.021   1_565     S
V20     V32    10.021   .     S
V21     V25    10.065   .     S
V21     V14    9.962   1_545     S
V21     V31    9.962   .     S
V21     V29    9.962   .     S
V21     V12    10.021   1_545     S
V21     V10    10.021   1_545     S
V22     V26    10.065   .     S
V22     V32    9.962   .     S
V22     V30    9.962   .     S
V23     V27    10.065   .     S
V23     V16    9.962   1_545     S
V23     V29    9.962   1_655     S
V23     V31    9.962   .     S
V23     V10    10.021   1_645     S
V23     V12    10.021   1_545     S
V23     V9    10.021   1_655     S
V24     V28    10.065   .     S
V24     V30    9.962   1_655     S
V24     V32    9.962   .     S
V24     V9    10.021   1_655     S
V24     V10    10.021   1_655     S
V25     V3    9.962   1_556     S
V25     V1    9.962   1_556     S
V25     V18    9.962   1_545     S
V25     V8    10.021   1_545     S
V25     V6    10.021   1_545     S
V26     V4    9.962   1_556     S
V26     V2    9.962   1_556     S
V27     V1    9.962   1_656     S
V27     V3    9.962   1_556     S
V27     V20    9.962   1_545     S
V27     V6    10.021   1_645     S
V27     V5    10.021   1_655     S
V27     V8    10.021   1_545     S
V28     V2    9.962   1_656     S
V28     V4    9.962   1_556     S
V28     V5    10.021   1_655     S
V28     V6    10.021   1_655     S
V29     V1    10.065   1_556     S
V29     V6    9.962   1_545     S
V29     V23    9.962   1_455     S
V29     V20    10.021   1_445     S
V29     V19    10.021   1_455     S
V29     V18    10.021   1_545     S
V30     V2    10.065   1_556     S
V30     V24    9.962   1_455     S
V30     V19    10.021   1_455     S
V30     V20    10.021   1_455     S
V31     V3    10.065   1_556     S
V31     V8    9.962   1_545     S
V31     V18    10.021   1_545     S
V31     V20    10.021   1_545     S
V32     V4    10.065   1_556     S
