data_nht
_audit_creation_date              2020-02-02
_audit_creation_method            'Pymatgen'
_symmetry_space_group_name_H-M    'P1'
_symmetry_Int_Tables_number       1
loop_
_symmetry_equiv_pos_as_xyz
  x,y,z
_cell_length_a                    27.2855
_cell_length_b                    27.2855
_cell_length_c                    45.0996
_cell_angle_alpha                 90.0
_cell_angle_beta                 90.0
_cell_angle_gamma                 120.0
loop_
_atom_site_label
_atom_site_type_symbol
_atom_site_fract_x
_atom_site_fract_y
_atom_site_fract_z
Er1     Er     0.1105   0.2209   0.6667
Er2     Er     0.1105   0.8895   0.6667
Ti3     Ti     0.0   0.0   0.7803
V4     V     0.7889   0.2111   0.7785
V5     V     0.7889   0.5779   0.7785
V6     V     0.4221   0.2111   0.7785
Er7     Er     0.7791   0.8895   0.6667
Er8     Er     0.4438   0.8876   0.3333
Er9     Er     0.1124   0.5562   0.3333
Ti10     Ti     0.3333   0.6667   0.4469
V11     V     0.1223   0.8777   0.4452
V12     V     0.1223   0.2446   0.4452
V13     V     0.7554   0.8777   0.4452
Er14     Er     0.4438   0.5562   0.3333
Er15     Er     0.7771   0.2229   0.0
Er16     Er     0.7771   0.5542   0.0
Ti17     Ti     0.6667   0.3333   0.1136
V18     V     0.0888   0.5444   0.1118
V19     V     0.4556   0.9112   0.1118
V20     V     0.4556   0.5444   0.1118
Er21     Er     0.4458   0.2229   0.0
loop_
_geom_bond_atom_site_label_1
_geom_bond_atom_site_label_2
_geom_bond_distance
_geom_bond_site_symmetry_2
_ccdc_geom_bond_type
Er1     V12    10.005   .     S
Er1     V4    10.005   1_455     S
Er1     V6    10.005   .     S
Er2     V11    10.005   .     S
Er2     V6    10.005   1_565     S
Er2     V5    10.005   1_455     S
Ti3     V4    9.975   1_455     S
Ti3     V6    9.975   .     S
Ti3     V5    9.975   1_445     S
V4     Er7    10.005   1_545     S
V4     Er1    10.005   1_655     S
V4     Er15    10.005   1_556     S
V4     V6    10.009   .     S
V4     V5    10.009   .     S
V4     Ti3    9.975   1_655     S
V5     Er2    10.005   1_655     S
V5     Er7    10.005   .     S
V5     Er16    10.005   1_556     S
V5     V6    10.009   .     S
V5     Ti3    9.975   1_665     S
V6     Er2    10.005   1_545     S
V6     Er21    10.005   1_556     S
Er7     V4    10.005   1_565     S
Er7     V13    10.005   .     S
Er8     V19    10.005   .     S
Er8     V11    10.005   .     S
Er8     V13    10.005   .     S
Er9     V18    10.005   .     S
Er9     V11    10.005   .     S
Er9     V12    10.005   .     S
Ti10     V11    9.975   .     S
Ti10     V13    9.975   .     S
Ti10     V12    9.975   .     S
V11     V12    10.009   1_565     S
V11     V13    10.009   1_455     S
V12     Er14    10.005   .     S
V12     V11    10.009   1_545     S
V12     V13    10.009   1_445     S
V13     Er14    10.005   .     S
V13     V12    10.009   1_665     S
V13     V11    10.009   1_655     S
Er14     V20    10.005   .     S
Er15     V4    10.005   1_554     S
Er15     V18    10.005   1_655     S
Er15     V19    10.005   1_545     S
Er16     V5    10.005   1_554     S
Er16     V18    10.005   1_655     S
Er16     V20    10.005   .     S
Ti17     V18    9.975   1_655     S
Ti17     V19    9.975   1_545     S
Ti17     V20    9.975   .     S
V18     Er15    10.005   1_455     S
V18     Er16    10.005   1_455     S
V18     V19    10.009   .     S
V18     V20    10.009   .     S
V18     Ti17    9.975   1_455     S
V19     Er15    10.005   1_565     S
V19     Er21    10.005   1_565     S
V19     V20    10.009   .     S
V19     Ti17    9.975   1_565     S
V20     Er21    10.005   .     S
Er21     V19    10.005   1_545     S
Er21     V6    10.005   1_554     S
