data_nhta
_audit_creation_date              2020-02-02
_audit_creation_method            'Pymatgen'
_symmetry_space_group_name_H-M    'P1'
_symmetry_Int_Tables_number       1
loop_
_symmetry_equiv_pos_as_xyz
  x,y,z
_cell_length_a                    63.7814
_cell_length_b                    63.7814
_cell_length_c                    105.057
_cell_angle_alpha                 90.0
_cell_angle_beta                 90.0
_cell_angle_gamma                 120.0
loop_
_atom_site_label
_atom_site_type_symbol
_atom_site_fract_x
_atom_site_fract_y
_atom_site_fract_z
S1     S     0.1239   0.8761   0.9176
He2     He     0.0444   0.7988   0.0
He3     He     0.2012   0.9556   0.0
S4     S     0.7522   0.8761   0.9176
He5     He     0.7544   0.7988   0.0
He6     He     0.7544   0.9556   0.0
S7     S     0.1239   0.2478   0.9176
He8     He     0.0444   0.2456   0.0
He9     He     0.2012   0.2456   0.0
V10     V     0.1568   0.1569   0.7479
V11     V     0.0001   0.1569   0.7479
V12     V     0.8431   0.9999   0.7479
V13     V     0.8431   0.8432   0.7479
Ce14     Ce     0.2386   0.3204   0.7069
Ce15     Ce     0.0818   0.3204   0.7069
Ti16     Ti     0.1914   0.3829   0.7825
Er17     Er     0.1098   0.2197   0.8235
Ce18     Ce     0.6796   0.7614   0.7069
Ce19     Ce     0.6796   0.9182   0.7069
Ti20     Ti     0.6171   0.8086   0.7825
Er21     Er     0.7803   0.8902   0.8235
Ce22     Ce     0.2386   0.9182   0.7069
Ce23     Ce     0.0818   0.7614   0.7069
Ti24     Ti     0.1914   0.8086   0.7825
Er25     Er     0.1098   0.8902   0.8235
H26     H     0.2811   0.5622   0.7699
H27     H     0.2811   0.7189   0.7699
H28     H     0.4378   0.7189   0.7699
V29     V     0.1568   0.9999   0.7479
V30     V     0.0001   0.8432   0.7479
S31     S     0.4572   0.9145   0.5843
He32     He     0.3777   0.9122   0.6667
He33     He     0.5345   0.9122   0.6667
S34     S     0.4572   0.5428   0.5843
He35     He     0.5345   0.6223   0.6667
He36     He     0.3777   0.4655   0.6667
V37     V     0.1765   0.6666   0.4146
V38     V     0.1765   0.5099   0.4146
V39     V     0.4901   0.6666   0.4146
V40     V     0.3334   0.5099   0.4146
V41     V     0.3334   0.8235   0.4146
V42     V     0.4901   0.8235   0.4146
Ce43     Ce     0.5719   0.9871   0.3736
Ce44     Ce     0.4152   0.9871   0.3736
Ti45     Ti     0.5248   0.0496   0.4491
Er46     Er     0.4432   0.8863   0.4902
Ce47     Ce     0.5719   0.5848   0.3736
Ce48     Ce     0.4152   0.4281   0.3736
Ti49     Ti     0.5248   0.4752   0.4491
Er50     Er     0.4432   0.5568   0.4902
H51     H     0.7711   0.3855   0.4365
H52     H     0.6145   0.3855   0.4365
H53     H     0.6145   0.2289   0.4365
Ce54     Ce     0.0129   0.4281   0.3736
Ce55     Ce     0.0129   0.5848   0.3736
Ti56     Ti     0.9504   0.4752   0.4491
Er57     Er     0.1137   0.5568   0.4902
S58     S     0.0855   0.5428   0.5843
He59     He     0.0878   0.6223   0.6667
He60     He     0.0878   0.4655   0.6667
S61     S     0.7906   0.2094   0.2509
He62     He     0.8679   0.289   0.3333
He63     He     0.711   0.1321   0.3333
S64     S     0.7906   0.5811   0.2509
He65     He     0.8679   0.5789   0.3333
He66     He     0.711   0.5789   0.3333
V67     V     0.6667   0.4902   0.0813
V68     V     0.8234   0.4902   0.0813
V69     V     0.5098   0.1766   0.0813
V70     V     0.5098   0.3332   0.0813
V71     V     0.8234   0.3332   0.0813
V72     V     0.6667   0.1766   0.0813
Ce73     Ce     0.7485   0.6537   0.0403
Ce74     Ce     0.9052   0.6537   0.0403
Ti75     Ti     0.8581   0.7162   0.1158
Er76     Er     0.7765   0.553   0.1568
Ce77     Ce     0.3463   0.0948   0.0403
Ce78     Ce     0.3463   0.2515   0.0403
Ti79     Ti     0.2838   0.1419   0.1158
Er80     Er     0.447   0.2235   0.1568
Ce81     Ce     0.7485   0.0948   0.0403
Ce82     Ce     0.9052   0.2515   0.0403
Ti83     Ti     0.8581   0.1419   0.1158
Er84     Er     0.7765   0.2235   0.1568
H85     H     0.9478   0.0522   0.1032
H86     H     0.1044   0.0522   0.1032
H87     H     0.9478   0.8956   0.1032
S88     S     0.4189   0.2094   0.2509
He89     He     0.4211   0.1321   0.3333
He90     He     0.4211   0.289   0.3333
loop_
_geom_bond_atom_site_label_1
_geom_bond_atom_site_label_2
_geom_bond_distance
_geom_bond_site_symmetry_2
_ccdc_geom_bond_type
S1     He3    9.999   1_556     S
S1     He2    9.999   1_556     S
S1     Er25    10.007   .     S
He2     S1    9.999   1_554     S
He2     He3    10.002   .     S
He2     Ce74    10.009   1_455     S
He3     S1    9.999   1_554     S
He3     Ce77    10.009   1_565     S
S4     He6    9.999   1_556     S
S4     He5    9.999   1_556     S
S4     Er21    10.007   .     S
He5     S4    9.999   1_554     S
He5     He6    10.002   .     S
He5     Ce73    10.009   .     S
He6     S4    9.999   1_554     S
He6     Ce81    10.009   1_565     S
S7     He8    9.999   1_556     S
S7     He9    9.999   1_556     S
S7     Er17    10.007   .     S
He8     S7    9.999   1_554     S
He8     He9    10.002   .     S
He8     Ce82    10.009   1_455     S
He9     S7    9.999   1_554     S
He9     Ce78    10.009   .     S
V10     V29    10.01   1_545     S
V10     Er17    9.999   .     S
V10     V11    9.995   .     S
V10     Ce14    10.007   .     S
V11     V12    10.01   1_445     S
V11     Er17    9.999   .     S
V11     Ce15    10.007   .     S
V12     V11    10.01   1_665     S
V12     Er21    9.999   .     S
V12     V13    9.995   .     S
V12     Ce19    10.007   .     S
V13     Er21    9.999   .     S
V13     Ce18    10.007   .     S
V13     V30    10.01   1_655     S
Ce14     Ti16    9.991   .     S
Ce14     Ce15    9.995   .     S
Ce14     He36    10.009   .     S
Ce15     Ti16    9.991   .     S
Ce15     He60    10.009   .     S
Ti16     Er17    9.993   .     S
Ti16     H26    9.995   .     S
Ce18     Ti20    9.991   .     S
Ce18     Ce19    9.995   .     S
Ce18     He35    10.009   .     S
Ce19     Ti20    9.991   .     S
Ce19     He33    10.009   .     S
Ti20     Er21    9.993   .     S
Ti20     H28    9.995   .     S
Ce22     Ti24    9.991   .     S
Ce22     Ce23    9.995   .     S
Ce22     V29    10.007   .     S
Ce22     He32    10.009   .     S
Ce23     Ti24    9.991   .     S
Ce23     V30    10.007   .     S
Ce23     He59    10.009   .     S
Ti24     Er25    9.993   .     S
Ti24     H27    9.995   .     S
Er25     V29    9.999   .     S
Er25     V30    9.999   .     S
H26     H28    9.99   .     S
H26     H27    9.99   .     S
H27     H28    9.99   .     S
V29     V10    10.01   1_565     S
V29     V30    9.995   .     S
V30     V13    10.01   1_455     S
S31     He33    9.999   .     S
S31     He32    9.999   .     S
S31     Er46    10.007   .     S
He32     He33    10.002   .     S
S34     He36    9.999   .     S
S34     He35    9.999   .     S
S34     Er50    10.007   .     S
He35     He36    10.002   .     S
V37     V41    10.01   .     S
V37     V38    9.995   .     S
V37     Er57    9.999   .     S
V37     Ce55    10.007   .     S
V38     V40    10.01   .     S
V38     Er57    9.999   .     S
V38     Ce54    10.007   .     S
V39     V40    9.995   .     S
V39     Er50    9.999   .     S
V39     Ce47    10.007   .     S
V39     V42    10.01   .     S
V40     Er50    9.999   .     S
V40     Ce48    10.007   .     S
V41     V42    9.995   .     S
V41     Er46    9.999   .     S
V41     Ce44    10.007   .     S
V42     Er46    9.999   .     S
V42     Ce43    10.007   .     S
Ce43     Ti45    9.991   1_565     S
Ce43     Ce44    9.995   .     S
Ce43     He63    10.009   1_565     S
Ce44     Ti45    9.991   1_565     S
Ce44     He89    10.009   1_565     S
Ti45     Ce43    9.991   1_545     S
Ti45     Ce44    9.991   1_545     S
Ti45     Er46    9.993   1_545     S
Ti45     H53    9.995   .     S
Er46     Ti45    9.993   1_565     S
Ce47     Ti49    9.991   .     S
Ce47     Ce48    9.995   .     S
Ce47     He66    10.009   .     S
Ce48     Ti49    9.991   .     S
Ce48     He90    10.009   .     S
Ti49     Er50    9.993   .     S
Ti49     H52    9.995   .     S
H51     H52    9.99   .     S
H51     H53    9.99   .     S
H51     Ti56    9.995   .     S
H52     H53    9.99   .     S
Ce54     Ti56    9.991   1_455     S
Ce54     Ce55    9.995   .     S
Ce54     He62    10.009   1_455     S
Ce55     Ti56    9.991   1_455     S
Ce55     He65    10.009   1_455     S
Ti56     Ce54    9.991   1_655     S
Ti56     Ce55    9.991   1_655     S
Ti56     Er57    9.993   1_655     S
Er57     Ti56    9.993   1_455     S
Er57     S58    10.007   .     S
S58     He60    9.999   .     S
S58     He59    9.999   .     S
He59     He60    10.002   .     S
S61     He63    9.999   .     S
S61     He62    9.999   .     S
S61     Er84    10.007   .     S
He62     He63    10.002   .     S
He62     Ce54    10.009   1_655     S
He63     Ce43    10.009   1_545     S
S64     He66    9.999   .     S
S64     He65    9.999   .     S
S64     Er76    10.007   .     S
He65     He66    10.002   .     S
He65     Ce55    10.009   1_655     S
V67     V70    10.01   .     S
V67     V68    9.995   .     S
V67     Er76    9.999   .     S
V67     Ce73    10.007   .     S
V68     V71    10.01   .     S
V68     Er76    9.999   .     S
V68     Ce74    10.007   .     S
V69     V70    9.995   .     S
V69     Er80    9.999   .     S
V69     Ce77    10.007   .     S
V69     V72    10.01   .     S
V70     Er80    9.999   .     S
V70     Ce78    10.007   .     S
V71     V72    9.995   .     S
V71     Er84    9.999   .     S
V71     Ce82    10.007   .     S
V72     Er84    9.999   .     S
V72     Ce81    10.007   .     S
Ce73     Ti75    9.991   .     S
Ce73     Ce74    9.995   .     S
Ce74     He2    10.009   1_655     S
Ce74     Ti75    9.991   .     S
Ti75     Er76    9.993   .     S
Ti75     H87    9.995   .     S
Ce77     He3    10.009   1_545     S
Ce77     Ti79    9.991   .     S
Ce77     Ce78    9.995   .     S
Ce78     Ti79    9.991   .     S
Ti79     Er80    9.993   .     S
Ti79     H86    9.995   .     S
Er80     S88    10.007   .     S
Ce81     He6    10.009   1_545     S
Ce81     Ti83    9.991   .     S
Ce81     Ce82    9.995   .     S
Ce82     He8    10.009   1_655     S
Ce82     Ti83    9.991   .     S
Ti83     Er84    9.993   .     S
Ti83     H85    9.995   .     S
H85     H87    9.99   1_545     S
H85     H86    9.99   1_655     S
H86     H87    9.99   1_445     S
H86     H85    9.99   1_455     S
H87     H85    9.99   1_565     S
H87     H86    9.99   1_665     S
S88     He90    9.999   .     S
S88     He89    9.999   .     S
He89     He90    10.002   .     S
He89     Ce44    10.009   1_545     S
