data_nind
_audit_creation_date              2020-02-02
_audit_creation_method            'Pymatgen'
_symmetry_space_group_name_H-M    'P1'
_symmetry_Int_Tables_number       1
loop_
_symmetry_equiv_pos_as_xyz
  x,y,z
_cell_length_a                    25.1509
_cell_length_b                    25.1509
_cell_length_c                    17.1004
_cell_angle_alpha                 90.0
_cell_angle_beta                 90.0
_cell_angle_gamma                 120.0
loop_
_atom_site_label
_atom_site_type_symbol
_atom_site_fract_x
_atom_site_fract_y
_atom_site_fract_z
V1     V     0.0   0.332   0.5
V2     V     0.332   0.332   0.5
V3     V     0.332   0.0   0.5
V4     V     0.0   0.668   0.5
V5     V     0.668   0.668   0.5
V6     V     0.668   0.0   0.5
Er7     Er     0.5   0.0   0.0
Er8     Er     0.0   0.5   0.0
Er9     Er     0.5   0.5   0.0
loop_
_geom_bond_atom_site_label_1
_geom_bond_atom_site_label_2
_geom_bond_distance
_geom_bond_site_symmetry_2
_ccdc_geom_bond_type
V1     V6    8.349   1_455     S
V1     V2    8.349   .     S
V1     Er8    9.538   1_556     S
V1     Er8    9.538   .     S
V2     V3    8.349   .     S
V2     Er9    9.538   1_556     S
V2     Er9    9.538   .     S
V3     V4    8.349   1_545     S
V3     Er7    9.538   1_556     S
V3     Er7    9.538   .     S
V4     V5    8.349   1_455     S
V4     V3    8.349   1_565     S
V4     Er8    9.538   1_556     S
V4     Er8    9.538   .     S
V5     V4    8.349   1_655     S
V5     V6    8.349   1_565     S
V5     Er9    9.538   1_556     S
V5     Er9    9.538   .     S
V6     V1    8.349   1_655     S
V6     V5    8.349   1_545     S
V6     Er7    9.538   1_556     S
V6     Er7    9.538   .     S
Er7     Er8    12.575   1_655     S
Er7     Er9    12.575   .     S
Er7     Er9    12.575   1_545     S
Er7     Er8    12.575   1_545     S
Er7     V6    9.538   1_554     S
Er7     V3    9.538   1_554     S
Er8     Er7    12.575   1_455     S
Er8     Er9    12.575   1_455     S
Er8     Er9    12.575   .     S
Er8     Er7    12.575   1_565     S
Er8     V4    9.538   1_554     S
Er8     V1    9.538   1_554     S
Er9     Er8    12.575   1_655     S
Er9     Er7    12.575   1_565     S
Er9     V5    9.538   1_554     S
Er9     V2    9.538   1_554     S
