data_nkd
_audit_creation_date              2020-02-02
_audit_creation_method            'Pymatgen'
_symmetry_space_group_name_H-M    'P1'
_symmetry_Int_Tables_number       1
loop_
_symmetry_equiv_pos_as_xyz
  x,y,z
_cell_length_a                    18.0146
_cell_length_b                    18.0146
_cell_length_c                    74.7521
_cell_angle_alpha                 90.0
_cell_angle_beta                 90.0
_cell_angle_gamma                 90.0
loop_
_atom_site_label
_atom_site_type_symbol
_atom_site_fract_x
_atom_site_fract_y
_atom_site_fract_z
V1     V     0.0   0.5   0.6919
Er2     Er     0.0   0.5   0.5581
Ce3     Ce     0.0   0.0   0.5
V4     V     0.5   0.0   0.8081
Er5     Er     0.5   0.0   0.9419
Ti6     Ti     0.0   0.0   0.75
V7     V     0.0   0.5   0.3081
Er8     Er     0.0   0.5   0.4419
Ti9     Ti     0.0   0.0   0.25
Ce10     Ce     0.0   0.0   0.0
V11     V     0.5   0.0   0.1919
Er12     Er     0.5   0.0   0.0581
loop_
_geom_bond_atom_site_label_1
_geom_bond_atom_site_label_2
_geom_bond_distance
_geom_bond_site_symmetry_2
_ccdc_geom_bond_type
V1     Er2    9.997   .     S
V1     Ti6    10.001   .     S
V1     Ti6    10.001   1_565     S
Er2     Ce3    10.001   1_565     S
Er2     Ce3    10.001   .     S
Ce3     Er2    10.001   1_545     S
Ce3     Er8    10.001   1_545     S
Ce3     Er8    10.001   .     S
V4     Er5    9.997   .     S
V4     Ti6    10.001   .     S
V4     Ti6    10.001   1_655     S
Er5     Ce10    10.001   1_656     S
Er5     Ce10    10.001   1_556     S
Ti6     V1    10.001   1_545     S
Ti6     V4    10.001   1_455     S
V7     Er8    9.997   .     S
V7     Ti9    10.001   .     S
V7     Ti9    10.001   1_565     S
Er8     Ce3    10.001   1_565     S
Ti9     V7    10.001   1_545     S
Ti9     V11    10.001   .     S
Ti9     V11    10.001   1_455     S
Ce10     Er12    10.001   1_455     S
Ce10     Er5    10.001   1_454     S
Ce10     Er12    10.001   .     S
Ce10     Er5    10.001   1_554     S
V11     Er12    9.997   .     S
V11     Ti9    10.001   1_655     S
Er12     Ce10    10.001   1_655     S
