data_nkp
_audit_creation_date              2020-02-02
_audit_creation_method            'Pymatgen'
_symmetry_space_group_name_H-M    'P1'
_symmetry_Int_Tables_number       1
loop_
_symmetry_equiv_pos_as_xyz
  x,y,z
_cell_length_a                    27.6267
_cell_length_b                    16.7606
_cell_length_c                    51.2767
_cell_angle_alpha                 90.0
_cell_angle_beta                 90.0
_cell_angle_gamma                 90.0
loop_
_atom_site_label
_atom_site_type_symbol
_atom_site_fract_x
_atom_site_fract_y
_atom_site_fract_z
Ce1     Ce     0.0   0.5   0.4078
Ti2     Ti     0.319   0.5   0.5
Ce3     Ce     0.0   0.5   0.5922
Ti4     Ti     0.681   0.5   0.5
V5     V     0.0   0.0   0.3014
S6     S     0.0   0.5   0.0
Er7     Er     0.0   0.0   0.1064
Er8     Er     0.0   0.0   0.8936
V9     V     0.0   0.0   0.6986
loop_
_geom_bond_atom_site_label_1
_geom_bond_atom_site_label_2
_geom_bond_distance
_geom_bond_site_symmetry_2
_ccdc_geom_bond_type
Ce1     Ti4    10.0   1_455     S
Ce1     Ti2    10.0   .     S
Ce1     V5    10.0   1_565     S
Ce1     V5    10.0   .     S
Ti2     Ce3    10.0   .     S
Ti2     Ti4    10.002   .     S
Ce3     Ti4    10.0   1_455     S
Ce3     V9    10.0   1_565     S
Ce3     V9    10.0   .     S
Ti4     Ce1    10.0   1_655     S
Ti4     Ce3    10.0   1_655     S
V5     Er7    9.999   .     S
V5     Ce1    10.0   1_545     S
S6     Er8    10.0   1_564     S
S6     Er8    10.0   1_554     S
S6     Er7    10.0   1_565     S
S6     Er7    10.0   .     S
Er7     S6    10.0   1_545     S
Er8     S6    10.0   1_546     S
Er8     S6    10.0   1_556     S
Er8     V9    9.999   .     S
V9     Ce3    10.0   1_545     S
