data_noc
_audit_creation_date              2020-02-02
_audit_creation_method            'Pymatgen'
_symmetry_space_group_name_H-M    'P1'
_symmetry_Int_Tables_number       1
loop_
_symmetry_equiv_pos_as_xyz
  x,y,z
_cell_length_a                    47.1057
_cell_length_b                    47.1057
_cell_length_c                    39.0701
_cell_angle_alpha                 90.0
_cell_angle_beta                 90.0
_cell_angle_gamma                 120.0
loop_
_atom_site_label
_atom_site_type_symbol
_atom_site_fract_x
_atom_site_fract_y
_atom_site_fract_z
Er1     Er     0.4387   0.8774   0.0
Er2     Er     0.5613   0.4387   0.6667
Er3     Er     0.1226   0.5613   0.3333
V4     V     0.3475   0.0952   0.9193
V5     V     0.3475   0.2524   0.7473
V6     V     0.0952   0.7476   0.2527
V7     V     0.2524   0.9048   0.0807
Er8     Er     0.5613   0.1226   0.0
V9     V     0.0952   0.3475   0.414
V10     V     0.2524   0.3475   0.586
V11     V     0.7476   0.6525   0.586
V12     V     0.9048   0.6525   0.414
Er13     Er     0.8774   0.4387   0.3333
Er14     Er     0.4387   0.5613   0.6667
V15     V     0.6525   0.7476   0.7473
V16     V     0.6525   0.9048   0.9193
V17     V     0.9048   0.2524   0.2527
V18     V     0.7476   0.0952   0.0807
loop_
_geom_bond_atom_site_label_1
_geom_bond_atom_site_label_2
_geom_bond_distance
_geom_bond_site_symmetry_2
_ccdc_geom_bond_type
Er1     V16    10.0   1_554     S
Er1     V7    10.0   .     S
Er1     Er8    10.0   1_565     S
Er2     V11    10.0   .     S
Er2     V5    10.0   .     S
Er2     Er14    10.0   .     S
Er3     V6    10.0   .     S
Er3     V9    10.0   .     S
Er3     Er13    10.0   1_455     S
V4     V5    10.0   .     S
V4     V7    10.0   1_546     S
V4     Er8    10.0   1_556     S
V5     V10    10.0   .     S
V6     V7    10.0   .     S
V6     V12    10.0   1_455     S
V7     V4    10.0   1_564     S
Er8     V4    10.0   1_554     S
Er8     V18    10.0   .     S
Er8     Er1    10.0   1_545     S
V9     V10    10.0   .     S
V9     V17    10.0   1_455     S
V10     Er14    10.0   .     S
V11     V12    10.0   .     S
V11     V15    10.0   .     S
V12     V6    10.0   1_655     S
V12     Er13    10.0   .     S
Er13     V17    10.0   .     S
Er13     Er3    10.0   1_655     S
Er14     V15    10.0   .     S
V15     V16    10.0   .     S
V16     Er1    10.0   1_556     S
V16     V18    10.0   1_566     S
V17     V18    10.0   .     S
V17     V9    10.0   1_655     S
V18     V16    10.0   1_544     S
