data_nof
_audit_creation_date              2020-02-02
_audit_creation_method            'Pymatgen'
_symmetry_space_group_name_H-M    'P1'
_symmetry_Int_Tables_number       1
loop_
_symmetry_equiv_pos_as_xyz
  x,y,z
_cell_length_a                    49.1256
_cell_length_b                    37.857
_cell_length_c                    28.7943
_cell_angle_alpha                 90.0
_cell_angle_beta                 90.0
_cell_angle_gamma                 90.0
loop_
_atom_site_label
_atom_site_type_symbol
_atom_site_fract_x
_atom_site_fract_y
_atom_site_fract_z
V1     V     0.8117   0.855   0.5
V2     V     0.6883   0.645   0.5
Er3     Er     0.8982   0.0   0.25
Er4     Er     0.1018   0.0   0.25
Er5     Er     0.8982   0.0   0.75
Er6     Er     0.1018   0.0   0.75
V7     V     0.3117   0.645   0.0
V8     V     0.1883   0.855   0.0
Er9     Er     0.6018   0.5   0.75
Er10     Er     0.3982   0.5   0.75
V11     V     0.1883   0.145   0.5
V12     V     0.3117   0.355   0.5
V13     V     0.8117   0.145   0.0
V14     V     0.6883   0.355   0.0
Er15     Er     0.3982   0.5   0.25
Er16     Er     0.6018   0.5   0.25
loop_
_geom_bond_atom_site_label_1
_geom_bond_atom_site_label_2
_geom_bond_distance
_geom_bond_site_symmetry_2
_ccdc_geom_bond_type
V1     V2    10.0   .     S
V1     Er3    10.0   1_565     S
V1     Er5    10.0   1_565     S
V2     Er16    10.0   .     S
V2     Er9    10.0   .     S
Er3     V1    10.0   1_545     S
Er3     Er4    10.0   1_655     S
Er3     V13    10.0   .     S
Er4     Er3    10.0   1_455     S
Er4     V8    10.0   1_545     S
Er4     V11    10.0   .     S
Er5     V1    10.0   1_545     S
Er5     Er6    10.0   1_655     S
Er5     V13    10.0   1_556     S
Er6     Er5    10.0   1_455     S
Er6     V8    10.0   1_546     S
Er6     V11    10.0   .     S
V7     V8    10.0   .     S
V7     Er10    10.0   1_554     S
V7     Er15    10.0   .     S
V8     Er6    10.0   1_564     S
V8     Er4    10.0   1_565     S
Er9     Er10    10.0   .     S
Er9     V14    10.0   1_556     S
Er10     V7    10.0   1_556     S
Er10     V12    10.0   .     S
V11     V12    10.0   .     S
V12     Er15    10.0   .     S
V13     V14    10.0   .     S
V13     Er5    10.0   1_554     S
V14     Er9    10.0   1_554     S
V14     Er16    10.0   .     S
Er15     Er16    10.0   .     S
