data_nol
_audit_creation_date              2020-02-02
_audit_creation_method            'Pymatgen'
_symmetry_space_group_name_H-M    'P1'
_symmetry_Int_Tables_number       1
loop_
_symmetry_equiv_pos_as_xyz
  x,y,z
_cell_length_a                    31.1858
_cell_length_b                    39.1808
_cell_length_c                    29.2149
_cell_angle_alpha                 90.0
_cell_angle_beta                 90.0
_cell_angle_gamma                 90.0
loop_
_atom_site_label
_atom_site_type_symbol
_atom_site_fract_x
_atom_site_fract_y
_atom_site_fract_z
V1     V     0.1226   0.034   0.1005
V2     V     0.8774   0.966   0.8995
Er3     Er     0.8278   0.3776   0.1648
Er4     Er     0.8278   0.1224   0.1648
V5     V     0.1226   0.466   0.1005
V6     V     0.8774   0.534   0.8995
Er7     Er     0.1722   0.8776   0.8352
Er8     Er     0.1722   0.6224   0.8352
V9     V     0.3774   0.966   0.6005
V10     V     0.6225   0.034   0.3995
Er11     Er     0.3278   0.3776   0.3352
Er12     Er     0.3278   0.1224   0.3352
V13     V     0.3774   0.534   0.6005
V14     V     0.6226   0.466   0.3995
Er15     Er     0.6722   0.6224   0.6648
Er16     Er     0.6722   0.8776   0.6648
loop_
_geom_bond_atom_site_label_1
_geom_bond_atom_site_label_2
_geom_bond_distance
_geom_bond_site_symmetry_2
_ccdc_geom_bond_type
V1     V2    10.0   1_444     S
V1     Er7    10.0   1_544     S
V1     Er4    10.0   1_455     S
V1     Er12    10.0   .     S
V2     V1    10.0   1_666     S
V2     Er4    10.0   1_566     S
V2     Er7    10.0   1_655     S
V2     Er16    10.0   .     S
Er3     Er4    10.0   .     S
Er3     V14    10.0   .     S
Er3     V6    10.0   1_554     S
Er3     V5    10.0   1_655     S
Er4     V2    10.0   1_544     S
Er4     V1    10.0   1_655     S
Er4     V10    10.0   .     S
V5     V6    10.0   1_454     S
V5     Er8    10.0   1_554     S
V5     Er3    10.0   1_455     S
V5     Er11    10.0   .     S
V6     V5    10.0   1_656     S
V6     Er3    10.0   1_556     S
V6     Er8    10.0   1_655     S
V6     Er15    10.0   .     S
Er7     V1    10.0   1_566     S
Er7     V2    10.0   1_455     S
Er7     Er8    10.0   .     S
Er7     V9    10.0   .     S
Er8     V5    10.0   1_556     S
Er8     V6    10.0   1_455     S
Er8     V13    10.0   .     S
V9     V10    10.0   1_565     S
V9     Er12    10.0   1_565     S
V9     Er16    10.0   .     S
V10     V9    10.0   1_545     S
V10     Er16    10.0   1_545     S
V10     Er12    10.0   .     S
Er11     Er12    10.0   .     S
Er11     V13    10.0   .     S
Er11     V14    10.0   .     S
Er12     V9    10.0   1_545     S
V13     V14    10.0   .     S
V13     Er15    10.0   .     S
V14     Er15    10.0   .     S
Er15     Er16    10.0   .     S
Er16     V10    10.0   1_565     S
