data_nor
_audit_creation_date              2020-02-02
_audit_creation_method            'Pymatgen'
_symmetry_space_group_name_H-M    'P1'
_symmetry_Int_Tables_number       1
loop_
_symmetry_equiv_pos_as_xyz
  x,y,z
_cell_length_a                    17.2211
_cell_length_b                    45.5741
_cell_length_c                    19.8044
_cell_angle_alpha                 90.0
_cell_angle_beta                 108.008
_cell_angle_gamma                 90.0
loop_
_atom_site_label
_atom_site_type_symbol
_atom_site_fract_x
_atom_site_fract_y
_atom_site_fract_z
Er1     Er     0.202   0.843   0.365
Er2     Er     0.298   0.657   0.135
Er3     Er     0.798   0.843   0.635
Er4     Er     0.702   0.657   0.865
Er5     Er     0.202   0.157   0.365
Er6     Er     0.298   0.343   0.135
Er7     Er     0.798   0.157   0.635
Er8     Er     0.702   0.343   0.865
V9     V     0.5   0.5   0.5
V10     V     0.0   0.0   0.0
loop_
_geom_bond_atom_site_label_1
_geom_bond_atom_site_label_2
_geom_bond_distance
_geom_bond_site_symmetry_2
_ccdc_geom_bond_type
Er1     Er2    10.0   .     S
Er1     Er3    10.0   1_455     S
Er1     V10    10.0   1_565     S
Er1     Er3    10.0   .     S
Er2     Er4    10.0   1_554     S
Er2     V9    10.0   .     S
Er2     Er4    10.0   1_454     S
Er3     Er4    10.0   .     S
Er3     Er1    10.0   1_655     S
Er3     V10    10.0   1_666     S
Er4     Er2    10.0   1_556     S
Er4     V9    10.0   .     S
Er4     Er2    10.0   1_656     S
Er5     Er6    10.0   .     S
Er5     Er7    10.0   1_455     S
Er5     V10    10.0   .     S
Er5     Er7    10.0   .     S
Er6     Er8    10.0   1_554     S
Er6     V9    10.0   .     S
Er6     Er8    10.0   1_454     S
Er7     Er8    10.0   .     S
Er7     Er5    10.0   1_655     S
Er7     V10    10.0   1_656     S
Er8     Er6    10.0   1_556     S
Er8     V9    10.0   .     S
Er8     Er6    10.0   1_656     S
V10     Er1    10.0   1_545     S
V10     Er3    10.0   1_444     S
V10     Er7    10.0   1_454     S
