data_nos
_audit_creation_date              2020-02-02
_audit_creation_method            'Pymatgen'
_symmetry_space_group_name_H-M    'P1'
_symmetry_Int_Tables_number       1
loop_
_symmetry_equiv_pos_as_xyz
  x,y,z
_cell_length_a                    33.3491
_cell_length_b                    33.2333
_cell_length_c                    64.6726
_cell_angle_alpha                 90.0
_cell_angle_beta                 102.119
_cell_angle_gamma                 90.0
loop_
_atom_site_label
_atom_site_type_symbol
_atom_site_fract_x
_atom_site_fract_y
_atom_site_fract_z
Er1     Er     0.2717   0.0734   0.6261
Ti2     Ti     0.4924   0.6184   0.8273
S3     S     0.4308   0.5688   0.6713
Ce4     Ce     0.763   0.697   0.9171
V5     V     0.4825   0.288   0.6279
H6     H     0.3271   0.7989   0.5752
Er7     Er     0.2283   0.5734   0.8739
Ti8     Ti     0.0076   0.1183   0.6727
S9     S     0.0692   0.0688   0.8287
Ce10     Ce     0.737   0.197   0.5829
V11     V     0.0175   0.788   0.8721
H12     H     0.1729   0.2988   0.9248
Er13     Er     0.7283   0.9266   0.3739
V14     V     0.5175   0.712   0.3721
Ti15     Ti     0.5076   0.3816   0.1727
S16     S     0.5692   0.4312   0.3287
Ce17     Ce     0.237   0.303   0.0829
H18     H     0.6729   0.2012   0.4248
Er19     Er     0.7717   0.4266   0.1261
Ti20     Ti     0.9924   0.8816   0.3273
S21     S     0.9308   0.9312   0.1713
Ce22     Ce     0.263   0.803   0.4171
V23     V     0.9825   0.212   0.1279
H24     H     0.8271   0.7012   0.0752
loop_
_geom_bond_atom_site_label_1
_geom_bond_atom_site_label_2
_geom_bond_distance
_geom_bond_site_symmetry_2
_ccdc_geom_bond_type
Er1     H6    10.0   1_545     S
Er1     V5    10.0   .     S
Er1     Ti8    10.0   .     S
Ti2     S3    9.999   .     S
Ti2     Ce4    10.0   .     S
Ti2     Er7    10.0   .     S
S3     V5    10.0   .     S
S3     H6    10.0   .     S
Ce4     V11    10.0   1_655     S
Ce4     H24    10.0   1_556     S
V5     Ce10    10.0   .     S
H6     Er1    10.0   1_565     S
H6     Ce22    10.0   .     S
Er7     H12    10.0   .     S
Er7     V11    10.0   .     S
Ti8     S9    9.999   .     S
Ti8     Ce10    10.0   1_455     S
S9     V11    10.0   1_545     S
S9     H12    10.0   .     S
Ce10     Ti8    10.0   1_655     S
Ce10     H18    10.0   .     S
V11     Ce4    10.0   1_455     S
V11     S9    10.0   1_565     S
H12     Ce17    10.0   1_556     S
Er13     H18    10.0   1_565     S
Er13     V14    10.0   .     S
Er13     Ti20    10.0   .     S
V14     Ce22    10.0   .     S
V14     S16    10.0   .     S
Ti15     S16    9.999   .     S
Ti15     Ce17    10.0   .     S
Ti15     Er19    10.0   .     S
S16     H18    10.0   .     S
Ce17     V23    10.0   1_455     S
Ce17     H12    10.0   1_554     S
H18     Er13    10.0   1_545     S
Er19     H24    10.0   .     S
Er19     V23    10.0   .     S
Ti20     S21    9.999   .     S
Ti20     Ce22    10.0   1_655     S
S21     V23    10.0   1_565     S
S21     H24    10.0   .     S
Ce22     Ti20    10.0   1_455     S
V23     Ce17    10.0   1_655     S
V23     S21    10.0   1_545     S
H24     Ce4    10.0   1_554     S
