data_nox
_audit_creation_date              2020-02-02
_audit_creation_method            'Pymatgen'
_symmetry_space_group_name_H-M    'P1'
_symmetry_Int_Tables_number       1
loop_
_symmetry_equiv_pos_as_xyz
  x,y,z
_cell_length_a                    41.6869
_cell_length_b                    37.9506
_cell_length_c                    37.8663
_cell_angle_alpha                 90.0
_cell_angle_beta                 90.0
_cell_angle_gamma                 90.0
loop_
_atom_site_label
_atom_site_type_symbol
_atom_site_fract_x
_atom_site_fract_y
_atom_site_fract_z
V1     V     0.3801   0.9068   0.5934
V2     V     0.6199   0.9068   0.5934
V3     V     0.6199   0.0932   0.4066
V4     V     0.3801   0.0932   0.4066
V5     V     0.3801   0.4068   0.4066
V6     V     0.6199   0.4068   0.4066
V7     V     0.3801   0.5932   0.5934
V8     V     0.6199   0.5932   0.5934
V9     V     0.8801   0.9068   0.9066
V10     V     0.1199   0.9068   0.9066
V11     V     0.8801   0.0932   0.0934
V12     V     0.1199   0.0932   0.0934
V13     V     0.8801   0.5932   0.9066
V14     V     0.1199   0.5932   0.9066
V15     V     0.8801   0.4068   0.0934
V16     V     0.1199   0.4069   0.0934
Er17     Er     0.25   0.75   0.75
Er18     Er     0.75   0.75   0.75
Er19     Er     0.25   0.25   0.25
Er20     Er     0.75   0.25   0.25
loop_
_geom_bond_atom_site_label_1
_geom_bond_atom_site_label_2
_geom_bond_distance
_geom_bond_site_symmetry_2
_ccdc_geom_bond_type
V1     Er17    10.0   .     S
V1     V2    10.0   .     S
V1     V4    10.0   1_565     S
V2     Er18    10.0   .     S
V2     V3    10.0   1_565     S
V3     Er20    10.0   .     S
V3     V4    10.0   .     S
V3     V2    10.0   1_545     S
V4     Er19    10.0   .     S
V4     V1    10.0   1_545     S
V5     Er19    10.0   .     S
V5     V6    10.0   .     S
V5     V7    10.0   .     S
V6     Er20    10.0   .     S
V6     V8    10.0   .     S
V7     Er17    10.0   .     S
V7     V8    10.0   .     S
V8     Er18    10.0   .     S
V9     Er18    10.0   .     S
V9     V10    10.0   1_655     S
V9     V11    10.0   1_566     S
V10     Er17    10.0   .     S
V10     V9    10.0   1_455     S
V10     V12    10.0   1_566     S
V11     Er20    10.0   .     S
V11     V12    10.0   1_655     S
V11     V9    10.0   1_544     S
V12     Er19    10.0   .     S
V12     V11    10.0   1_455     S
V12     V10    10.0   1_544     S
V13     Er18    10.0   .     S
V13     V14    10.0   1_655     S
V13     V15    10.0   1_556     S
V14     Er17    10.0   .     S
V14     V13    10.0   1_455     S
V14     V16    10.0   1_556     S
V15     V13    10.0   1_554     S
V15     Er20    10.0   .     S
V15     V16    10.0   1_655     S
V16     Er19    10.0   .     S
V16     V15    10.0   1_455     S
V16     V14    10.0   1_554     S
