data_ntn
_audit_creation_date              2020-02-02
_audit_creation_method            'Pymatgen'
_symmetry_space_group_name_H-M    'P1'
_symmetry_Int_Tables_number       1
loop_
_symmetry_equiv_pos_as_xyz
  x,y,z
_cell_length_a                    41.683
_cell_length_b                    28.64
_cell_length_c                    28.4937
_cell_angle_alpha                 90.0
_cell_angle_beta                 108.7673
_cell_angle_gamma                 90.0
loop_
_atom_site_label
_atom_site_type_symbol
_atom_site_fract_x
_atom_site_fract_y
_atom_site_fract_z
V1     V     0.4468   0.0531   0.2444
V2     V     0.0532   0.0531   0.7556
Ti3     Ti     0.0518   0.7346   0.0561
Ti4     Ti     0.4482   0.7346   0.9439
Er5     Er     0.25   0.8933   0.0
V6     V     0.5532   0.5531   0.2556
Ti7     Ti     0.5518   0.2346   0.5561
Ti8     Ti     0.9482   0.2346   0.4439
Er9     Er     0.75   0.3933   0.5
V10     V     0.9468   0.5531   0.7444
V11     V     0.0532   0.4469   0.2556
V12     V     0.4468   0.4469   0.7444
Ti13     Ti     0.4482   0.7654   0.4439
Ti14     Ti     0.0518   0.7654   0.5561
Er15     Er     0.25   0.6067   0.5
V16     V     0.9468   0.9469   0.2444
V17     V     0.5532   0.9469   0.7556
Ti18     Ti     0.5518   0.2654   0.0561
Ti19     Ti     0.9482   0.2654   0.9439
Er20     Er     0.75   0.1067   0.0
loop_
_geom_bond_atom_site_label_1
_geom_bond_atom_site_label_2
_geom_bond_distance
_geom_bond_site_symmetry_2
_ccdc_geom_bond_type
V1     Ti18    10.0   .     S
V1     Er5    10.0   1_545     S
V1     Ti7    10.0   .     S
V1     Ti13    10.0   1_545     S
V2     Ti19    10.0   1_455     S
V2     Er5    10.0   1_546     S
V2     Ti8    10.0   1_455     S
V2     Ti14    10.0   1_545     S
Ti3     V11    10.0   .     S
Ti3     Er5    10.0   .     S
Ti3     V10    10.0   1_454     S
Ti3     V16    10.0   1_455     S
Ti4     V12    10.0   .     S
Ti4     Er5    10.0   1_556     S
Ti4     V6    10.0   1_556     S
Ti4     V17    10.0   .     S
Er5     Ti4    10.0   1_554     S
Er5     V1    10.0   1_565     S
Er5     V2    10.0   1_564     S
V6     Ti4    10.0   1_554     S
V6     Ti13    10.0   .     S
V6     Er9    10.0   .     S
V6     Ti18    10.0   .     S
Ti7     V17    10.0   1_545     S
Ti7     Er9    10.0   .     S
Ti7     V12    10.0   .     S
Ti8     V16    10.0   1_545     S
Ti8     Er9    10.0   .     S
Ti8     V2    10.0   1_655     S
Ti8     V11    10.0   1_655     S
Er9     V10    10.0   .     S
V10     Ti3    10.0   1_656     S
V10     Ti14    10.0   1_655     S
V10     Ti19    10.0   .     S
V11     Ti8    10.0   1_455     S
V11     Er15    10.0   .     S
V11     Ti19    10.0   1_454     S
V12     Er15    10.0   .     S
V12     Ti18    10.0   1_556     S
Ti13     V1    10.0   1_565     S
Ti13     Er15    10.0   .     S
Ti13     V17    10.0   .     S
Ti14     V10    10.0   1_455     S
Ti14     V2    10.0   1_565     S
Ti14     Er15    10.0   .     S
Ti14     V16    10.0   1_455     S
V16     Ti8    10.0   1_565     S
V16     Ti14    10.0   1_655     S
V16     Ti3    10.0   1_655     S
V16     Er20    10.0   1_565     S
V17     Ti7    10.0   1_565     S
V17     Er20    10.0   1_566     S
Ti18     Er20    10.0   .     S
Ti18     V12    10.0   1_554     S
Ti19     V2    10.0   1_655     S
Ti19     Er20    10.0   1_556     S
Ti19     V11    10.0   1_656     S
Er20     Ti19    10.0   1_554     S
Er20     V16    10.0   1_545     S
Er20     V17    10.0   1_544     S
