data_ntt
_audit_creation_date              2020-02-02
_audit_creation_method            'Pymatgen'
_symmetry_space_group_name_H-M    'P1'
_symmetry_Int_Tables_number       1
loop_
_symmetry_equiv_pos_as_xyz
  x,y,z
_cell_length_a                    73.4847
_cell_length_b                    73.4847
_cell_length_c                    73.4847
_cell_angle_alpha                 90.0
_cell_angle_beta                 90.0
_cell_angle_gamma                 90.0
loop_
_atom_site_label
_atom_site_type_symbol
_atom_site_fract_x
_atom_site_fract_y
_atom_site_fract_z
Er1     Er     0.3333   0.3333   0.3333
Er2     Er     0.1667   0.3333   0.1667
Er3     Er     0.3333   0.1667   0.1667
Er4     Er     0.1667   0.1667   0.3333
Er5     Er     0.1667   0.6667   0.1667
Er6     Er     0.6667   0.1667   0.1667
Er7     Er     0.1667   0.8333   0.3333
Er8     Er     0.6667   0.3333   0.3333
Er9     Er     0.3333   0.3333   0.6667
Er10     Er     0.3333   0.6667   0.3333
Er11     Er     0.8333   0.1667   0.3333
Er12     Er     0.1667   0.1667   0.6667
Er13     Er     0.3333   0.8333   0.1667
Er14     Er     0.3333   0.1667   0.8333
Er15     Er     0.1667   0.3333   0.8333
Er16     Er     0.8333   0.3333   0.1667
Er17     Er     0.6667   0.1667   0.8333
Er18     Er     0.1667   0.6667   0.8333
Er19     Er     0.6667   0.6667   0.3333
Er20     Er     0.6667   0.3333   0.6667
Er21     Er     0.1667   0.8333   0.6667
Er22     Er     0.6667   0.8333   0.1667
Er23     Er     0.6667   0.6667   0.6667
Er24     Er     0.8333   0.1667   0.6667
Er25     Er     0.3333   0.6667   0.6667
Er26     Er     0.8333   0.6667   0.1667
Er27     Er     0.6667   0.8333   0.8333
Er28     Er     0.8333   0.3333   0.8333
Ti29     Ti     0.6111   0.2778   0.8889
Ti30     Ti     0.2778   0.6111   0.8889
Ti31     Ti     0.3889   0.2778   0.8889
Ti32     Ti     0.2778   0.3889   0.8889
Ti33     Ti     0.3889   0.2778   0.1111
Ti34     Ti     0.2778   0.3889   0.1111
V35     V     0.3333   0.3333   0.0
Ti36     Ti     0.6111   0.6111   0.2222
Ti37     Ti     0.6111   0.3889   0.2222
Ti38     Ti     0.3889   0.3889   0.2222
Ti39     Ti     0.3889   0.6111   0.2222
V40     V     0.3333   0.5   0.1667
V41     V     0.5   0.3333   0.1667
Ti42     Ti     0.6111   0.7222   0.8889
Ti43     Ti     0.6111   0.3889   0.7778
Ti44     Ti     0.3889   0.3889   0.7778
Ti45     Ti     0.3889   0.6111   0.7778
V46     V     0.3333   0.5   0.8333
V47     V     0.5   0.3333   0.8333
Ti48     Ti     0.6111   0.6111   0.7778
Ti49     Ti     0.7222   0.3889   0.8889
Ti50     Ti     0.6111   0.2778   0.1111
Ti51     Ti     0.7222   0.3889   0.1111
V52     V     0.6667   0.3333   0.0
Ti53     Ti     0.2778   0.6111   0.1111
Ti54     Ti     0.3889   0.7222   0.8889
Ti55     Ti     0.3889   0.7222   0.1111
V56     V     0.3333   0.6667   0.0
Ti57     Ti     0.7222   0.6111   0.1111
Ti58     Ti     0.6111   0.7222   0.1111
V59     V     0.6667   0.6667   0.0
V60     V     0.5   0.6667   0.1667
V61     V     0.6667   0.5   0.1667
Ti62     Ti     0.7222   0.6111   0.8889
V63     V     0.6667   0.5   0.8333
V64     V     0.5   0.6667   0.8333
Er65     Er     0.8333   0.6667   0.8333
Er66     Er     0.3333   0.8333   0.8333
Ti67     Ti     0.2778   0.8889   0.6111
Ti68     Ti     0.6111   0.8889   0.2778
Ti69     Ti     0.6111   0.2222   0.6111
Ti70     Ti     0.2778   0.8889   0.3889
Ti71     Ti     0.3889   0.8889   0.2778
Ti72     Ti     0.2778   0.1111   0.3889
Ti73     Ti     0.3889   0.1111   0.2778
V74     V     0.3333   0.0   0.3333
Ti75     Ti     0.3889   0.2222   0.6111
Ti76     Ti     0.3889   0.2222   0.3889
Ti77     Ti     0.6111   0.2222   0.3889
V78     V     0.5   0.1667   0.3333
V79     V     0.3333   0.1667   0.5
Ti80     Ti     0.3889   0.7778   0.6111
Ti81     Ti     0.3889   0.7778   0.3889
Ti82     Ti     0.6111   0.7778   0.3889
V83     V     0.5   0.8333   0.3333
V84     V     0.3333   0.8333   0.5
Ti85     Ti     0.6111   0.7778   0.6111
Ti86     Ti     0.6111   0.8889   0.7222
Ti87     Ti     0.7222   0.8889   0.6111
Ti88     Ti     0.2778   0.1111   0.6111
Ti89     Ti     0.3889   0.8889   0.7222
Ti90     Ti     0.3889   0.1111   0.7222
V91     V     0.3333   0.0   0.6667
Ti92     Ti     0.7222   0.8889   0.3889
Ti93     Ti     0.6111   0.1111   0.2778
Ti94     Ti     0.7222   0.1111   0.3889
V95     V     0.6667   0.0   0.3333
Ti96     Ti     0.6111   0.1111   0.7222
Ti97     Ti     0.7222   0.1111   0.6111
V98     V     0.6667   0.0   0.6667
V99     V     0.5   0.1667   0.6667
V100     V     0.6667   0.1667   0.5
V101     V     0.5   0.8333   0.6667
V102     V     0.6667   0.8333   0.5
Ti103     Ti     0.8889   0.2778   0.6111
Ti104     Ti     0.8889   0.6111   0.2778
Ti105     Ti     0.8889   0.3889   0.2778
Ti106     Ti     0.8889   0.2778   0.3889
Ti107     Ti     0.1111   0.3889   0.2778
Ti108     Ti     0.1111   0.2778   0.3889
V109     V     0.0   0.3333   0.3333
Ti110     Ti     0.2222   0.6111   0.6111
Ti111     Ti     0.2222   0.6111   0.3889
Ti112     Ti     0.2222   0.3889   0.6111
Ti113     Ti     0.2222   0.3889   0.3889
V114     V     0.1667   0.5   0.3333
V115     V     0.1667   0.3333   0.5
Ti116     Ti     0.7778   0.6111   0.6111
Ti117     Ti     0.7778   0.6111   0.3889
Ti118     Ti     0.7778   0.3889   0.3889
Ti119     Ti     0.7778   0.3889   0.6111
V120     V     0.8333   0.3333   0.5
V121     V     0.8333   0.5   0.3333
Ti122     Ti     0.8889   0.6111   0.7222
Ti123     Ti     0.8889   0.7222   0.6111
Ti124     Ti     0.8889   0.7222   0.3889
Ti125     Ti     0.1111   0.6111   0.2778
Ti126     Ti     0.1111   0.7222   0.3889
V127     V     0.0   0.6667   0.3333
Ti128     Ti     0.1111   0.2778   0.6111
Ti129     Ti     0.8889   0.3889   0.7222
Ti130     Ti     0.1111   0.3889   0.7222
V131     V     0.0   0.3333   0.6667
Ti132     Ti     0.1111   0.7222   0.6111
Ti133     Ti     0.1111   0.6111   0.7222
V134     V     0.0   0.6667   0.6667
V135     V     0.1667   0.5   0.6667
V136     V     0.1667   0.6667   0.5
V137     V     0.8333   0.5   0.6667
V138     V     0.8333   0.6667   0.5
Er139     Er     0.8333   0.8333   0.6667
Er140     Er     0.8333   0.8333   0.3333
Ti141     Ti     0.8889   0.2222   0.8889
Ti142     Ti     0.2222   0.8889   0.8889
Ti143     Ti     0.8889   0.8889   0.2222
Ti144     Ti     0.7778   0.8889   0.8889
Ti145     Ti     0.8889   0.7778   0.8889
Ti146     Ti     0.8889   0.8889   0.7778
Ti147     Ti     0.1111   0.2222   0.1111
Ti148     Ti     0.2222   0.1111   0.1111
Ti149     Ti     0.1111   0.1111   0.2222
V150     V     0.0   0.1667   0.1667
V151     V     0.1667   0.0   0.1667
V152     V     0.1667   0.1667   0.0
Ti153     Ti     0.8889   0.7778   0.1111
Ti154     Ti     0.7778   0.8889   0.1111
V155     V     0.8333   0.8333   0.0
Ti156     Ti     0.8889   0.2222   0.1111
Ti157     Ti     0.8889   0.1111   0.2222
Ti158     Ti     0.7778   0.1111   0.1111
V159     V     0.8333   0.1667   0.0
V160     V     0.8333   0.0   0.1667
Ti161     Ti     0.7778   0.1111   0.8889
Ti162     Ti     0.8889   0.1111   0.7778
V163     V     0.8333   0.0   0.8333
Ti164     Ti     0.2222   0.1111   0.8889
Ti165     Ti     0.1111   0.2222   0.8889
Ti166     Ti     0.1111   0.1111   0.7778
V167     V     0.1667   0.0   0.8333
V168     V     0.0   0.1667   0.8333
Ti169     Ti     0.1111   0.8889   0.7778
Ti170     Ti     0.1111   0.7778   0.8889
V171     V     0.0   0.8333   0.8333
Ti172     Ti     0.2222   0.8889   0.1111
Ti173     Ti     0.1111   0.8889   0.2222
Ti174     Ti     0.1111   0.7778   0.1111
V175     V     0.0   0.8333   0.1667
V176     V     0.1667   0.8333   0.0
loop_
_geom_bond_atom_site_label_1
_geom_bond_atom_site_label_2
_geom_bond_distance
_geom_bond_site_symmetry_2
_ccdc_geom_bond_type
Er1     Ti113    10.0   .     S
Er1     Ti76    10.0   .     S
Er1     Ti38    10.0   .     S
Er2     Ti107    10.0   .     S
Er2     Ti34    10.0   .     S
Er2     Ti147    10.0   .     S
Er3     Ti73    10.0   .     S
Er3     Ti33    10.0   .     S
Er3     Ti148    10.0   .     S
Er4     Ti108    10.0   .     S
Er4     Ti72    10.0   .     S
Er4     Ti149    10.0   .     S
Er5     Ti53    10.0   .     S
Er5     Ti125    10.0   .     S
Er5     Ti174    10.0   .     S
Er6     Ti50    10.0   .     S
Er6     Ti93    10.0   .     S
Er6     Ti158    10.0   .     S
Er7     Ti70    10.0   .     S
Er7     Ti126    10.0   .     S
Er7     Ti173    10.0   .     S
Er8     Ti118    10.0   .     S
Er8     Ti77    10.0   .     S
Er8     Ti37    10.0   .     S
Er9     Ti44    10.0   .     S
Er9     Ti112    10.0   .     S
Er9     Ti75    10.0   .     S
Er10     Ti81    10.0   .     S
Er10     Ti111    10.0   .     S
Er10     Ti39    10.0   .     S
Er11     Ti106    10.0   .     S
Er11     Ti94    10.0   .     S
Er11     Ti157    10.0   .     S
Er12     Ti128    10.0   .     S
Er12     Ti88    10.0   .     S
Er12     Ti166    10.0   .     S
Er13     Ti71    10.0   .     S
Er13     Ti55    10.0   .     S
Er13     Ti172    10.0   .     S
Er14     Ti31    10.0   .     S
Er14     Ti90    10.0   .     S
Er14     Ti164    10.0   .     S
Er15     Ti32    10.0   .     S
Er15     Ti130    10.0   .     S
Er15     Ti165    10.0   .     S
Er16     Ti105    10.0   .     S
Er16     Ti51    10.0   .     S
Er16     Ti156    10.0   .     S
Er17     Ti29    10.0   .     S
Er17     Ti161    10.0   .     S
Er17     Ti96    10.0   .     S
Er18     Ti30    10.0   .     S
Er18     Ti170    10.0   .     S
Er18     Ti133    10.0   .     S
Er19     Ti117    10.0   .     S
Er19     Ti82    10.0   .     S
Er19     Ti36    10.0   .     S
Er20     Ti119    10.0   .     S
Er20     Ti43    10.0   .     S
Er20     Ti69    10.0   .     S
Er21     Ti67    10.0   .     S
Er21     Ti169    10.0   .     S
Er21     Ti132    10.0   .     S
Er22     Ti68    10.0   .     S
Er22     Ti154    10.0   .     S
Er22     Ti58    10.0   .     S
Er23     Ti116    10.0   .     S
Er23     Ti85    10.0   .     S
Er23     Ti48    10.0   .     S
Er24     Ti103    10.0   .     S
Er24     Ti162    10.0   .     S
Er24     Ti97    10.0   .     S
Er25     Ti80    10.0   .     S
Er25     Ti45    10.0   .     S
Er25     Ti110    10.0   .     S
Er26     Ti104    10.0   .     S
Er26     Ti153    10.0   .     S
Er26     Ti57    10.0   .     S
Er27     Ti144    10.0   .     S
Er27     Ti86    10.0   .     S
Er27     Ti42    10.0   .     S
Er28     Ti129    10.0   .     S
Er28     Ti49    10.0   .     S
Er28     Ti141    10.0   .     S
Ti29     V52    10.0   1_556     S
Ti29     V47    10.0   .     S
Ti30     V46    10.0   .     S
Ti30     V56    10.0   1_556     S
Ti31     V47    10.0   .     S
Ti31     V35    10.0   1_556     S
Ti32     V46    10.0   .     S
Ti32     V35    10.0   1_556     S
Ti33     V41    10.0   .     S
Ti33     V35    10.0   .     S
Ti34     V40    10.0   .     S
Ti34     V35    10.0   .     S
V35     Ti31    10.0   1_554     S
V35     Ti32    10.0   1_554     S
Ti36     V60    10.0   .     S
Ti36     V61    10.0   .     S
Ti37     V61    10.0   .     S
Ti37     V41    10.0   .     S
Ti38     V40    10.0   .     S
Ti38     V41    10.0   .     S
Ti39     V60    10.0   .     S
Ti39     V40    10.0   .     S
V40     Ti53    10.0   .     S
V41     Ti50    10.0   .     S
Ti42     V64    10.0   .     S
Ti42     V59    10.0   1_556     S
Ti43     V63    10.0   .     S
Ti43     V47    10.0   .     S
Ti44     V46    10.0   .     S
Ti44     V47    10.0   .     S
Ti45     V64    10.0   .     S
Ti45     V46    10.0   .     S
Ti48     V63    10.0   .     S
Ti48     V64    10.0   .     S
Ti49     V63    10.0   .     S
Ti49     V52    10.0   1_556     S
Ti50     V52    10.0   .     S
Ti51     V61    10.0   .     S
Ti51     V52    10.0   .     S
V52     Ti29    10.0   1_554     S
V52     Ti49    10.0   1_554     S
Ti53     V56    10.0   .     S
Ti54     V64    10.0   .     S
Ti54     V56    10.0   1_556     S
Ti54     Er66    10.0   .     S
Ti55     V60    10.0   .     S
Ti55     V56    10.0   .     S
V56     Ti30    10.0   1_554     S
V56     Ti54    10.0   1_554     S
Ti57     V59    10.0   .     S
Ti57     V61    10.0   .     S
Ti58     V59    10.0   .     S
Ti58     V60    10.0   .     S
V59     Ti42    10.0   1_554     S
V59     Ti62    10.0   1_554     S
Ti62     V59    10.0   1_556     S
Ti62     V63    10.0   .     S
Ti62     Er65    10.0   .     S
Er65     Ti145    10.0   .     S
Er65     Ti122    10.0   .     S
Er66     Ti89    10.0   .     S
Er66     Ti142    10.0   .     S
Ti67     V91    10.0   1_565     S
Ti67     V84    10.0   .     S
Ti68     V83    10.0   .     S
Ti68     V95    10.0   1_565     S
Ti69     V100    10.0   .     S
Ti69     V99    10.0   .     S
Ti70     V84    10.0   .     S
Ti70     V74    10.0   1_565     S
Ti71     V83    10.0   .     S
Ti71     V74    10.0   1_565     S
Ti72     V79    10.0   .     S
Ti72     V74    10.0   .     S
Ti73     V78    10.0   .     S
Ti73     V74    10.0   .     S
V74     Ti70    10.0   1_545     S
V74     Ti71    10.0   1_545     S
Ti75     V99    10.0   .     S
Ti75     V79    10.0   .     S
Ti76     V78    10.0   .     S
Ti76     V79    10.0   .     S
Ti77     V100    10.0   .     S
Ti77     V78    10.0   .     S
V78     Ti93    10.0   .     S
V79     Ti88    10.0   .     S
Ti80     V101    10.0   .     S
Ti80     V84    10.0   .     S
Ti81     V83    10.0   .     S
Ti81     V84    10.0   .     S
Ti82     V102    10.0   .     S
Ti82     V83    10.0   .     S
Ti85     V101    10.0   .     S
Ti85     V102    10.0   .     S
Ti86     V98    10.0   1_565     S
Ti86     V101    10.0   .     S
Ti87     V102    10.0   .     S
Ti87     V98    10.0   1_565     S
Ti87     Er139    10.0   .     S
Ti88     V91    10.0   .     S
Ti89     V101    10.0   .     S
Ti89     V91    10.0   1_565     S
Ti90     V99    10.0   .     S
Ti90     V91    10.0   .     S
V91     Ti67    10.0   1_545     S
V91     Ti89    10.0   1_545     S
Ti92     V102    10.0   .     S
Ti92     V95    10.0   1_565     S
Ti92     Er140    10.0   .     S
Ti93     V95    10.0   .     S
Ti94     V100    10.0   .     S
Ti94     V95    10.0   .     S
V95     Ti68    10.0   1_545     S
V95     Ti92    10.0   1_545     S
Ti96     V98    10.0   .     S
Ti96     V99    10.0   .     S
Ti97     V98    10.0   .     S
Ti97     V100    10.0   .     S
V98     Ti86    10.0   1_545     S
V98     Ti87    10.0   1_545     S
Ti103     V120    10.0   .     S
Ti103     V131    10.0   1_655     S
Ti104     V127    10.0   1_655     S
Ti104     V121    10.0   .     S
Ti105     V121    10.0   .     S
Ti105     V109    10.0   1_655     S
Ti106     V120    10.0   .     S
Ti106     V109    10.0   1_655     S
Ti107     V114    10.0   .     S
Ti107     V109    10.0   .     S
Ti108     V115    10.0   .     S
Ti108     V109    10.0   .     S
V109     Ti105    10.0   1_455     S
V109     Ti106    10.0   1_455     S
Ti110     V135    10.0   .     S
Ti110     V136    10.0   .     S
Ti111     V136    10.0   .     S
Ti111     V114    10.0   .     S
Ti112     V135    10.0   .     S
Ti112     V115    10.0   .     S
Ti113     V114    10.0   .     S
Ti113     V115    10.0   .     S
V114     Ti125    10.0   .     S
V115     Ti128    10.0   .     S
Ti116     V138    10.0   .     S
Ti116     V137    10.0   .     S
Ti117     V138    10.0   .     S
Ti117     V121    10.0   .     S
Ti118     V120    10.0   .     S
Ti118     V121    10.0   .     S
Ti119     V137    10.0   .     S
Ti119     V120    10.0   .     S
Ti122     V137    10.0   .     S
Ti122     V134    10.0   1_655     S
Ti123     V134    10.0   1_655     S
Ti123     V138    10.0   .     S
Ti123     Er139    10.0   .     S
Ti124     V138    10.0   .     S
Ti124     V127    10.0   1_655     S
Ti124     Er140    10.0   .     S
Ti125     V127    10.0   .     S
Ti126     V136    10.0   .     S
Ti126     V127    10.0   .     S
V127     Ti104    10.0   1_455     S
V127     Ti124    10.0   1_455     S
Ti128     V131    10.0   .     S
Ti129     V137    10.0   .     S
Ti129     V131    10.0   1_655     S
Ti130     V135    10.0   .     S
Ti130     V131    10.0   .     S
V131     Ti103    10.0   1_455     S
V131     Ti129    10.0   1_455     S
Ti132     V134    10.0   .     S
Ti132     V136    10.0   .     S
Ti133     V134    10.0   .     S
Ti133     V135    10.0   .     S
V134     Ti122    10.0   1_455     S
V134     Ti123    10.0   1_455     S
Er139     Ti146    10.0   .     S
Er140     Ti143    10.0   .     S
Ti141     V159    10.0   1_556     S
Ti141     V168    10.0   1_655     S
Ti142     V167    10.0   1_565     S
Ti142     V176    10.0   1_556     S
Ti143     V175    10.0   1_655     S
Ti143     V160    10.0   1_565     S
Ti144     V155    10.0   1_556     S
Ti144     V163    10.0   1_565     S
Ti145     V171    10.0   1_655     S
Ti145     V155    10.0   1_556     S
Ti146     V163    10.0   1_565     S
Ti146     V171    10.0   1_655     S
Ti147     V152    10.0   .     S
Ti147     V150    10.0   .     S
Ti148     V151    10.0   .     S
Ti148     V152    10.0   .     S
Ti149     V150    10.0   .     S
Ti149     V151    10.0   .     S
V150     Ti156    10.0   1_455     S
V150     Ti157    10.0   1_455     S
V151     Ti172    10.0   1_545     S
V151     Ti173    10.0   1_545     S
V152     Ti164    10.0   1_554     S
V152     Ti165    10.0   1_554     S
Ti153     V155    10.0   .     S
Ti153     V175    10.0   1_655     S
Ti154     V155    10.0   .     S
Ti154     V160    10.0   1_565     S
V155     Ti144    10.0   1_554     S
V155     Ti145    10.0   1_554     S
Ti156     V159    10.0   .     S
Ti156     V150    10.0   1_655     S
Ti157     V160    10.0   .     S
Ti157     V150    10.0   1_655     S
Ti158     V159    10.0   .     S
Ti158     V160    10.0   .     S
V159     Ti141    10.0   1_554     S
V159     Ti161    10.0   1_554     S
V160     Ti143    10.0   1_545     S
V160     Ti154    10.0   1_545     S
Ti161     V163    10.0   .     S
Ti161     V159    10.0   1_556     S
Ti162     V163    10.0   .     S
Ti162     V168    10.0   1_655     S
V163     Ti144    10.0   1_545     S
V163     Ti146    10.0   1_545     S
Ti164     V167    10.0   .     S
Ti164     V152    10.0   1_556     S
Ti165     V168    10.0   .     S
Ti165     V152    10.0   1_556     S
Ti166     V167    10.0   .     S
Ti166     V168    10.0   .     S
V167     Ti142    10.0   1_545     S
V167     Ti169    10.0   1_545     S
V168     Ti141    10.0   1_455     S
V168     Ti162    10.0   1_455     S
Ti169     V171    10.0   .     S
Ti169     V167    10.0   1_565     S
Ti170     V171    10.0   .     S
Ti170     V176    10.0   1_556     S
V171     Ti145    10.0   1_455     S
V171     Ti146    10.0   1_455     S
Ti172     V176    10.0   .     S
Ti172     V151    10.0   1_565     S
Ti173     V175    10.0   .     S
Ti173     V151    10.0   1_565     S
Ti174     V175    10.0   .     S
Ti174     V176    10.0   .     S
V175     Ti143    10.0   1_455     S
V175     Ti153    10.0   1_455     S
V176     Ti142    10.0   1_554     S
V176     Ti170    10.0   1_554     S
