data_ntua
_audit_creation_date              2020-02-02
_audit_creation_method            'Pymatgen'
_symmetry_space_group_name_H-M    'P1'
_symmetry_Int_Tables_number       1
loop_
_symmetry_equiv_pos_as_xyz
  x,y,z
_cell_length_a                    105.3015
_cell_length_b                    105.3015
_cell_length_c                    105.3015
_cell_angle_alpha                 90.0
_cell_angle_beta                 90.0
_cell_angle_gamma                 90.0
loop_
_atom_site_label
_atom_site_type_symbol
_atom_site_fract_x
_atom_site_fract_y
_atom_site_fract_z
Er1     Er     0.6023   0.6023   0.6023
Er2     Er     0.6023   0.8977   0.8977
Er3     Er     0.8977   0.6023   0.8977
Ti4     Ti     0.6247   0.6247   0.6919
Ce5     Ce     0.6634   0.6634   0.7695
Ti6     Ti     0.6247   0.6919   0.6247
Ce7     Ce     0.6634   0.7695   0.6634
Ti8     Ti     0.6247   0.8082   0.8753
Ce9     Ce     0.6634   0.7305   0.8366
Ce10     Ce     0.6634   0.8366   0.7305
Ti11     Ti     0.6247   0.8753   0.8082
Ti12     Ti     0.6919   0.6247   0.6247
Ce13     Ce     0.7695   0.6634   0.6634
Ti14     Ti     0.8082   0.6247   0.8753
Ce15     Ce     0.7305   0.6634   0.8366
Ce16     Ce     0.8366   0.6634   0.7305
Ti17     Ti     0.8753   0.6247   0.8082
Ti18     Ti     0.6919   0.8753   0.8753
Ce19     Ce     0.7695   0.8366   0.8366
Ti20     Ti     0.8753   0.6919   0.8753
Ce21     Ce     0.8366   0.7695   0.8366
Ti22     Ti     0.8753   0.8753   0.6919
Ce23     Ce     0.8366   0.8366   0.7695
Ti24     Ti     0.8082   0.8753   0.6247
Ce25     Ce     0.7305   0.8366   0.6634
Ti26     Ti     0.8753   0.8082   0.6247
Ce27     Ce     0.8366   0.7305   0.6634
Er28     Er     0.8977   0.8977   0.6023
Er29     Er     0.6023   0.3977   0.6023
Er30     Er     0.6023   0.1023   0.8977
Er31     Er     0.8977   0.1023   0.6023
Ti32     Ti     0.8753   0.3082   0.8753
Ce33     Ce     0.8366   0.2305   0.8366
Ti34     Ti     0.6247   0.3753   0.6919
Ce35     Ce     0.6634   0.3366   0.7695
Ti36     Ti     0.6919   0.3753   0.6247
Ce37     Ce     0.7695   0.3366   0.6634
Ti38     Ti     0.8082   0.3753   0.8753
Ce39     Ce     0.7305   0.3366   0.8366
Ti40     Ti     0.8753   0.3753   0.8082
Ce41     Ce     0.8366   0.3366   0.7305
Ti42     Ti     0.6247   0.3082   0.6247
Ce43     Ce     0.6634   0.2305   0.6634
Ti44     Ti     0.6919   0.1247   0.8753
Ce45     Ce     0.7695   0.1634   0.8366
Ti46     Ti     0.8753   0.1247   0.6919
Ce47     Ce     0.8366   0.1634   0.7695
Ti48     Ti     0.6247   0.1918   0.8753
Ce49     Ce     0.6634   0.2695   0.8366
Ti50     Ti     0.8753   0.1918   0.6247
Ce51     Ce     0.8366   0.2695   0.6634
Ti52     Ti     0.6247   0.1247   0.8082
Ce53     Ce     0.6634   0.1634   0.7305
Ti54     Ti     0.8082   0.1247   0.6247
Ce55     Ce     0.7305   0.1634   0.6634
Er56     Er     0.8977   0.3977   0.8977
Er57     Er     0.3977   0.6023   0.6023
Er58     Er     0.1023   0.6023   0.8977
Er59     Er     0.1023   0.8977   0.6023
Ti60     Ti     0.3082   0.8753   0.8753
Ce61     Ce     0.2305   0.8366   0.8366
Ti62     Ti     0.3753   0.6247   0.6919
Ce63     Ce     0.3366   0.6634   0.7695
Ti64     Ti     0.3753   0.6919   0.6247
Ce65     Ce     0.3366   0.7695   0.6634
Ti66     Ti     0.3753   0.8082   0.8753
Ce67     Ce     0.3366   0.7305   0.8366
Ti68     Ti     0.3753   0.8753   0.8082
Ce69     Ce     0.3366   0.8366   0.7305
Ti70     Ti     0.3082   0.6247   0.6247
Ce71     Ce     0.2305   0.6634   0.6634
Ti72     Ti     0.1247   0.6919   0.8753
Ce73     Ce     0.1634   0.7695   0.8366
Ti74     Ti     0.1247   0.8753   0.6919
Ce75     Ce     0.1634   0.8366   0.7695
Ti76     Ti     0.1918   0.6247   0.8753
Ce77     Ce     0.2695   0.6634   0.8366
Ti78     Ti     0.1918   0.8753   0.6247
Ce79     Ce     0.2695   0.8366   0.6634
Ti80     Ti     0.1247   0.6247   0.8082
Ce81     Ce     0.1634   0.6634   0.7305
Ti82     Ti     0.1247   0.8082   0.6247
Ce83     Ce     0.1634   0.7305   0.6634
Er84     Er     0.3977   0.8977   0.8977
Er85     Er     0.6023   0.6023   0.3977
Er86     Er     0.8977   0.6023   0.1023
Er87     Er     0.6023   0.8977   0.1023
Ti88     Ti     0.8753   0.8753   0.3082
Ce89     Ce     0.8366   0.8366   0.2305
Ti90     Ti     0.6247   0.6919   0.3753
Ce91     Ce     0.6634   0.7695   0.3366
Ti92     Ti     0.6919   0.6247   0.3753
Ce93     Ce     0.7695   0.6634   0.3366
Ti94     Ti     0.8082   0.8753   0.3753
Ce95     Ce     0.7305   0.8366   0.3366
Ti96     Ti     0.8753   0.8082   0.3753
Ce97     Ce     0.8366   0.7305   0.3366
Ti98     Ti     0.6247   0.6247   0.3082
Ce99     Ce     0.6634   0.6634   0.2305
Ti100     Ti     0.8753   0.6919   0.1247
Ce101     Ce     0.8366   0.7695   0.1634
Ti102     Ti     0.6919   0.8753   0.1247
Ce103     Ce     0.7695   0.8366   0.1634
Ti104     Ti     0.6247   0.8753   0.1918
Ce105     Ce     0.6634   0.8366   0.2695
Ti106     Ti     0.8753   0.6247   0.1918
Ce107     Ce     0.8366   0.6634   0.2695
Ti108     Ti     0.6247   0.8082   0.1247
Ce109     Ce     0.6634   0.7305   0.1634
Ti110     Ti     0.8082   0.6247   0.1247
Ce111     Ce     0.7305   0.6634   0.1634
Er112     Er     0.8977   0.8977   0.3977
V113     V     0.9525   0.9525   0.4525
V114     V     0.9525   0.0475   0.4525
V115     V     0.0475   0.9525   0.4525
V116     V     0.0475   0.0475   0.4525
V117     V     0.9525   0.0475   0.5475
V118     V     0.0475   0.0475   0.5475
V119     V     0.9525   0.9525   0.5475
V120     V     0.0475   0.9525   0.5475
V121     V     0.9525   0.4525   0.9525
V122     V     0.9525   0.4525   0.0475
V123     V     0.0475   0.4525   0.9525
V124     V     0.0475   0.4525   0.0475
V125     V     0.9525   0.5475   0.0475
V126     V     0.9525   0.5475   0.9525
V127     V     0.0475   0.5475   0.9525
V128     V     0.0475   0.5475   0.0475
V129     V     0.4525   0.9525   0.0475
V130     V     0.4525   0.9525   0.9525
V131     V     0.4525   0.0475   0.9525
V132     V     0.4525   0.0475   0.0475
V133     V     0.5475   0.9525   0.0475
V134     V     0.5475   0.9525   0.9525
V135     V     0.5475   0.0475   0.9525
V136     V     0.5475   0.0475   0.0475
Er137     Er     0.1023   0.1023   0.6023
Er138     Er     0.3977   0.1023   0.8977
Er139     Er     0.1023   0.3977   0.8977
Ti140     Ti     0.3753   0.3753   0.6919
Ce141     Ce     0.3366   0.3366   0.7695
Ti142     Ti     0.1918   0.1247   0.6247
Ce143     Ce     0.2695   0.1634   0.6634
Ti144     Ti     0.3753   0.1918   0.8753
Ce145     Ce     0.3366   0.2695   0.8366
Ti146     Ti     0.3753   0.1247   0.8082
Ce147     Ce     0.3366   0.1634   0.7305
Ti148     Ti     0.3082   0.1247   0.8753
Ce149     Ce     0.2305   0.1634   0.8366
Ti150     Ti     0.1247   0.1247   0.6919
Ce151     Ce     0.1634   0.1634   0.7695
Ti152     Ti     0.1247   0.1918   0.6247
Ce153     Ce     0.1634   0.2695   0.6634
Ti154     Ti     0.1918   0.3753   0.8753
Ce155     Ce     0.2695   0.3366   0.8366
Ti156     Ti     0.1247   0.3082   0.8753
Ce157     Ce     0.1634   0.2305   0.8366
Ti158     Ti     0.1247   0.3753   0.8082
Ce159     Ce     0.1634   0.3366   0.7305
Ti160     Ti     0.3753   0.3082   0.6247
Ce161     Ce     0.3366   0.2305   0.6634
Ti162     Ti     0.3082   0.3753   0.6247
Ce163     Ce     0.2305   0.3366   0.6634
Er164     Er     0.3977   0.3977   0.6023
Er165     Er     0.6023   0.1023   0.1023
Er166     Er     0.8977   0.3977   0.1023
Er167     Er     0.8977   0.1023   0.3977
Ti168     Ti     0.6247   0.1918   0.1247
Ce169     Ce     0.6634   0.2695   0.1634
Ti170     Ti     0.8082   0.3753   0.1247
Ce171     Ce     0.7305   0.3366   0.1634
Ti172     Ti     0.8753   0.3753   0.1918
Ce173     Ce     0.8366   0.3366   0.2695
Ti174     Ti     0.6919   0.3753   0.3753
Ce175     Ce     0.7695   0.3366   0.3366
Ti176     Ti     0.8753   0.3082   0.1247
Ce177     Ce     0.8366   0.2305   0.1634
Ti178     Ti     0.6919   0.1247   0.1247
Ce179     Ce     0.7695   0.1634   0.1634
Ti180     Ti     0.6247   0.1247   0.1918
Ce181     Ce     0.6634   0.1634   0.2695
Ti182     Ti     0.8753   0.1918   0.3753
Ce183     Ce     0.8366   0.2695   0.3366
Ti184     Ti     0.8753   0.1247   0.3082
Ce185     Ce     0.8366   0.1634   0.2305
Ti186     Ti     0.8082   0.1247   0.3753
Ce187     Ce     0.7305   0.1634   0.3366
Ti188     Ti     0.6247   0.3753   0.3082
Ce189     Ce     0.6634   0.3366   0.2305
Ti190     Ti     0.6247   0.3082   0.3753
Ce191     Ce     0.6634   0.2305   0.3366
Er192     Er     0.6023   0.3977   0.3977
Er193     Er     0.1023   0.6023   0.1023
Er194     Er     0.3977   0.8977   0.1023
Er195     Er     0.1023   0.8977   0.3977
Ti196     Ti     0.1918   0.6247   0.1247
Ce197     Ce     0.2695   0.6634   0.1634
Ti198     Ti     0.3753   0.8082   0.1247
Ce199     Ce     0.3366   0.7305   0.1634
Ti200     Ti     0.3753   0.8753   0.1918
Ce201     Ce     0.3366   0.8366   0.2695
Ti202     Ti     0.3753   0.6919   0.3753
Ce203     Ce     0.3366   0.7695   0.3366
Ti204     Ti     0.3082   0.8753   0.1247
Ce205     Ce     0.2305   0.8366   0.1634
Ti206     Ti     0.1247   0.6919   0.1247
Ce207     Ce     0.1634   0.7695   0.1634
Ti208     Ti     0.1247   0.6247   0.1918
Ce209     Ce     0.1634   0.6634   0.2695
Ti210     Ti     0.1918   0.8753   0.3753
Ce211     Ce     0.2695   0.8366   0.3366
Ti212     Ti     0.1247   0.8753   0.3082
Ce213     Ce     0.1634   0.8366   0.2305
Ti214     Ti     0.1247   0.8082   0.3753
Ce215     Ce     0.1634   0.7305   0.3366
Ti216     Ti     0.3753   0.6247   0.3082
Ce217     Ce     0.3366   0.6634   0.2305
Ti218     Ti     0.3082   0.6247   0.3753
Ce219     Ce     0.2305   0.6634   0.3366
Er220     Er     0.3977   0.6023   0.3977
V221     V     0.5475   0.5475   0.5475
V222     V     0.5475   0.5475   0.4525
V223     V     0.5475   0.4525   0.4525
V224     V     0.5475   0.4525   0.5475
V225     V     0.4525   0.5475   0.5475
V226     V     0.4525   0.5475   0.4525
V227     V     0.4525   0.4525   0.5475
V228     V     0.4525   0.4525   0.4525
Er229     Er     0.3977   0.3977   0.3977
Er230     Er     0.1023   0.3977   0.1023
Er231     Er     0.3977   0.1023   0.1023
Ti232     Ti     0.1918   0.3753   0.1247
Ce233     Ce     0.2695   0.3366   0.1634
Ti234     Ti     0.3753   0.3753   0.3082
Ce235     Ce     0.3366   0.3366   0.2305
Ti236     Ti     0.3753   0.1918   0.1247
Ce237     Ce     0.3366   0.2695   0.1634
Ti238     Ti     0.3753   0.3082   0.3753
Ce239     Ce     0.3366   0.2305   0.3366
Ti240     Ti     0.3753   0.1247   0.1918
Ce241     Ce     0.3366   0.1634   0.2695
Ti242     Ti     0.1918   0.1247   0.3753
Ce243     Ce     0.2695   0.1634   0.3366
Ti244     Ti     0.3082   0.3753   0.3753
Ce245     Ce     0.2305   0.3366   0.3366
Ti246     Ti     0.1247   0.3753   0.1918
Ce247     Ce     0.1634   0.3366   0.2695
Ti248     Ti     0.1247   0.1918   0.3753
Ce249     Ce     0.1634   0.2695   0.3366
Ti250     Ti     0.1247   0.3082   0.1247
Ce251     Ce     0.1634   0.2305   0.1634
Ti252     Ti     0.3082   0.1247   0.1247
Ce253     Ce     0.2305   0.1634   0.1634
Ti254     Ti     0.1247   0.1247   0.3082
Ce255     Ce     0.1634   0.1634   0.2305
Er256     Er     0.1023   0.1023   0.3977
loop_
_geom_bond_atom_site_label_1
_geom_bond_atom_site_label_2
_geom_bond_distance
_geom_bond_site_symmetry_2
_ccdc_geom_bond_type
Er1     V221    10.0   .     S
Er1     Ti12    10.001   .     S
Er1     Ti6    10.001   .     S
Er1     Ti4    10.001   .     S
Er2     V134    10.0   .     S
Er2     Ti18    10.001   .     S
Er2     Ti11    10.001   .     S
Er2     Ti8    10.001   .     S
Er3     V126    10.0   .     S
Er3     Ti20    10.001   .     S
Er3     Ti17    10.001   .     S
Er3     Ti14    10.001   .     S
Ti4     Ti12    10.0   .     S
Ti4     Ti6    10.0   .     S
Ti4     Ce5    9.999   .     S
Ce5     Ce15    10.0   .     S
Ce5     Ce9    10.0   .     S
Ti6     Ti12    10.0   .     S
Ti6     Ce7    9.999   .     S
Ce7     Ce10    10.0   .     S
Ce7     Ce25    10.0   .     S
Ti8     Ce9    9.999   .     S
Ti8     Ti18    10.0   .     S
Ti8     Ti11    10.0   .     S
Ce9     Ce15    10.0   .     S
Ce10     Ti11    9.999   .     S
Ce10     Ce25    10.0   .     S
Ti11     Ti18    10.0   .     S
Ti12     Ce13    9.999   .     S
Ce13     Ce16    10.0   .     S
Ce13     Ce27    10.0   .     S
Ti14     Ce15    9.999   .     S
Ti14     Ti20    10.0   .     S
Ti14     Ti17    10.0   .     S
Ce16     Ti17    9.999   .     S
Ce16     Ce27    10.0   .     S
Ti17     Ti20    10.0   .     S
Ti18     Ce19    9.999   .     S
Ce19     Ce23    10.0   .     S
Ce19     Ce21    10.0   .     S
Ti20     Ce21    9.999   .     S
Ce21     Ce23    10.0   .     S
Ti22     Ce23    9.999   .     S
Ti22     Ti24    10.0   .     S
Ti22     Ti26    10.0   .     S
Ti22     Er28    10.001   .     S
Ti24     Ce25    9.999   .     S
Ti24     Ti26    10.0   .     S
Ti24     Er28    10.001   .     S
Ti26     Ce27    9.999   .     S
Ti26     Er28    10.001   .     S
Er28     V119    10.0   .     S
Er29     V224    10.0   .     S
Er29     Ti36    10.001   .     S
Er29     Ti34    10.001   .     S
Er29     Ti42    10.001   .     S
Er30     V135    10.0   .     S
Er30     Ti44    10.001   .     S
Er30     Ti52    10.001   .     S
Er30     Ti48    10.001   .     S
Er31     V117    10.0   .     S
Er31     Ti46    10.001   .     S
Er31     Ti54    10.001   .     S
Er31     Ti50    10.001   .     S
Ti32     Ce33    9.999   .     S
Ti32     Ti38    10.0   .     S
Ti32     Ti40    10.0   .     S
Ti32     Er56    10.001   .     S
Ce33     Ce47    10.0   .     S
Ce33     Ce45    10.0   .     S
Ti34     Ce35    9.999   .     S
Ti34     Ti42    10.0   .     S
Ti34     Ti36    10.0   .     S
Ce35     Ce39    10.0   .     S
Ce35     Ce49    10.0   .     S
Ti36     Ce37    9.999   .     S
Ti36     Ti42    10.0   .     S
Ce37     Ce41    10.0   .     S
Ce37     Ce51    10.0   .     S
Ti38     Ce39    9.999   .     S
Ti38     Ti40    10.0   .     S
Ti38     Er56    10.001   .     S
Ce39     Ce49    10.0   .     S
Ti40     Ce41    9.999   .     S
Ti40     Er56    10.001   .     S
Ce41     Ce51    10.0   .     S
Ti42     Ce43    9.999   .     S
Ce43     Ce55    10.0   .     S
Ce43     Ce53    10.0   .     S
Ti44     Ce45    9.999   .     S
Ti44     Ti48    10.0   .     S
Ti44     Ti52    10.0   .     S
Ce45     Ce47    10.0   .     S
Ti46     Ce47    9.999   .     S
Ti46     Ti50    10.0   .     S
Ti46     Ti54    10.0   .     S
Ti48     Ce49    9.999   .     S
Ti48     Ti52    10.0   .     S
Ti50     Ce51    9.999   .     S
Ti50     Ti54    10.0   .     S
Ti52     Ce53    9.999   .     S
Ce53     Ce55    10.0   .     S
Ti54     Ce55    9.999   .     S
Er56     V121    10.0   .     S
Er57     V225    10.0   .     S
Er57     Ti64    10.001   .     S
Er57     Ti62    10.001   .     S
Er57     Ti70    10.001   .     S
Er58     V127    10.0   .     S
Er58     Ti72    10.001   .     S
Er58     Ti80    10.001   .     S
Er58     Ti76    10.001   .     S
Er59     V120    10.0   .     S
Er59     Ti74    10.001   .     S
Er59     Ti82    10.001   .     S
Er59     Ti78    10.001   .     S
Ti60     Ce61    9.999   .     S
Ti60     Ti68    10.0   .     S
Ti60     Ti66    10.0   .     S
Ti60     Er84    10.001   .     S
Ce61     Ce75    10.0   .     S
Ce61     Ce73    10.0   .     S
Ti62     Ce63    9.999   .     S
Ti62     Ti70    10.0   .     S
Ti62     Ti64    10.0   .     S
Ce63     Ce67    10.0   .     S
Ce63     Ce77    10.0   .     S
Ti64     Ce65    9.999   .     S
Ti64     Ti70    10.0   .     S
Ce65     Ce69    10.0   .     S
Ce65     Ce79    10.0   .     S
Ti66     Ce67    9.999   .     S
Ti66     Ti68    10.0   .     S
Ti66     Er84    10.001   .     S
Ce67     Ce77    10.0   .     S
Ti68     Ce69    9.999   .     S
Ti68     Er84    10.001   .     S
Ce69     Ce79    10.0   .     S
Ti70     Ce71    9.999   .     S
Ce71     Ce83    10.0   .     S
Ce71     Ce81    10.0   .     S
Ti72     Ce73    9.999   .     S
Ti72     Ti76    10.0   .     S
Ti72     Ti80    10.0   .     S
Ce73     Ce75    10.0   .     S
Ti74     Ce75    9.999   .     S
Ti74     Ti78    10.0   .     S
Ti74     Ti82    10.0   .     S
Ti76     Ce77    9.999   .     S
Ti76     Ti80    10.0   .     S
Ti78     Ce79    9.999   .     S
Ti78     Ti82    10.0   .     S
Ti80     Ce81    9.999   .     S
Ce81     Ce83    10.0   .     S
Ti82     Ce83    9.999   .     S
Er84     V130    10.0   .     S
Er85     V222    10.0   .     S
Er85     Ti92    10.001   .     S
Er85     Ti90    10.001   .     S
Er85     Ti98    10.001   .     S
Er86     V125    10.0   .     S
Er86     Ti100    10.001   .     S
Er86     Ti110    10.001   .     S
Er86     Ti106    10.001   .     S
Er87     V133    10.0   .     S
Er87     Ti102    10.001   .     S
Er87     Ti108    10.001   .     S
Er87     Ti104    10.001   .     S
Ti88     Ce89    9.999   .     S
Ti88     Ti96    10.0   .     S
Ti88     Ti94    10.0   .     S
Ti88     Er112    10.001   .     S
Ce89     Ce103    10.0   .     S
Ce89     Ce101    10.0   .     S
Ti90     Ce91    9.999   .     S
Ti90     Ti98    10.0   .     S
Ti90     Ti92    10.0   .     S
Ce91     Ce95    10.0   .     S
Ce91     Ce105    10.0   .     S
Ti92     Ce93    9.999   .     S
Ti92     Ti98    10.0   .     S
Ce93     Ce97    10.0   .     S
Ce93     Ce107    10.0   .     S
Ti94     Ce95    9.999   .     S
Ti94     Ti96    10.0   .     S
Ti94     Er112    10.001   .     S
Ce95     Ce105    10.0   .     S
Ti96     Ce97    9.999   .     S
Ti96     Er112    10.001   .     S
Ce97     Ce107    10.0   .     S
Ti98     Ce99    9.999   .     S
Ce99     Ce111    10.0   .     S
Ce99     Ce109    10.0   .     S
Ti100     Ce101    9.999   .     S
Ti100     Ti106    10.0   .     S
Ti100     Ti110    10.0   .     S
Ce101     Ce103    10.0   .     S
Ti102     Ce103    9.999   .     S
Ti102     Ti104    10.0   .     S
Ti102     Ti108    10.0   .     S
Ti104     Ce105    9.999   .     S
Ti104     Ti108    10.0   .     S
Ti106     Ce107    9.999   .     S
Ti106     Ti110    10.0   .     S
Ti108     Ce109    9.999   .     S
Ce109     Ce111    10.0   .     S
Ti110     Ce111    9.999   .     S
Er112     V113    10.0   .     S
V113     V114    9.999   1_565     S
V113     V115    9.999   1_655     S
V113     V119    9.999   .     S
V114     V113    9.999   1_545     S
V114     V116    9.999   1_655     S
V114     V117    9.999   .     S
V114     Er167    10.0   .     S
V115     V113    9.999   1_455     S
V115     V116    9.999   1_565     S
V115     V120    9.999   .     S
V115     Er195    10.0   .     S
V116     V114    9.999   1_455     S
V116     V115    9.999   1_545     S
V116     V118    9.999   .     S
V116     Er256    10.0   .     S
V117     V118    9.999   1_655     S
V117     V119    9.999   1_545     S
V118     V117    9.999   1_455     S
V118     V120    9.999   1_545     S
V118     Er137    10.0   .     S
V119     V117    9.999   1_565     S
V119     V120    9.999   1_655     S
V120     V119    9.999   1_455     S
V120     V118    9.999   1_565     S
V121     V122    9.999   1_556     S
V121     V123    9.999   1_655     S
V121     V126    9.999   .     S
V122     V121    9.999   1_554     S
V122     V124    9.999   1_655     S
V122     V125    9.999   .     S
V122     Er166    10.0   .     S
V123     V121    9.999   1_455     S
V123     V124    9.999   1_556     S
V123     V127    9.999   .     S
V123     Er139    10.0   .     S
V124     V122    9.999   1_455     S
V124     V123    9.999   1_554     S
V124     V128    9.999   .     S
V124     Er230    10.0   .     S
V125     V128    9.999   1_655     S
V125     V126    9.999   1_554     S
V126     V127    9.999   1_655     S
V126     V125    9.999   1_556     S
V127     V126    9.999   1_455     S
V127     V128    9.999   1_556     S
V128     V125    9.999   1_455     S
V128     V127    9.999   1_554     S
V128     Er193    10.0   .     S
V129     V132    9.999   1_565     S
V129     V130    9.999   1_554     S
V129     V133    9.999   .     S
V129     Er194    10.0   .     S
V130     V131    9.999   1_565     S
V130     V129    9.999   1_556     S
V130     V134    9.999   .     S
V131     V130    9.999   1_545     S
V131     V132    9.999   1_556     S
V131     V135    9.999   .     S
V131     Er138    10.0   .     S
V132     V129    9.999   1_545     S
V132     V131    9.999   1_554     S
V132     V136    9.999   .     S
V132     Er231    10.0   .     S
V133     V136    9.999   1_565     S
V133     V134    9.999   1_554     S
V134     V135    9.999   1_565     S
V134     V133    9.999   1_556     S
V135     V134    9.999   1_545     S
V135     V136    9.999   1_556     S
V136     V133    9.999   1_545     S
V136     V135    9.999   1_554     S
V136     Er165    10.0   .     S
Er137     Ti150    10.001   .     S
Er137     Ti152    10.001   .     S
Er137     Ti142    10.001   .     S
Er138     Ti146    10.001   .     S
Er138     Ti148    10.001   .     S
Er138     Ti144    10.001   .     S
Er139     Ti158    10.001   .     S
Er139     Ti156    10.001   .     S
Er139     Ti154    10.001   .     S
Ti140     Ce141    9.999   .     S
Ti140     Ti162    10.0   .     S
Ti140     Ti160    10.0   .     S
Ti140     Er164    10.001   .     S
Ce141     Ce155    10.0   .     S
Ce141     Ce145    10.0   .     S
Ti142     Ti150    10.0   .     S
Ti142     Ti152    10.0   .     S
Ti142     Ce143    9.999   .     S
Ce143     Ce147    10.0   .     S
Ce143     Ce161    10.0   .     S
Ti144     Ce145    9.999   .     S
Ti144     Ti148    10.0   .     S
Ti144     Ti146    10.0   .     S
Ce145     Ce155    10.0   .     S
Ti146     Ti148    10.0   .     S
Ti146     Ce147    9.999   .     S
Ce147     Ce161    10.0   .     S
Ti148     Ce149    9.999   .     S
Ce149     Ce151    10.0   .     S
Ce149     Ce157    10.0   .     S
Ti150     Ti152    10.0   .     S
Ti150     Ce151    9.999   .     S
Ce151     Ce157    10.0   .     S
Ti152     Ce153    9.999   .     S
Ce153     Ce159    10.0   .     S
Ce153     Ce163    10.0   .     S
Ti154     Ce155    9.999   .     S
Ti154     Ti156    10.0   .     S
Ti154     Ti158    10.0   .     S
Ti156     Ce157    9.999   .     S
Ti156     Ti158    10.0   .     S
Ti158     Ce159    9.999   .     S
Ce159     Ce163    10.0   .     S
Ti160     Ce161    9.999   .     S
Ti160     Ti162    10.0   .     S
Ti160     Er164    10.001   .     S
Ti162     Ce163    9.999   .     S
Ti162     Er164    10.001   .     S
Er164     V227    10.0   .     S
Er165     Ti178    10.001   .     S
Er165     Ti180    10.001   .     S
Er165     Ti168    10.001   .     S
Er166     Ti170    10.001   .     S
Er166     Ti176    10.001   .     S
Er166     Ti172    10.001   .     S
Er167     Ti186    10.001   .     S
Er167     Ti184    10.001   .     S
Er167     Ti182    10.001   .     S
Ti168     Ti178    10.0   .     S
Ti168     Ti180    10.0   .     S
Ti168     Ce169    9.999   .     S
Ce169     Ce171    10.0   .     S
Ce169     Ce189    10.0   .     S
Ti170     Ti176    10.0   .     S
Ti170     Ti172    10.0   .     S
Ti170     Ce171    9.999   .     S
Ce171     Ce189    10.0   .     S
Ti172     Ti176    10.0   .     S
Ti172     Ce173    9.999   .     S
Ce173     Ce175    10.0   .     S
Ce173     Ce183    10.0   .     S
Ti174     Ce175    9.999   .     S
Ti174     Ti190    10.0   .     S
Ti174     Ti188    10.0   .     S
Ti174     Er192    10.001   .     S
Ce175     Ce183    10.0   .     S
Ti176     Ce177    9.999   .     S
Ce177     Ce179    10.0   .     S
Ce177     Ce185    10.0   .     S
Ti178     Ti180    10.0   .     S
Ti178     Ce179    9.999   .     S
Ce179     Ce185    10.0   .     S
Ti180     Ce181    9.999   .     S
Ce181     Ce187    10.0   .     S
Ce181     Ce191    10.0   .     S
Ti182     Ce183    9.999   .     S
Ti182     Ti184    10.0   .     S
Ti182     Ti186    10.0   .     S
Ti184     Ce185    9.999   .     S
Ti184     Ti186    10.0   .     S
Ti186     Ce187    9.999   .     S
Ce187     Ce191    10.0   .     S
Ti188     Ce189    9.999   .     S
Ti188     Ti190    10.0   .     S
Ti188     Er192    10.001   .     S
Ti190     Ce191    9.999   .     S
Ti190     Er192    10.001   .     S
Er192     V223    10.0   .     S
Er193     Ti206    10.001   .     S
Er193     Ti208    10.001   .     S
Er193     Ti196    10.001   .     S
Er194     Ti198    10.001   .     S
Er194     Ti204    10.001   .     S
Er194     Ti200    10.001   .     S
Er195     Ti214    10.001   .     S
Er195     Ti212    10.001   .     S
Er195     Ti210    10.001   .     S
Ti196     Ti208    10.0   .     S
Ti196     Ti206    10.0   .     S
Ti196     Ce197    9.999   .     S
Ce197     Ce199    10.0   .     S
Ce197     Ce217    10.0   .     S
Ti198     Ti204    10.0   .     S
Ti198     Ti200    10.0   .     S
Ti198     Ce199    9.999   .     S
Ce199     Ce217    10.0   .     S
Ti200     Ti204    10.0   .     S
Ti200     Ce201    9.999   .     S
Ce201     Ce203    10.0   .     S
Ce201     Ce211    10.0   .     S
Ti202     Ce203    9.999   .     S
Ti202     Ti218    10.0   .     S
Ti202     Ti216    10.0   .     S
Ti202     Er220    10.001   .     S
Ce203     Ce211    10.0   .     S
Ti204     Ce205    9.999   .     S
Ce205     Ce207    10.0   .     S
Ce205     Ce213    10.0   .     S
Ti206     Ti208    10.0   .     S
Ti206     Ce207    9.999   .     S
Ce207     Ce213    10.0   .     S
Ti208     Ce209    9.999   .     S
Ce209     Ce215    10.0   .     S
Ce209     Ce219    10.0   .     S
Ti210     Ce211    9.999   .     S
Ti210     Ti212    10.0   .     S
Ti210     Ti214    10.0   .     S
Ti212     Ce213    9.999   .     S
Ti212     Ti214    10.0   .     S
Ti214     Ce215    9.999   .     S
Ce215     Ce219    10.0   .     S
Ti216     Ce217    9.999   .     S
Ti216     Ti218    10.0   .     S
Ti216     Er220    10.001   .     S
Ti218     Ce219    9.999   .     S
Ti218     Er220    10.001   .     S
Er220     V226    10.0   .     S
V221     V222    9.999   .     S
V221     V224    9.999   .     S
V221     V225    9.999   .     S
V222     V223    9.999   .     S
V222     V226    9.999   .     S
V223     V228    9.999   .     S
V223     V224    9.999   .     S
V224     V227    9.999   .     S
V225     V226    9.999   .     S
V225     V227    9.999   .     S
V226     V228    9.999   .     S
V227     V228    9.999   .     S
V228     Er229    10.0   .     S
Er229     Ti244    10.001   .     S
Er229     Ti238    10.001   .     S
Er229     Ti234    10.001   .     S
Er230     Ti250    10.001   .     S
Er230     Ti246    10.001   .     S
Er230     Ti232    10.001   .     S
Er231     Ti252    10.001   .     S
Er231     Ti240    10.001   .     S
Er231     Ti236    10.001   .     S
Ti232     Ti250    10.0   .     S
Ti232     Ti246    10.0   .     S
Ti232     Ce233    9.999   .     S
Ce233     Ce235    10.0   .     S
Ce233     Ce237    10.0   .     S
Ti234     Ti244    10.0   .     S
Ti234     Ti238    10.0   .     S
Ti234     Ce235    9.999   .     S
Ce235     Ce237    10.0   .     S
Ti236     Ce237    9.999   .     S
Ti236     Ti252    10.0   .     S
Ti236     Ti240    10.0   .     S
Ti238     Ti244    10.0   .     S
Ti238     Ce239    9.999   .     S
Ce239     Ce241    10.0   .     S
Ce239     Ce243    10.0   .     S
Ti240     Ti252    10.0   .     S
Ti240     Ce241    9.999   .     S
Ce241     Ce243    10.0   .     S
Ti242     Ce243    9.999   .     S
Ti242     Ti254    10.0   .     S
Ti242     Ti248    10.0   .     S
Ti242     Er256    10.001   .     S
Ti244     Ce245    9.999   .     S
Ce245     Ce247    10.0   .     S
Ce245     Ce249    10.0   .     S
Ti246     Ti250    10.0   .     S
Ti246     Ce247    9.999   .     S
Ce247     Ce249    10.0   .     S
Ti248     Ce249    9.999   .     S
Ti248     Ti254    10.0   .     S
Ti248     Er256    10.001   .     S
Ti250     Ce251    9.999   .     S
Ce251     Ce255    10.0   .     S
Ce251     Ce253    10.0   .     S
Ti252     Ce253    9.999   .     S
Ce253     Ce255    10.0   .     S
Ti254     Ce255    9.999   .     S
Ti254     Er256    10.001   .     S
