data_oab
_audit_creation_date              2020-02-02
_audit_creation_method            'Pymatgen'
_symmetry_space_group_name_H-M    'P1'
_symmetry_Int_Tables_number       1
loop_
_symmetry_equiv_pos_as_xyz
  x,y,z
_cell_length_a                    16.33
_cell_length_b                    43.0935
_cell_length_c                    20.0
_cell_angle_alpha                 90.0
_cell_angle_beta                 90.0
_cell_angle_gamma                 90.0
loop_
_atom_site_label
_atom_site_type_symbol
_atom_site_fract_x
_atom_site_fract_y
_atom_site_fract_z
Er1     Er     0.5   0.317   0.25
Er2     Er     0.5   0.317   0.75
V3     V     0.5   0.116   0.0
V4     V     0.0   0.384   0.0
Er5     Er     0.0   0.183   0.25
Er6     Er     0.0   0.183   0.75
V7     V     0.5   0.884   0.0
Er8     Er     0.5   0.683   0.25
Er9     Er     0.5   0.683   0.75
V10     V     0.0   0.616   0.0
Er11     Er     0.0   0.817   0.25
Er12     Er     0.0   0.817   0.75
loop_
_geom_bond_atom_site_label_1
_geom_bond_atom_site_label_2
_geom_bond_distance
_geom_bond_site_symmetry_2
_ccdc_geom_bond_type
Er1     V3    10.0   .     S
Er1     Er2    10.0   1_554     S
Er1     Er5    10.0   1_655     S
Er1     V4    10.0   1_655     S
Er1     Er5    10.0   .     S
Er1     V4    10.0   .     S
Er1     Er2    10.0   .     S
Er2     Er1    10.0   1_556     S
Er2     V3    10.0   1_556     S
Er2     Er6    10.0   .     S
Er2     V4    10.0   1_556     S
Er2     Er6    10.0   1_655     S
Er2     V4    10.0   1_656     S
V3     Er2    10.0   1_554     S
V3     Er5    10.0   1_655     S
V3     Er6    10.0   1_554     S
V3     Er6    10.0   1_654     S
V3     Er5    10.0   .     S
V3     V7    10.0   1_545     S
V4     Er1    10.0   1_455     S
V4     Er2    10.0   1_554     S
V4     Er2    10.0   1_454     S
V4     Er5    10.0   .     S
V4     Er6    10.0   1_554     S
V4     V10    10.0   .     S
Er5     Er1    10.0   1_455     S
Er5     V3    10.0   1_455     S
Er5     Er6    10.0   1_554     S
Er5     Er6    10.0   .     S
Er6     V3    10.0   1_556     S
Er6     Er2    10.0   1_455     S
Er6     V3    10.0   1_456     S
Er6     V4    10.0   1_556     S
Er6     Er5    10.0   1_556     S
V7     Er8    10.0   .     S
V7     Er9    10.0   1_554     S
V7     Er11    10.0   .     S
V7     Er12    10.0   1_654     S
V7     Er12    10.0   1_554     S
V7     Er11    10.0   1_655     S
V7     V3    10.0   1_565     S
Er8     Er9    10.0   1_554     S
Er8     Er11    10.0   .     S
Er8     V10    10.0   .     S
Er8     Er11    10.0   1_655     S
Er8     V10    10.0   1_655     S
Er8     Er9    10.0   .     S
Er9     V7    10.0   1_556     S
Er9     Er8    10.0   1_556     S
Er9     Er12    10.0   1_655     S
Er9     V10    10.0   1_656     S
Er9     Er12    10.0   .     S
Er9     V10    10.0   1_556     S
V10     Er9    10.0   1_454     S
V10     Er9    10.0   1_554     S
V10     Er8    10.0   1_455     S
V10     Er11    10.0   .     S
V10     Er12    10.0   1_554     S
Er11     Er8    10.0   1_455     S
Er11     V7    10.0   1_455     S
Er11     Er12    10.0   1_554     S
Er11     Er12    10.0   .     S
Er12     Er9    10.0   1_455     S
Er12     V7    10.0   1_456     S
Er12     V7    10.0   1_556     S
Er12     V10    10.0   1_556     S
Er12     Er11    10.0   1_556     S
