data_ocua
_audit_creation_date              2020-02-02
_audit_creation_method            'Pymatgen'
_symmetry_space_group_name_H-M    'P1'
_symmetry_Int_Tables_number       1
loop_
_symmetry_equiv_pos_as_xyz
  x,y,z
_cell_length_a                    58.3757
_cell_length_b                    58.3757
_cell_length_c                    58.3757
_cell_angle_alpha                 90.0
_cell_angle_beta                 90.0
_cell_angle_gamma                 90.0
loop_
_atom_site_label
_atom_site_type_symbol
_atom_site_fract_x
_atom_site_fract_y
_atom_site_fract_z
V1     V     0.9144   0.5856   0.9144
V2     V     0.9144   0.5856   0.0856
V3     V     0.0856   0.5856   0.9144
V4     V     0.0856   0.5856   0.0856
V5     V     0.0856   0.4144   0.0856
V6     V     0.0856   0.4144   0.9144
V7     V     0.9144   0.4144   0.0856
V8     V     0.9144   0.4144   0.9144
V9     V     0.5856   0.9144   0.0856
V10     V     0.5856   0.9144   0.9144
V11     V     0.5856   0.0856   0.9144
V12     V     0.5856   0.0856   0.0856
V13     V     0.4144   0.0856   0.0856
V14     V     0.4144   0.0856   0.9144
V15     V     0.4144   0.9144   0.9144
V16     V     0.4144   0.9144   0.0856
V17     V     0.9144   0.9144   0.5856
V18     V     0.9144   0.0856   0.5856
V19     V     0.0856   0.9144   0.5856
V20     V     0.0856   0.0856   0.5856
V21     V     0.0856   0.0856   0.4144
V22     V     0.0856   0.9144   0.4144
V23     V     0.9144   0.0856   0.4144
V24     V     0.9144   0.9144   0.4144
Er25     Er     0.1693   0.2904   0.1693
Er26     Er     0.2904   0.1693   0.1693
Er27     Er     0.1693   0.1693   0.2904
Er28     Er     0.3308   0.2096   0.3308
Er29     Er     0.2096   0.3308   0.3308
Er30     Er     0.3308   0.3308   0.2096
Er31     Er     0.8308   0.7096   0.8308
Er32     Er     0.8308   0.8308   0.7096
Er33     Er     0.7096   0.8308   0.8308
Er34     Er     0.6692   0.6692   0.7904
Er35     Er     0.6692   0.7904   0.6692
Er36     Er     0.7904   0.6692   0.6692
Er37     Er     0.2096   0.3308   0.6692
Er38     Er     0.1693   0.1693   0.7096
Er39     Er     0.3308   0.2096   0.6692
Er40     Er     0.2904   0.1693   0.8308
Er41     Er     0.1693   0.2904   0.8308
Er42     Er     0.3308   0.3308   0.7904
V43     V     0.0856   0.4144   0.5856
V44     V     0.0856   0.5856   0.5856
V45     V     0.9144   0.4144   0.5856
V46     V     0.9144   0.5856   0.5856
V47     V     0.9144   0.5856   0.4144
V48     V     0.0856   0.5856   0.4144
V49     V     0.0856   0.4144   0.4144
V50     V     0.9144   0.4144   0.4144
Er51     Er     0.2904   0.8308   0.8308
Er52     Er     0.1693   0.7096   0.8308
Er53     Er     0.3308   0.6692   0.7904
Er54     Er     0.1693   0.8308   0.7096
Er55     Er     0.3308   0.7904   0.6692
Er56     Er     0.2096   0.6692   0.6692
Er57     Er     0.3308   0.6692   0.2096
Er58     Er     0.1693   0.7096   0.1693
Er59     Er     0.2096   0.6692   0.3308
Er60     Er     0.2904   0.8308   0.1693
Er61     Er     0.1693   0.8308   0.2904
Er62     Er     0.3308   0.7904   0.3308
V63     V     0.5856   0.9144   0.5856
V64     V     0.5856   0.0856   0.5856
V65     V     0.4144   0.0856   0.5856
V66     V     0.4144   0.9144   0.5856
V67     V     0.5856   0.9144   0.4144
V68     V     0.5856   0.0856   0.4144
V69     V     0.4144   0.0856   0.4144
V70     V     0.4144   0.9144   0.4144
Er71     Er     0.8308   0.2904   0.8308
Er72     Er     0.8308   0.1693   0.7096
Er73     Er     0.7904   0.3308   0.6692
Er74     Er     0.7096   0.1693   0.8308
Er75     Er     0.6692   0.3308   0.7904
Er76     Er     0.6692   0.2096   0.6692
Er77     Er     0.6692   0.3308   0.2096
Er78     Er     0.7096   0.1693   0.1693
Er79     Er     0.6692   0.2096   0.3308
Er80     Er     0.8308   0.2904   0.1693
Er81     Er     0.8308   0.1693   0.2904
Er82     Er     0.7904   0.3308   0.3308
V83     V     0.5856   0.4144   0.0856
V84     V     0.5856   0.5856   0.0856
V85     V     0.5856   0.4144   0.9144
V86     V     0.5856   0.5856   0.9144
V87     V     0.4144   0.5856   0.0856
V88     V     0.4144   0.5856   0.9144
V89     V     0.4144   0.4144   0.0856
V90     V     0.4144   0.4144   0.9144
Er91     Er     0.8308   0.8308   0.2904
Er92     Er     0.7096   0.8308   0.1693
Er93     Er     0.6692   0.7904   0.3308
Er94     Er     0.8308   0.7096   0.1693
Er95     Er     0.7904   0.6692   0.3308
Er96     Er     0.6692   0.6692   0.2096
loop_
_geom_bond_atom_site_label_1
_geom_bond_atom_site_label_2
_geom_bond_distance
_geom_bond_site_symmetry_2
_ccdc_geom_bond_type
V1     V8    10.0   .     S
V1     V2    10.0   1_556     S
V1     V3    10.0   1_655     S
V1     Er31    10.0   .     S
V2     V7    10.0   .     S
V2     V1    10.0   1_554     S
V2     V4    10.0   1_655     S
V2     Er94    10.0   .     S
V3     V6    10.0   .     S
V3     V4    10.0   1_556     S
V3     V1    10.0   1_455     S
V3     Er52    10.0   .     S
V4     V5    10.0   .     S
V4     V3    10.0   1_554     S
V4     V2    10.0   1_455     S
V4     Er58    10.0   .     S
V5     V6    10.0   1_554     S
V5     V7    10.0   1_455     S
V5     Er25    10.0   .     S
V6     V5    10.0   1_556     S
V6     V8    10.0   1_455     S
V6     Er41    10.0   .     S
V7     V5    10.0   1_655     S
V7     V8    10.0   1_554     S
V7     Er80    10.0   .     S
V8     V7    10.0   1_556     S
V8     V6    10.0   1_655     S
V8     Er71    10.0   .     S
V9     V16    10.0   .     S
V9     V10    10.0   1_554     S
V9     V12    10.0   1_565     S
V9     Er92    10.0   .     S
V10     V15    10.0   .     S
V10     V9    10.0   1_556     S
V10     V11    10.0   1_565     S
V10     Er33    10.0   .     S
V11     V14    10.0   .     S
V11     V12    10.0   1_556     S
V11     V10    10.0   1_545     S
V11     Er74    10.0   .     S
V12     V13    10.0   .     S
V12     V11    10.0   1_554     S
V12     V9    10.0   1_545     S
V12     Er78    10.0   .     S
V13     V14    10.0   1_554     S
V13     V16    10.0   1_545     S
V13     Er26    10.0   .     S
V14     V13    10.0   1_556     S
V14     V15    10.0   1_545     S
V14     Er40    10.0   .     S
V15     V14    10.0   1_565     S
V15     V16    10.0   1_556     S
V15     Er51    10.0   .     S
V16     V15    10.0   1_554     S
V16     V13    10.0   1_565     S
V16     Er60    10.0   .     S
V17     V24    10.0   .     S
V17     V18    10.0   1_565     S
V17     V19    10.0   1_655     S
V17     Er32    10.0   .     S
V18     V23    10.0   .     S
V18     V20    10.0   1_655     S
V18     V17    10.0   1_545     S
V18     Er72    10.0   .     S
V19     V22    10.0   .     S
V19     V20    10.0   1_565     S
V19     V17    10.0   1_455     S
V19     Er54    10.0   .     S
V20     V21    10.0   .     S
V20     V19    10.0   1_545     S
V20     V18    10.0   1_455     S
V20     Er38    10.0   .     S
V21     V22    10.0   1_545     S
V21     V23    10.0   1_455     S
V21     Er27    10.0   .     S
V22     V21    10.0   1_565     S
V22     V24    10.0   1_455     S
V22     Er61    10.0   .     S
V23     V21    10.0   1_655     S
V23     V24    10.0   1_545     S
V23     Er81    10.0   .     S
V24     V23    10.0   1_565     S
V24     V22    10.0   1_655     S
V24     Er91    10.0   .     S
Er25     Er27    10.0   .     S
Er25     Er26    10.0   .     S
Er25     Er30    9.999   .     S
Er25     Er29    9.999   .     S
Er26     Er27    10.0   .     S
Er26     Er28    9.999   .     S
Er26     Er30    9.999   .     S
Er27     Er29    9.999   .     S
Er27     Er28    9.999   .     S
Er28     Er30    10.0   .     S
Er28     Er29    10.0   .     S
Er28     V69    10.0   .     S
Er29     Er30    10.0   .     S
Er29     V49    10.0   .     S
Er30     V89    10.0   .     S
Er31     Er32    10.0   .     S
Er31     Er33    10.0   .     S
Er31     Er36    9.999   .     S
Er31     Er34    9.999   .     S
Er32     Er33    10.0   .     S
Er32     Er35    9.999   .     S
Er32     Er36    9.999   .     S
Er33     Er34    9.999   .     S
Er33     Er35    9.999   .     S
Er34     Er35    10.0   .     S
Er34     Er36    10.0   .     S
Er34     V86    10.0   .     S
Er35     Er36    10.0   .     S
Er35     V63    10.0   .     S
Er36     V46    10.0   .     S
Er37     Er39    10.0   .     S
Er37     Er42    10.0   .     S
Er37     Er38    9.999   .     S
Er37     Er41    9.999   .     S
Er37     V43    10.0   .     S
Er38     Er40    10.0   .     S
Er38     Er41    10.0   .     S
Er38     Er39    9.999   .     S
Er39     Er42    10.0   .     S
Er39     Er40    9.999   .     S
Er39     V65    10.0   .     S
Er40     Er41    10.0   .     S
Er40     Er42    9.999   .     S
Er41     Er42    9.999   .     S
Er42     V90    10.0   .     S
V43     V49    10.0   .     S
V43     V44    10.0   .     S
V43     V45    10.0   1_455     S
V44     V48    10.0   .     S
V44     V46    10.0   1_455     S
V44     Er56    10.0   .     S
V45     V50    10.0   .     S
V45     V46    10.0   .     S
V45     V43    10.0   1_655     S
V45     Er73    10.0   .     S
V46     V47    10.0   .     S
V46     V44    10.0   1_655     S
V47     V50    10.0   .     S
V47     V48    10.0   1_655     S
V47     Er95    10.0   .     S
V48     V49    10.0   .     S
V48     V47    10.0   1_455     S
V48     Er59    10.0   .     S
V49     V50    10.0   1_455     S
V50     V49    10.0   1_655     S
V50     Er82    10.0   .     S
Er51     Er54    10.0   .     S
Er51     Er52    10.0   .     S
Er51     Er55    9.999   .     S
Er51     Er53    9.999   .     S
Er52     Er54    10.0   .     S
Er52     Er56    9.999   .     S
Er52     Er53    9.999   .     S
Er53     Er56    10.0   .     S
Er53     Er55    10.0   .     S
Er53     V88    10.0   .     S
Er54     Er56    9.999   .     S
Er54     Er55    9.999   .     S
Er55     Er56    10.0   .     S
Er55     V66    10.0   .     S
Er57     Er62    10.0   .     S
Er57     Er59    10.0   .     S
Er57     Er58    9.999   .     S
Er57     Er60    9.999   .     S
Er57     V87    10.0   .     S
Er58     Er61    10.0   .     S
Er58     Er60    10.0   .     S
Er58     Er59    9.999   .     S
Er59     Er62    10.0   .     S
Er59     Er61    9.999   .     S
Er60     Er61    10.0   .     S
Er60     Er62    9.999   .     S
Er61     Er62    9.999   .     S
Er62     V70    10.0   .     S
V63     V67    10.0   .     S
V63     V66    10.0   .     S
V63     V64    10.0   1_565     S
V64     V68    10.0   .     S
V64     V65    10.0   .     S
V64     V63    10.0   1_545     S
V64     Er76    10.0   .     S
V65     V69    10.0   .     S
V65     V66    10.0   1_545     S
V66     V70    10.0   .     S
V66     V65    10.0   1_565     S
V67     V70    10.0   .     S
V67     V68    10.0   1_565     S
V67     Er93    10.0   .     S
V68     V69    10.0   .     S
V68     V67    10.0   1_545     S
V68     Er79    10.0   .     S
V69     V70    10.0   1_545     S
V70     V69    10.0   1_565     S
Er71     Er72    10.0   .     S
Er71     Er74    10.0   .     S
Er71     Er75    9.999   .     S
Er71     Er73    9.999   .     S
Er72     Er74    10.0   .     S
Er72     Er76    9.999   .     S
Er72     Er73    9.999   .     S
Er73     Er76    10.0   .     S
Er73     Er75    10.0   .     S
Er74     Er76    9.999   .     S
Er74     Er75    9.999   .     S
Er75     Er76    10.0   .     S
Er75     V85    10.0   .     S
Er77     Er79    10.0   .     S
Er77     Er82    10.0   .     S
Er77     Er78    9.999   .     S
Er77     Er80    9.999   .     S
Er77     V83    10.0   .     S
Er78     Er81    10.0   .     S
Er78     Er80    10.0   .     S
Er78     Er79    9.999   .     S
Er79     Er82    10.0   .     S
Er79     Er81    9.999   .     S
Er80     Er81    10.0   .     S
Er80     Er82    9.999   .     S
Er81     Er82    9.999   .     S
V83     V89    10.0   .     S
V83     V84    10.0   .     S
V83     V85    10.0   1_554     S
V84     V87    10.0   .     S
V84     V86    10.0   1_554     S
V84     Er96    10.0   .     S
V85     V90    10.0   .     S
V85     V86    10.0   .     S
V85     V83    10.0   1_556     S
V86     V88    10.0   .     S
V86     V84    10.0   1_556     S
V87     V89    10.0   .     S
V87     V88    10.0   1_554     S
V88     V90    10.0   .     S
V88     V87    10.0   1_556     S
V89     V90    10.0   1_554     S
V90     V89    10.0   1_556     S
Er91     Er94    10.0   .     S
Er91     Er92    10.0   .     S
Er91     Er95    9.999   .     S
Er91     Er93    9.999   .     S
Er92     Er94    10.0   .     S
Er92     Er96    9.999   .     S
Er92     Er93    9.999   .     S
Er93     Er96    10.0   .     S
Er93     Er95    10.0   .     S
Er94     Er96    9.999   .     S
Er94     Er95    9.999   .     S
Er95     Er96    10.0   .     S
