data_odfd
_audit_creation_date              2020-02-02
_audit_creation_method            'Pymatgen'
_symmetry_space_group_name_H-M    'P1'
_symmetry_Int_Tables_number       1
loop_
_symmetry_equiv_pos_as_xyz
  x,y,z
_cell_length_a                    30.7929
_cell_length_b                    30.7929
_cell_length_c                    30.7929
_cell_angle_alpha                 90.0
_cell_angle_beta                 90.0
_cell_angle_gamma                 90.0
loop_
_atom_site_label
_atom_site_type_symbol
_atom_site_fract_x
_atom_site_fract_y
_atom_site_fract_z
V1     V     0.844   0.7339   0.0
V2     V     0.7339   0.0   0.844
V3     V     0.7339   0.0   0.156
V4     V     0.0   0.844   0.7339
V5     V     0.844   0.2661   0.0
V6     V     0.344   0.7661   0.5
V7     V     0.7661   0.5   0.344
V8     V     0.156   0.7339   0.0
V9     V     0.2661   0.0   0.844
V10     V     0.0   0.844   0.2661
V11     V     0.0   0.156   0.7339
V12     V     0.2661   0.0   0.156
V13     V     0.156   0.2661   0.0
V14     V     0.656   0.7661   0.5
Ti15     Ti     0.75   0.75   0.25
V16     V     0.5   0.656   0.2339
Ti17     Ti     0.25   0.75   0.25
V18     V     0.656   0.2339   0.5
Ti19     Ti     0.75   0.25   0.25
V20     V     0.7661   0.5   0.656
Ti21     Ti     0.75   0.25   0.75
V22     V     0.5   0.656   0.7661
Ti23     Ti     0.25   0.75   0.75
V24     V     0.2339   0.5   0.656
V25     V     0.5   0.344   0.7661
Ti26     Ti     0.25   0.25   0.75
V27     V     0.0   0.156   0.2661
V28     V     0.344   0.2339   0.5
V29     V     0.2339   0.5   0.344
V30     V     0.5   0.344   0.2339
Ti31     Ti     0.25   0.25   0.25
Ti32     Ti     0.75   0.75   0.75
Er33     Er     0.5   0.0   0.3219
Er34     Er     0.3219   0.5   0.0
Er35     Er     0.0   0.3219   0.5
Er36     Er     0.0   0.5   0.1781
Er37     Er     0.0   0.5   0.8219
Er38     Er     0.1781   0.0   0.5
Er39     Er     0.8219   0.0   0.5
Er40     Er     0.5   0.1781   0.0
Er41     Er     0.5   0.8219   0.0
Er42     Er     0.5   0.0   0.6781
Er43     Er     0.6781   0.5   0.0
Er44     Er     0.0   0.6781   0.5
Ce45     Ce     0.0   0.0   0.0
Ce46     Ce     0.5   0.5   0.5
loop_
_geom_bond_atom_site_label_1
_geom_bond_atom_site_label_2
_geom_bond_distance
_geom_bond_site_symmetry_2
_ccdc_geom_bond_type
V1     V8    9.605   1_655     S
V1     Er37    10.249   1_654     S
V1     Er36    10.249   1_655     S
V1     V10    10.084   1_655     S
V1     V3    10.084   1_565     S
V1     V4    10.084   1_654     S
V1     V2    10.084   1_564     S
V1     Ce45    9.497   1_665     S
V1     Er43    8.831   .     S
V1     Er41    10.935   .     S
V1     Ti15    8.24   .     S
V1     Ti32    8.24   1_554     S
V2     V3    9.605   1_556     S
V2     Er41    10.249   1_546     S
V2     Er40    10.249   1_556     S
V2     V11    10.084   1_655     S
V2     V5    10.084   1_556     S
V2     V4    10.084   1_645     S
V2     V1    10.084   1_546     S
V2     Ce45    9.497   1_656     S
V2     Er42    8.831   .     S
V2     Er39    10.935   .     S
V2     Ti21    8.24   .     S
V2     Ti32    8.24   1_545     S
V3     V2    9.605   1_554     S
V3     Er41    10.249   1_545     S
V3     Er40    10.249   .     S
V3     V5    10.084   .     S
V3     V27    10.084   1_655     S
V3     V10    10.084   1_645     S
V3     V1    10.084   1_545     S
V3     Ce45    9.497   1_655     S
V3     Er33    8.831   .     S
V3     Er39    10.935   .     S
V3     Ti15    8.24   1_545     S
V3     Ti19    8.24   .     S
V4     V11    9.605   1_565     S
V4     Er39    10.249   1_465     S
V4     Er38    10.249   1_565     S
V4     V9    10.084   1_565     S
V4     V8    10.084   1_556     S
V4     V2    10.084   1_465     S
V4     V1    10.084   1_456     S
V4     Ce45    9.497   1_566     S
V4     Er44    8.831   .     S
V4     Er37    10.935   .     S
V4     Ti23    8.24   .     S
V4     Ti32    8.24   1_455     S
V5     V13    9.605   1_655     S
V5     Er37    10.249   1_654     S
V5     Er36    10.249   1_655     S
V5     V27    10.084   1_655     S
V5     V11    10.084   1_654     S
V5     V2    10.084   1_554     S
V5     Ce45    9.497   1_655     S
V5     Er43    8.831   .     S
V5     Er40    10.935   .     S
V5     Ti19    8.24   .     S
V5     Ti21    8.24   1_554     S
V6     V14    9.605   .     S
V6     Er33    10.249   1_565     S
V6     Er42    10.249   1_565     S
V6     V16    10.084   .     S
V6     V24    10.084   .     S
V6     V29    10.084   .     S
V6     V22    10.084   .     S
V6     Ce46    9.497   .     S
V6     Er38    8.831   1_565     S
V6     Er44    10.935   .     S
V6     Ti23    8.24   .     S
V6     Ti17    8.24   .     S
V7     V20    9.605   .     S
V7     Er35    10.249   1_655     S
V7     Er44    10.249   1_655     S
V7     V18    10.084   .     S
V7     V16    10.084   .     S
V7     V30    10.084   .     S
V7     V14    10.084   .     S
V7     Ce46    9.497   .     S
V7     Er36    8.831   1_655     S
V7     Er43    10.935   .     S
V7     Ti15    8.24   .     S
V7     Ti19    8.24   .     S
V8     V1    9.605   1_455     S
V8     Er37    10.249   1_554     S
V8     Er36    10.249   .     S
V8     V12    10.084   1_565     S
V8     V10    10.084   .     S
V8     V9    10.084   1_564     S
V8     V4    10.084   1_554     S
V8     Ce45    9.497   1_565     S
V8     Er34    8.831   .     S
V8     Er41    10.935   .     S
V8     Ti17    8.24   .     S
V8     Ti23    8.24   1_554     S
V9     V12    9.605   1_556     S
V9     Er41    10.249   1_546     S
V9     Er40    10.249   1_556     S
V9     V11    10.084   .     S
V9     V4    10.084   1_545     S
V9     V8    10.084   1_546     S
V9     V13    10.084   1_556     S
V9     Ce45    9.497   1_556     S
V9     Er42    8.831   .     S
V9     Er38    10.935   .     S
V9     Ti26    8.24   .     S
V9     Ti23    8.24   1_545     S
V10     V27    9.605   1_565     S
V10     Er39    10.249   1_465     S
V10     Er38    10.249   1_565     S
V10     V12    10.084   1_565     S
V10     V3    10.084   1_465     S
V10     V1    10.084   1_455     S
V10     Ce45    9.497   1_565     S
V10     Er44    8.831   .     S
V10     Er36    10.935   .     S
V10     Ti17    8.24   .     S
V10     Ti15    8.24   1_455     S
V11     V4    9.605   1_545     S
V11     Er39    10.249   1_455     S
V11     Er38    10.249   .     S
V11     V5    10.084   1_456     S
V11     V13    10.084   1_556     S
V11     V2    10.084   1_455     S
V11     Ce45    9.497   1_556     S
V11     Er35    8.831   .     S
V11     Er37    10.935   .     S
V11     Ti26    8.24   .     S
V11     Ti21    8.24   1_455     S
V12     V9    9.605   1_554     S
V12     Er41    10.249   1_545     S
V12     Er40    10.249   .     S
V12     V13    10.084   .     S
V12     V8    10.084   1_545     S
V12     V27    10.084   .     S
V12     V10    10.084   1_545     S
V12     Ce45    9.497   .     S
V12     Er33    8.831   .     S
V12     Er38    10.935   .     S
V12     Ti31    8.24   .     S
V12     Ti17    8.24   1_545     S
V13     V5    9.605   1_455     S
V13     Er37    10.249   1_554     S
V13     Er36    10.249   .     S
V13     V27    10.084   .     S
V13     V11    10.084   1_554     S
V13     V9    10.084   1_554     S
V13     Ce45    9.497   .     S
V13     Er34    8.831   .     S
V13     Er40    10.935   .     S
V13     Ti31    8.24   .     S
V13     Ti26    8.24   1_554     S
V14     Er33    10.249   1_565     S
V14     Er42    10.249   1_565     S
V14     V16    10.084   .     S
V14     V22    10.084   .     S
V14     V20    10.084   .     S
V14     Ce46    9.497   .     S
V14     Er39    8.831   1_565     S
V14     Er44    10.935   1_655     S
V14     Ti32    8.24   .     S
V14     Ti15    8.24   .     S
Ti15     Er44    11.11   1_655     S
Ti15     Er43    11.11   .     S
Ti15     Er33    11.11   1_565     S
Ti15     Er41    11.11   .     S
Ti15     Er39    11.11   1_565     S
Ti15     Er36    11.11   1_655     S
Ti15     V3    8.24   1_565     S
Ti15     V10    8.24   1_655     S
Ti15     V16    8.24   .     S
V16     V30    9.605   .     S
V16     Er34    10.249   .     S
V16     Er43    10.249   .     S
V16     V29    10.084   .     S
V16     Ce46    9.497   .     S
V16     Er41    8.831   .     S
V16     Er33    10.935   1_565     S
V16     Ti17    8.24   .     S
Ti17     Er44    11.11   .     S
Ti17     Er34    11.11   .     S
Ti17     Er33    11.11   1_565     S
Ti17     Er41    11.11   .     S
Ti17     Er38    11.11   1_565     S
Ti17     Er36    11.11   .     S
Ti17     V12    8.24   1_565     S
Ti17     V29    8.24   .     S
V18     V28    9.605   .     S
V18     Er33    10.249   .     S
V18     Er42    10.249   .     S
V18     V20    10.084   .     S
V18     V30    10.084   .     S
V18     V25    10.084   .     S
V18     Ce46    9.497   .     S
V18     Er39    8.831   .     S
V18     Er35    10.935   1_655     S
V18     Ti21    8.24   .     S
V18     Ti19    8.24   .     S
Ti19     Er35    11.11   1_655     S
Ti19     Er43    11.11   .     S
Ti19     Er33    11.11   .     S
Ti19     Er39    11.11   .     S
Ti19     Er40    11.11   .     S
Ti19     Er36    11.11   1_655     S
Ti19     V27    8.24   1_655     S
Ti19     V30    8.24   .     S
V20     Er35    10.249   1_655     S
V20     Er44    10.249   1_655     S
V20     V22    10.084   .     S
V20     V25    10.084   .     S
V20     Ce46    9.497   .     S
V20     Er37    8.831   1_655     S
V20     Er43    10.935   1_556     S
V20     Ti32    8.24   .     S
V20     Ti21    8.24   .     S
Ti21     Er35    11.11   1_655     S
Ti21     Er43    11.11   1_556     S
Ti21     Er42    11.11   .     S
Ti21     Er39    11.11   .     S
Ti21     Er37    11.11   1_655     S
Ti21     Er40    11.11   1_556     S
Ti21     V5    8.24   1_556     S
Ti21     V11    8.24   1_655     S
Ti21     V25    8.24   .     S
V22     V25    9.605   .     S
V22     Er34    10.249   1_556     S
V22     Er43    10.249   1_556     S
V22     V24    10.084   .     S
V22     Ce46    9.497   .     S
V22     Er41    8.831   1_556     S
V22     Er42    10.935   1_565     S
V22     Ti32    8.24   .     S
V22     Ti23    8.24   .     S
Ti23     Er44    11.11   .     S
Ti23     Er34    11.11   1_556     S
Ti23     Er42    11.11   1_565     S
Ti23     Er41    11.11   1_556     S
Ti23     Er37    11.11   .     S
Ti23     Er38    11.11   1_565     S
Ti23     V8    8.24   1_556     S
Ti23     V9    8.24   1_565     S
Ti23     V24    8.24   .     S
V24     V29    9.605   .     S
V24     Er35    10.249   .     S
V24     Er44    10.249   .     S
V24     V28    10.084   .     S
V24     V25    10.084   .     S
V24     Ce46    9.497   .     S
V24     Er37    8.831   .     S
V24     Er34    10.935   1_556     S
V24     Ti26    8.24   .     S
V25     Er34    10.249   1_556     S
V25     Er43    10.249   1_556     S
V25     V28    10.084   .     S
V25     Ce46    9.497   .     S
V25     Er40    8.831   1_556     S
V25     Er42    10.935   .     S
V25     Ti26    8.24   .     S
Ti26     Er35    11.11   .     S
Ti26     Er34    11.11   1_556     S
Ti26     Er42    11.11   .     S
Ti26     Er37    11.11   .     S
Ti26     Er40    11.11   1_556     S
Ti26     Er38    11.11   .     S
Ti26     V13    8.24   1_556     S
Ti26     V28    8.24   .     S
V27     V10    9.605   1_545     S
V27     Er39    10.249   1_455     S
V27     Er38    10.249   .     S
V27     V5    10.084   1_455     S
V27     V3    10.084   1_455     S
V27     Ce45    9.497   .     S
V27     Er35    8.831   .     S
V27     Er36    10.935   .     S
V27     Ti31    8.24   .     S
V27     Ti19    8.24   1_455     S
V28     Er33    10.249   .     S
V28     Er42    10.249   .     S
V28     V30    10.084   .     S
V28     V29    10.084   .     S
V28     Ce46    9.497   .     S
V28     Er38    8.831   .     S
V28     Er35    10.935   .     S
V28     Ti31    8.24   .     S
V29     Er35    10.249   .     S
V29     Er44    10.249   .     S
V29     V30    10.084   .     S
V29     Ce46    9.497   .     S
V29     Er36    8.831   .     S
V29     Er34    10.935   .     S
V29     Ti31    8.24   .     S
V30     Er34    10.249   .     S
V30     Er43    10.249   .     S
V30     Ce46    9.497   .     S
V30     Er40    8.831   .     S
V30     Er33    10.935   .     S
V30     Ti31    8.24   .     S
Ti31     Er35    11.11   .     S
Ti31     Er34    11.11   .     S
Ti31     Er33    11.11   .     S
Ti31     Er40    11.11   .     S
Ti31     Er38    11.11   .     S
Ti31     Er36    11.11   .     S
Ti32     Er44    11.11   1_655     S
Ti32     Er43    11.11   1_556     S
Ti32     Er42    11.11   1_565     S
Ti32     Er41    11.11   1_556     S
Ti32     Er39    11.11   1_565     S
Ti32     Er37    11.11   1_655     S
Ti32     V1    8.24   1_556     S
Ti32     V2    8.24   1_565     S
Ti32     V4    8.24   1_655     S
Er33     V6    10.249   1_545     S
Er33     V14    10.249   1_545     S
Er33     Er42    10.97   .     S
Er33     Ti15    11.11   1_545     S
Er33     Ti17    11.11   1_545     S
Er33     Er41    11.328   1_545     S
Er33     Er40    11.328   .     S
Er33     Er38    11.328   .     S
Er33     Er39    11.328   .     S
Er33     V16    10.935   1_545     S
Er34     V25    10.249   1_554     S
Er34     V22    10.249   1_554     S
Er34     Er43    10.97   .     S
Er34     Ti23    11.11   1_554     S
Er34     Ti26    11.11   1_554     S
Er34     Er37    11.328   1_554     S
Er34     Er36    11.328   .     S
Er34     Er40    11.328   .     S
Er34     Er41    11.328   .     S
Er34     V24    10.935   1_554     S
Er35     V7    10.249   1_455     S
Er35     V20    10.249   1_455     S
Er35     Er44    10.97   .     S
Er35     Ti21    11.11   1_455     S
Er35     Ti19    11.11   1_455     S
Er35     Er39    11.328   1_455     S
Er35     Er38    11.328   .     S
Er35     Er36    11.328   .     S
Er35     Er37    11.328   .     S
Er35     V18    10.935   1_455     S
Er36     V5    10.249   1_455     S
Er36     V1    10.249   1_455     S
Er36     Er37    10.97   1_554     S
Er36     Ti19    11.11   1_455     S
Er36     Ti15    11.11   1_455     S
Er36     Er43    11.328   1_455     S
Er36     Er44    11.328   .     S
Er36     V7    8.831   1_455     S
Er37     V5    10.249   1_456     S
Er37     V13    10.249   1_556     S
Er37     V8    10.249   1_556     S
Er37     V1    10.249   1_456     S
Er37     Er36    10.97   1_556     S
Er37     Ti32    11.11   1_455     S
Er37     Ti21    11.11   1_455     S
Er37     Er43    11.328   1_456     S
Er37     Er34    11.328   1_556     S
Er37     Er44    11.328   .     S
Er37     V20    8.831   1_455     S
Er38     V4    10.249   1_545     S
Er38     V10    10.249   1_545     S
Er38     Er39    10.97   1_455     S
Er38     Ti17    11.11   1_545     S
Er38     Ti23    11.11   1_545     S
Er38     Er44    11.328   1_545     S
Er38     Er42    11.328   .     S
Er38     V6    8.831   1_545     S
Er39     V10    10.249   1_645     S
Er39     V27    10.249   1_655     S
Er39     V11    10.249   1_655     S
Er39     V4    10.249   1_645     S
Er39     Er38    10.97   1_655     S
Er39     Ti15    11.11   1_545     S
Er39     Ti32    11.11   1_545     S
Er39     Er44    11.328   1_645     S
Er39     Er35    11.328   1_655     S
Er39     Er42    11.328   .     S
Er39     V14    8.831   1_545     S
Er40     V9    10.249   1_554     S
Er40     V2    10.249   1_554     S
Er40     Er41    10.97   1_545     S
Er40     Ti26    11.11   1_554     S
Er40     Ti21    11.11   1_554     S
Er40     Er42    11.328   1_554     S
Er40     Er43    11.328   .     S
Er40     V25    8.831   1_554     S
Er41     V9    10.249   1_564     S
Er41     V12    10.249   1_565     S
Er41     V3    10.249   1_565     S
Er41     V2    10.249   1_564     S
Er41     Er40    10.97   1_565     S
Er41     Ti32    11.11   1_554     S
Er41     Ti23    11.11   1_554     S
Er41     Er42    11.328   1_564     S
Er41     Er33    11.328   1_565     S
Er41     Er43    11.328   .     S
Er41     V22    8.831   1_554     S
Er42     V14    10.249   1_545     S
Er42     V6    10.249   1_545     S
Er42     Ti32    11.11   1_545     S
Er42     Ti23    11.11   1_545     S
Er42     Er41    11.328   1_546     S
Er42     Er40    11.328   1_556     S
Er42     V22    10.935   1_545     S
Er43     V22    10.249   1_554     S
Er43     V25    10.249   1_554     S
Er43     Ti32    11.11   1_554     S
Er43     Ti21    11.11   1_554     S
Er43     Er37    11.328   1_654     S
Er43     Er36    11.328   1_655     S
Er43     V20    10.935   1_554     S
Er44     V20    10.249   1_455     S
Er44     V7    10.249   1_455     S
Er44     Ti32    11.11   1_455     S
Er44     Ti15    11.11   1_455     S
Er44     Er39    11.328   1_465     S
Er44     Er38    11.328   1_565     S
Er44     V14    10.935   1_455     S
Ce45     V1    9.497   1_445     S
Ce45     V2    9.497   1_454     S
Ce45     V4    9.497   1_544     S
Ce45     V5    9.497   1_455     S
Ce45     V9    9.497   1_554     S
Ce45     V10    9.497   1_545     S
Ce45     V11    9.497   1_554     S
Ce45     V3    9.497   1_455     S
Ce45     V8    9.497   1_545     S
