data_odk
_audit_creation_date              2020-02-02
_audit_creation_method            'Pymatgen'
_symmetry_space_group_name_H-M    'P1'
_symmetry_Int_Tables_number       1
loop_
_symmetry_equiv_pos_as_xyz
  x,y,z
_cell_length_a                    37.2618
_cell_length_b                    37.2618
_cell_length_c                    114.9577
_cell_angle_alpha                 90.0
_cell_angle_beta                 90.0
_cell_angle_gamma                 90.0
loop_
_atom_site_label
_atom_site_type_symbol
_atom_site_fract_x
_atom_site_fract_y
_atom_site_fract_z
Be1     Be     0.4274   0.2072   0.9374
Be2     Be     0.7928   0.5726   0.9374
V3     V     0.6399   0.3601   0.9565
Be4     Be     0.2072   0.4274   0.9374
Be5     Be     0.5726   0.7928   0.9374
V6     V     0.3601   0.6399   0.9565
Ce7     Ce     0.4051   0.4051   0.879
Ce8     Ce     0.5949   0.5949   0.879
C9     C     0.2982   0.0362   0.8061
Li10     Li     0.366   0.9925   0.8891
C11     C     0.0362   0.2982   0.8061
Li12     Li     0.9925   0.366   0.8891
Er13     Er     0.3045   0.3045   0.8053
He14     He     0.1904   0.8096   0.9176
C15     C     0.7018   0.9638   0.8061
Li16     Li     0.634   0.0075   0.8891
C17     C     0.9638   0.7018   0.8061
Li18     Li     0.0075   0.634   0.8891
Er19     Er     0.6955   0.6955   0.8053
He20     He     0.8096   0.1904   0.9176
B21     B     0.0949   0.9051   0.7685
B22     B     0.9051   0.0949   0.7685
Be23     Be     0.7072   0.0726   0.5626
Be24     Be     0.0726   0.7072   0.5626
V25     V     0.8601   0.8601   0.5435
Be26     Be     0.9274   0.2928   0.5626
Be27     Be     0.2928   0.9274   0.5626
V28     V     0.1399   0.1399   0.5435
B29     B     0.4051   0.4051   0.7315
B30     B     0.5949   0.5949   0.7315
Ce31     Ce     0.0949   0.9051   0.621
Ce32     Ce     0.9051   0.0949   0.621
He33     He     0.6904   0.6904   0.5824
C34     C     0.5362   0.2018   0.6939
Li35     Li     0.4925   0.134   0.6109
C36     C     0.7982   0.4638   0.6939
Li37     Li     0.866   0.5075   0.6109
Er38     Er     0.8045   0.1955   0.6947
C39     C     0.4638   0.7982   0.6939
Li40     Li     0.5075   0.866   0.6109
C41     C     0.2018   0.5362   0.6939
Li42     Li     0.134   0.4925   0.6109
Er43     Er     0.1955   0.8045   0.6947
He44     He     0.3096   0.3096   0.5824
S45     S     0.0   0.5   0.75
S46     S     0.5   0.0   0.75
H47     H     0.5916   0.2186   0.5
Ti48     Ti     0.3702   0.3703   0.5
H49     H     0.2186   0.5916   0.5
H50     H     0.4084   0.7814   0.5
Ti51     Ti     0.6298   0.6298   0.5
H52     H     0.7814   0.4084   0.5
H53     H     0.7186   0.9084   0.0
Ti54     Ti     0.8702   0.1298   0.0
H55     H     0.0916   0.2814   0.0
H56     H     0.9084   0.7186   0.0
Ti57     Ti     0.1298   0.8702   0.0
H58     H     0.2814   0.0916   0.0
Be59     Be     0.2072   0.4274   0.0626
Be60     Be     0.5726   0.7928   0.0626
V61     V     0.3601   0.6399   0.0435
Be62     Be     0.4274   0.2072   0.0626
Be63     Be     0.7928   0.5726   0.0626
V64     V     0.6399   0.3601   0.0435
Ce65     Ce     0.4051   0.4051   0.121
Ce66     Ce     0.5949   0.5949   0.121
C67     C     0.0362   0.2982   0.1939
Li68     Li     0.9925   0.366   0.1109
C69     C     0.2982   0.0362   0.1939
Li70     Li     0.366   0.9925   0.1109
Er71     Er     0.3045   0.3045   0.1947
He72     He     0.8096   0.1904   0.0824
C73     C     0.7018   0.9638   0.1939
Li74     Li     0.634   0.0075   0.1109
C75     C     0.9638   0.7018   0.1939
Li76     Li     0.0075   0.634   0.1109
Er77     Er     0.6955   0.6955   0.1947
He78     He     0.1904   0.8096   0.0824
B79     B     0.9051   0.0949   0.2315
B80     B     0.0949   0.9051   0.2315
Be81     Be     0.0726   0.7072   0.4374
Be82     Be     0.7072   0.0726   0.4374
V83     V     0.8601   0.8601   0.4565
Be84     Be     0.2928   0.9274   0.4374
Be85     Be     0.9274   0.2928   0.4374
V86     V     0.1399   0.1399   0.4565
B87     B     0.4051   0.4051   0.2685
B88     B     0.5949   0.5949   0.2685
Ce89     Ce     0.9051   0.0949   0.379
Ce90     Ce     0.0949   0.9051   0.379
He91     He     0.6904   0.6904   0.4176
C92     C     0.7982   0.4638   0.3061
Li93     Li     0.866   0.5075   0.3891
C94     C     0.5362   0.2018   0.3061
Li95     Li     0.4925   0.134   0.3891
Er96     Er     0.8045   0.1955   0.3053
C97     C     0.2018   0.5362   0.3061
Li98     Li     0.134   0.4925   0.3891
C99     C     0.4638   0.7982   0.3061
Li100     Li     0.5075   0.866   0.3891
Er101     Er     0.1955   0.8045   0.3053
He102     He     0.3096   0.3096   0.4176
S103     S     0.5   0.0   0.25
S104     S     0.0   0.5   0.25
loop_
_geom_bond_atom_site_label_1
_geom_bond_atom_site_label_2
_geom_bond_distance
_geom_bond_site_symmetry_2
_ccdc_geom_bond_type
Be1     Ce7    10.0   .     S
Be1     V3    10.0   .     S
Be1     Li10    10.0   1_545     S
Be1     H58    10.0   1_556     S
Be2     Ce8    10.0   .     S
Be2     V3    10.0   .     S
Be2     Li18    10.0   1_655     S
Be2     H56    10.0   1_556     S
V3     He20    10.0   .     S
V3     V64    10.001   1_556     S
Be4     Ce7    10.0   .     S
Be4     V6    10.0   .     S
Be4     Li12    10.0   1_455     S
Be4     H55    10.0   1_556     S
Be5     Ce8    10.0   .     S
Be5     V6    10.0   .     S
Be5     Li16    10.0   1_565     S
Be5     H53    10.0   1_556     S
V6     He14    10.0   .     S
V6     V61    10.001   1_556     S
Ce7     Ce8    10.0   .     S
Ce7     Er13    10.0   .     S
Ce8     Er19    10.0   .     S
C9     S46    10.0   .     S
C9     Li10    10.0   1_545     S
C9     Er13    10.0   .     S
C9     B21    10.0   1_545     S
Li10     Be1    10.0   1_565     S
Li10     C9    10.0   1_565     S
Li10     He14    10.0   .     S
Li10     Li16    10.0   1_565     S
C11     S45    10.0   .     S
C11     Li12    10.0   1_455     S
C11     Er13    10.0   .     S
C11     B22    10.0   1_455     S
Li12     Be4    10.0   1_655     S
Li12     C11    10.0   1_655     S
Li12     He20    10.0   .     S
Li12     Li18    10.0   1_655     S
Er13     B29    10.001   .     S
He14     Li18    10.0   .     S
He14     Ti57    10.0   1_556     S
C15     S46    10.0   1_565     S
C15     Li16    10.0   1_565     S
C15     Er19    10.0   .     S
C15     B22    10.0   1_565     S
Li16     Be5    10.0   1_545     S
Li16     C15    10.0   1_545     S
Li16     He20    10.0   .     S
Li16     Li10    10.0   1_545     S
C17     S45    10.0   1_655     S
C17     Li18    10.0   1_655     S
C17     Er19    10.0   .     S
C17     B21    10.0   1_655     S
Li18     Be2    10.0   1_455     S
Li18     C17    10.0   1_455     S
Li18     Li12    10.0   1_455     S
Er19     B30    10.001   .     S
He20     Ti54    10.0   1_556     S
B21     C9    10.0   1_565     S
B21     C17    10.0   1_455     S
B21     B22    10.0   1_465     S
B21     Er43    10.001   .     S
B22     C11    10.0   1_655     S
B22     C15    10.0   1_545     S
B22     B21    10.0   1_645     S
B22     Er38    10.001   .     S
Be23     Ce32    10.0   .     S
Be23     V25    10.0   1_545     S
Be23     Li35    10.0   .     S
Be23     H47    10.0   .     S
Be24     Ce31    10.0   .     S
Be24     V25    10.0   1_455     S
Be24     Li42    10.0   .     S
Be24     H49    10.0   .     S
V25     He33    10.0   .     S
V25     Be24    10.0   1_655     S
V25     Be23    10.0   1_565     S
V25     V83    10.001   .     S
Be26     Ce32    10.0   .     S
Be26     V28    10.0   1_655     S
Be26     Li37    10.0   .     S
Be26     H52    10.0   .     S
Be27     Ce31    10.0   .     S
Be27     V28    10.0   1_565     S
Be27     Li40    10.0   .     S
Be27     H50    10.0   .     S
V28     He44    10.0   .     S
V28     Be26    10.0   1_455     S
V28     Be27    10.0   1_545     S
V28     V86    10.001   .     S
B29     B30    10.0   .     S
B29     C34    10.0   .     S
B29     C41    10.0   .     S
B30     C36    10.0   .     S
B30     C39    10.0   .     S
Ce31     Ce32    10.0   1_465     S
Ce31     Er43    10.0   .     S
Ce32     Ce31    10.0   1_645     S
Ce32     Er38    10.0   .     S
He33     Li40    10.0   .     S
He33     Li37    10.0   .     S
He33     Ti51    10.0   .     S
C34     S46    10.0   .     S
C34     Li35    10.0   .     S
C34     Er38    10.0   .     S
Li35     He44    10.0   .     S
Li35     Li40    10.0   1_545     S
C36     S45    10.0   1_655     S
C36     Li37    10.0   .     S
C36     Er38    10.0   .     S
Li37     Li42    10.0   1_655     S
C39     S46    10.0   1_565     S
C39     Li40    10.0   .     S
C39     Er43    10.0   .     S
Li40     Li35    10.0   1_565     S
C41     S45    10.0   .     S
C41     Li42    10.0   .     S
C41     Er43    10.0   .     S
Li42     He44    10.0   .     S
Li42     Li37    10.0   1_455     S
He44     Ti48    10.0   .     S
S45     C17    10.0   1_455     S
S45     C36    10.0   1_455     S
S46     C15    10.0   1_545     S
S46     C39    10.0   1_545     S
H47     Be82    10.0   .     S
H47     Ti48    10.0   .     S
H47     H52    10.0   .     S
Ti48     He102    10.0   .     S
Ti48     H49    10.0   .     S
H49     Be81    10.0   .     S
H49     H50    10.0   .     S
H50     Be84    10.0   .     S
H50     Ti51    10.0   .     S
Ti51     He91    10.0   .     S
Ti51     H52    10.0   .     S
H52     Be85    10.0   .     S
H53     Be60    10.0   .     S
H53     Be5    10.0   1_554     S
H53     Ti54    10.0   1_565     S
H53     H56    10.0   .     S
Ti54     H53    10.0   1_545     S
Ti54     He20    10.0   1_554     S
Ti54     He72    10.0   .     S
Ti54     H55    10.0   1_655     S
H55     Be59    10.0   .     S
H55     Be4    10.0   1_554     S
H55     Ti54    10.0   1_455     S
H55     H58    10.0   .     S
H56     Be63    10.0   .     S
H56     Be2    10.0   1_554     S
H56     Ti57    10.0   1_655     S
Ti57     H56    10.0   1_455     S
Ti57     He14    10.0   1_554     S
Ti57     He78    10.0   .     S
Ti57     H58    10.0   1_565     S
H58     Be62    10.0   .     S
H58     Be1    10.0   1_554     S
H58     Ti57    10.0   1_545     S
Be59     Ce65    10.0   .     S
Be59     V61    10.0   .     S
Be59     Li68    10.0   1_455     S
Be60     Ce66    10.0   .     S
Be60     V61    10.0   .     S
Be60     Li74    10.0   1_565     S
V61     He78    10.0   .     S
V61     V6    10.001   1_554     S
Be62     Ce65    10.0   .     S
Be62     V64    10.0   .     S
Be62     Li70    10.0   1_545     S
Be63     Ce66    10.0   .     S
Be63     V64    10.0   .     S
Be63     Li76    10.0   1_655     S
V64     He72    10.0   .     S
V64     V3    10.001   1_554     S
Ce65     Ce66    10.0   .     S
Ce65     Er71    10.0   .     S
Ce66     Er77    10.0   .     S
C67     S104    10.0   .     S
C67     Li68    10.0   1_455     S
C67     Er71    10.0   .     S
C67     B79    10.0   1_455     S
Li68     Be59    10.0   1_655     S
Li68     C67    10.0   1_655     S
Li68     He72    10.0   .     S
Li68     Li76    10.0   1_655     S
C69     S103    10.0   .     S
C69     Li70    10.0   1_545     S
C69     Er71    10.0   .     S
C69     B80    10.0   1_545     S
Li70     Be62    10.0   1_565     S
Li70     C69    10.0   1_565     S
Li70     He78    10.0   .     S
Li70     Li74    10.0   1_565     S
Er71     B87    10.001   .     S
He72     Li74    10.0   .     S
C73     S103    10.0   1_565     S
C73     Li74    10.0   1_565     S
C73     Er77    10.0   .     S
C73     B79    10.0   1_565     S
Li74     Be60    10.0   1_545     S
Li74     C73    10.0   1_545     S
Li74     Li70    10.0   1_545     S
C75     S104    10.0   1_655     S
C75     Li76    10.0   1_655     S
C75     Er77    10.0   .     S
C75     B80    10.0   1_655     S
Li76     Be63    10.0   1_455     S
Li76     C75    10.0   1_455     S
Li76     He78    10.0   .     S
Li76     Li68    10.0   1_455     S
Er77     B88    10.001   .     S
B79     C67    10.0   1_655     S
B79     C73    10.0   1_545     S
B79     B80    10.0   1_645     S
B79     Er96    10.001   .     S
B80     C69    10.0   1_565     S
B80     C75    10.0   1_455     S
B80     B79    10.0   1_465     S
B80     Er101    10.001   .     S
Be81     Ce90    10.0   .     S
Be81     V83    10.0   1_455     S
Be81     Li98    10.0   .     S
Be82     Ce89    10.0   .     S
Be82     V83    10.0   1_545     S
Be82     Li95    10.0   .     S
V83     He91    10.0   .     S
V83     Be81    10.0   1_655     S
V83     Be82    10.0   1_565     S
Be84     Ce90    10.0   .     S
Be84     V86    10.0   1_565     S
Be84     Li100    10.0   .     S
Be85     Ce89    10.0   .     S
Be85     V86    10.0   1_655     S
Be85     Li93    10.0   .     S
V86     He102    10.0   .     S
V86     Be84    10.0   1_545     S
V86     Be85    10.0   1_455     S
B87     B88    10.0   .     S
B87     C94    10.0   .     S
B87     C97    10.0   .     S
B88     C92    10.0   .     S
B88     C99    10.0   .     S
Ce89     Ce90    10.0   1_645     S
Ce89     Er96    10.0   .     S
Ce90     Ce89    10.0   1_465     S
Ce90     Er101    10.0   .     S
He91     Li93    10.0   .     S
He91     Li100    10.0   .     S
C92     S104    10.0   1_655     S
C92     Li93    10.0   .     S
C92     Er96    10.0   .     S
Li93     Li98    10.0   1_655     S
C94     S103    10.0   .     S
C94     Li95    10.0   .     S
C94     Er96    10.0   .     S
Li95     He102    10.0   .     S
Li95     Li100    10.0   1_545     S
C97     S104    10.0   .     S
C97     Li98    10.0   .     S
C97     Er101    10.0   .     S
Li98     He102    10.0   .     S
Li98     Li93    10.0   1_455     S
C99     S103    10.0   1_565     S
C99     Li100    10.0   .     S
C99     Er101    10.0   .     S
Li100     Li95    10.0   1_565     S
S103     C73    10.0   1_545     S
S103     C99    10.0   1_545     S
S104     C75    10.0   1_455     S
S104     C92    10.0   1_455     S
