data_ofpa
_audit_creation_date              2020-02-02
_audit_creation_method            'Pymatgen'
_symmetry_space_group_name_H-M    'P1'
_symmetry_Int_Tables_number       1
loop_
_symmetry_equiv_pos_as_xyz
  x,y,z
_cell_length_a                    52.7844
_cell_length_b                    52.7844
_cell_length_c                    107.4881
_cell_angle_alpha                 90.0
_cell_angle_beta                 90.0
_cell_angle_gamma                 90.0
loop_
_atom_site_label
_atom_site_type_symbol
_atom_site_fract_x
_atom_site_fract_y
_atom_site_fract_z
Ti1     Ti     0.6362   0.6362   0.6126
Ti2     Ti     0.3638   0.3638   0.6126
Ce3     Ce     0.87   0.264   0.8188
Ce4     Ce     0.736   0.13   0.8188
Ce5     Ce     0.264   0.87   0.8188
Ce6     Ce     0.13   0.736   0.8188
Ce7     Ce     0.236   0.37   0.6812
Ce8     Ce     0.37   0.236   0.6812
Er9     Er     0.9544   0.417   0.7829
Er10     Er     0.0456   0.583   0.7829
Er11     Er     0.083   0.4544   0.7171
Er12     Er     0.917   0.5456   0.7171
Er13     Er     0.417   0.9544   0.7829
Er14     Er     0.583   0.0456   0.7829
Er15     Er     0.4544   0.083   0.7171
Er16     Er     0.5456   0.917   0.7171
Ce17     Ce     0.764   0.63   0.6812
Ce18     Ce     0.63   0.764   0.6812
Ti19     Ti     0.1362   0.8638   0.8874
Ti20     Ti     0.8638   0.1362   0.8874
V21     V     0.933   0.067   0.9671
V22     V     0.933   0.933   0.0329
V23     V     0.067   0.933   0.9671
V24     V     0.067   0.067   0.0329
V25     V     0.433   0.567   0.4671
V26     V     0.433   0.433   0.5329
V27     V     0.567   0.567   0.5329
V28     V     0.567   0.433   0.4671
Ce29     Ce     0.736   0.87   0.1812
Ce30     Ce     0.87   0.736   0.1812
Er31     Er     0.583   0.9544   0.2171
Er32     Er     0.417   0.0456   0.2171
Er33     Er     0.5456   0.083   0.2829
Er34     Er     0.4544   0.917   0.2829
Ce35     Ce     0.37   0.764   0.3188
Ce36     Ce     0.236   0.63   0.3188
Ce37     Ce     0.264   0.13   0.1812
Ce38     Ce     0.13   0.264   0.1812
Er39     Er     0.9544   0.583   0.2171
Er40     Er     0.0456   0.417   0.2171
Er41     Er     0.083   0.5456   0.2829
Er42     Er     0.917   0.4544   0.2829
Ce43     Ce     0.764   0.37   0.3188
Ce44     Ce     0.63   0.236   0.3188
Ti45     Ti     0.1362   0.1362   0.1126
Ti46     Ti     0.8638   0.8638   0.1126
Ti47     Ti     0.6362   0.3638   0.3874
Ti48     Ti     0.3638   0.6362   0.3874
loop_
_geom_bond_atom_site_label_1
_geom_bond_atom_site_label_2
_geom_bond_distance
_geom_bond_site_symmetry_2
_ccdc_geom_bond_type
Ti1     Ce18    10.0   .     S
Ti1     Ce17    10.0   .     S
Ti1     V27    10.001   .     S
Ti2     Ce8    10.0   .     S
Ti2     Ce7    10.0   .     S
Ti2     V26    10.001   .     S
Ce3     Ti20    10.0   .     S
Ce3     Er9    10.0   .     S
Ce3     Ce4    10.0   .     S
Ce4     Ti20    10.0   .     S
Ce4     Er14    10.0   .     S
Ce5     Ti19    10.0   .     S
Ce5     Er13    10.0   .     S
Ce5     Ce6    10.0   .     S
Ce6     Ti19    10.0   .     S
Ce6     Er10    10.0   .     S
Ce7     Er11    10.0   .     S
Ce7     Ce8    10.0   .     S
Ce8     Er15    10.0   .     S
Er9     Er12    10.0   .     S
Er9     Er11    10.0   1_655     S
Er9     Er10    10.0   1_655     S
Er10     Er11    10.0   .     S
Er10     Er12    10.0   1_455     S
Er10     Er9    10.0   1_455     S
Er11     Er9    10.0   1_455     S
Er11     Er12    10.0   1_455     S
Er12     Er10    10.0   1_655     S
Er12     Er11    10.0   1_655     S
Er12     Ce17    10.0   .     S
Er13     Er16    10.0   .     S
Er13     Er15    10.0   1_565     S
Er13     Er14    10.0   1_565     S
Er14     Er15    10.0   .     S
Er14     Er16    10.0   1_545     S
Er14     Er13    10.0   1_545     S
Er15     Er13    10.0   1_545     S
Er15     Er16    10.0   1_545     S
Er16     Er14    10.0   1_565     S
Er16     Er15    10.0   1_565     S
Er16     Ce18    10.0   .     S
Ce17     Ce18    10.0   .     S
Ti19     V23    10.001   .     S
Ti20     V21    10.001   .     S
V21     V24    10.0   1_656     S
V21     V22    10.0   1_546     S
V21     V23    10.0   1_645     S
V22     Ti46    10.001   .     S
V22     V24    10.0   1_665     S
V22     V23    10.0   1_654     S
V22     V21    10.0   1_564     S
V23     V24    10.0   1_566     S
V23     V22    10.0   1_456     S
V23     V21    10.0   1_465     S
V24     Ti45    10.001   .     S
V24     V23    10.0   1_544     S
V24     V21    10.0   1_454     S
V24     V22    10.0   1_445     S
V25     Ti48    10.001   .     S
V25     V27    10.0   .     S
V25     V26    10.0   .     S
V25     V28    10.0   .     S
V26     V28    10.0   .     S
V26     V27    10.0   .     S
V27     V28    10.0   .     S
V28     Ti47    10.001   .     S
Ce29     Ti46    10.0   .     S
Ce29     Er31    10.0   .     S
Ce29     Ce30    10.0   .     S
Ce30     Ti46    10.0   .     S
Ce30     Er39    10.0   .     S
Er31     Er34    10.0   .     S
Er31     Er33    10.0   1_565     S
Er31     Er32    10.0   1_565     S
Er32     Er33    10.0   .     S
Er32     Er34    10.0   1_545     S
Er32     Er31    10.0   1_545     S
Er32     Ce37    10.0   .     S
Er33     Er31    10.0   1_545     S
Er33     Er34    10.0   1_545     S
Er33     Ce44    10.0   .     S
Er34     Er32    10.0   1_565     S
Er34     Er33    10.0   1_565     S
Er34     Ce35    10.0   .     S
Ce35     Ti48    10.0   .     S
Ce35     Ce36    10.0   .     S
Ce36     Ti48    10.0   .     S
Ce36     Er41    10.0   .     S
Ce37     Ti45    10.0   .     S
Ce37     Ce38    10.0   .     S
Ce38     Ti45    10.0   .     S
Ce38     Er40    10.0   .     S
Er39     Er42    10.0   .     S
Er39     Er41    10.0   1_655     S
Er39     Er40    10.0   1_655     S
Er40     Er41    10.0   .     S
Er40     Er42    10.0   1_455     S
Er40     Er39    10.0   1_455     S
Er41     Er39    10.0   1_455     S
Er41     Er42    10.0   1_455     S
Er42     Er40    10.0   1_655     S
Er42     Er41    10.0   1_655     S
Er42     Ce43    10.0   .     S
Ce43     Ti47    10.0   .     S
Ce43     Ce44    10.0   .     S
Ce44     Ti47    10.0   .     S
