data_oge
_audit_creation_date              2020-02-02
_audit_creation_method            'Pymatgen'
_symmetry_space_group_name_H-M    'P1'
_symmetry_Int_Tables_number       1
loop_
_symmetry_equiv_pos_as_xyz
  x,y,z
_cell_length_a                    78.686
_cell_length_b                    78.686
_cell_length_c                    78.686
_cell_angle_alpha                 90.0
_cell_angle_beta                 90.0
_cell_angle_gamma                 90.0
loop_
_atom_site_label
_atom_site_type_symbol
_atom_site_fract_x
_atom_site_fract_y
_atom_site_fract_z
Er1     Er     0.6156   0.9026   0.9026
Er2     Er     0.9026   0.6156   0.9026
Er3     Er     0.9026   0.6156   0.0974
Er4     Er     0.6156   0.9026   0.0974
Ti5     Ti     0.833   0.6582   0.0
V6     V     0.7247   0.7247   0.0
Ce7     Ce     0.6348   0.6348   0.0
Ti8     Ti     0.6582   0.833   0.0
Er9     Er     0.9026   0.9026   0.6156
Er10     Er     0.6156   0.0974   0.9026
Er11     Er     0.9026   0.0974   0.6156
Ti12     Ti     0.6582   0.0   0.833
V13     V     0.7247   0.0   0.7247
Ce14     Ce     0.6348   0.0   0.6348
Ti15     Ti     0.833   0.0   0.6582
Er16     Er     0.6156   0.0974   0.0974
Er17     Er     0.0974   0.6156   0.0974
Er18     Er     0.0974   0.0974   0.6156
Ti19     Ti     0.3418   0.0   0.833
Ti20     Ti     0.167   0.0   0.6582
V21     V     0.2753   0.0   0.7247
Ce22     Ce     0.3652   0.0   0.6348
Er23     Er     0.3844   0.9026   0.9026
Ti24     Ti     0.3418   0.833   0.0
Ti25     Ti     0.167   0.6582   0.0
V26     V     0.2753   0.7247   0.0
Ce27     Ce     0.3652   0.6348   0.0
Ti28     Ti     0.833   0.3418   0.0
Ti29     Ti     0.6582   0.167   0.0
V30     V     0.7247   0.2753   0.0
Ce31     Ce     0.6348   0.3652   0.0
Er32     Er     0.9026   0.3844   0.9026
Ti33     Ti     0.0   0.3418   0.833
Ti34     Ti     0.0   0.167   0.6582
V35     V     0.0   0.2753   0.7247
Ce36     Ce     0.0   0.3652   0.6348
Er37     Er     0.3844   0.0974   0.9026
Er38     Er     0.0974   0.3844   0.9026
Ti39     Ti     0.3418   0.167   0.0
V40     V     0.2753   0.2753   0.0
Ce41     Ce     0.3652   0.3652   0.0
Ti42     Ti     0.167   0.3418   0.0
Er43     Er     0.3844   0.9026   0.0974
Er44     Er     0.3844   0.0974   0.0974
Ti45     Ti     0.3418   0.0   0.167
V46     V     0.2753   0.0   0.2753
Ce47     Ce     0.3652   0.0   0.3652
Ti48     Ti     0.167   0.0   0.3418
Er49     Er     0.0974   0.9026   0.3844
Ti50     Ti     0.0   0.833   0.3418
Ti51     Ti     0.0   0.6582   0.167
V52     V     0.0   0.7247   0.2753
Ce53     Ce     0.0   0.6348   0.3652
Er54     Er     0.9026   0.9026   0.3844
Ti55     Ti     0.833   0.0   0.3418
Ti56     Ti     0.6582   0.0   0.167
V57     V     0.7247   0.0   0.2753
Ce58     Ce     0.6348   0.0   0.3652
Er59     Er     0.0974   0.3844   0.0974
Er60     Er     0.9026   0.3844   0.0974
Er61     Er     0.9026   0.0974   0.3844
Er62     Er     0.0974   0.0974   0.3844
Ti63     Ti     0.0   0.3418   0.167
Ti64     Ti     0.0   0.167   0.3418
V65     V     0.0   0.2753   0.2753
Ce66     Ce     0.0   0.3652   0.3652
Er67     Er     0.0974   0.6156   0.9026
Er68     Er     0.0974   0.9026   0.6156
Ti69     Ti     0.0   0.6582   0.833
V70     V     0.0   0.7247   0.7247
Ce71     Ce     0.0   0.6348   0.6348
Ti72     Ti     0.0   0.833   0.6582
Er73     Er     0.4026   0.8844   0.4026
Er74     Er     0.8844   0.4026   0.4026
Er75     Er     0.4026   0.4026   0.8844
Ti76     Ti     0.667   0.5   0.8418
Ce77     Ce     0.8652   0.5   0.8652
V78     V     0.7753   0.5   0.7753
Ti79     Ti     0.8418   0.5   0.667
Er80     Er     0.8844   0.5974   0.5974
Ti81     Ti     0.8418   0.667   0.5
Ce82     Ce     0.8652   0.8652   0.5
V83     V     0.7753   0.7753   0.5
Ti84     Ti     0.667   0.8418   0.5
Er85     Er     0.5974   0.8844   0.5974
Er86     Er     0.5974   0.5974   0.8844
Ti87     Ti     0.5   0.8418   0.667
Ce88     Ce     0.5   0.8652   0.8652
V89     V     0.5   0.7753   0.7753
Ti90     Ti     0.5   0.667   0.8418
Er91     Er     0.8844   0.4026   0.5974
Er92     Er     0.5974   0.4026   0.8844
Ti93     Ti     0.5   0.333   0.8418
Ti94     Ti     0.5   0.1582   0.667
Ce95     Ce     0.5   0.1348   0.8652
V96     V     0.5   0.2247   0.7753
Er97     Er     0.5974   0.1156   0.5974
Ti98     Ti     0.8418   0.333   0.5
Ti99     Ti     0.667   0.1582   0.5
Ce100     Ce     0.8652   0.1348   0.5
V101     V     0.7753   0.2247   0.5
Er102     Er     0.5974   0.1156   0.4026
Er103     Er     0.5974   0.4026   0.1156
Ti104     Ti     0.5   0.1582   0.333
V105     V     0.5   0.2247   0.2247
Ce106     Ce     0.5   0.1348   0.1348
Ti107     Ti     0.5   0.333   0.1582
Er108     Er     0.8844   0.5974   0.4026
Er109     Er     0.5974   0.8844   0.4026
Ti110     Ti     0.8418   0.5   0.333
Ti111     Ti     0.667   0.5   0.1582
Ce112     Ce     0.8652   0.5   0.1348
V113     V     0.7753   0.5   0.2247
Er114     Er     0.5974   0.5974   0.1156
Ti115     Ti     0.5   0.8418   0.333
Ti116     Ti     0.5   0.667   0.1582
Ce117     Ce     0.5   0.8652   0.1348
V118     V     0.5   0.7753   0.2247
Er119     Er     0.1156   0.4026   0.4026
Er120     Er     0.4026   0.1156   0.4026
Er121     Er     0.4026   0.4026   0.1156
Er122     Er     0.4026   0.5974   0.1156
Er123     Er     0.1156   0.5974   0.4026
Ti124     Ti     0.333   0.5   0.1582
V125     V     0.2247   0.5   0.2247
Ce126     Ce     0.1348   0.5   0.1348
Ti127     Ti     0.1582   0.5   0.333
Er128     Er     0.4026   0.1156   0.5974
Er129     Er     0.1156   0.4026   0.5974
Ti130     Ti     0.333   0.1582   0.5
V131     V     0.2247   0.2247   0.5
Ce132     Ce     0.1348   0.1348   0.5
Ti133     Ti     0.1582   0.333   0.5
Er134     Er     0.4026   0.8844   0.5974
Er135     Er     0.4026   0.5974   0.8844
Ti136     Ti     0.333   0.8418   0.5
Ti137     Ti     0.1582   0.667   0.5
Ce138     Ce     0.1348   0.8652   0.5
V139     V     0.2247   0.7753   0.5
Er140     Er     0.1156   0.5974   0.5974
Ti141     Ti     0.1582   0.5   0.667
Ti142     Ti     0.333   0.5   0.8418
Ce143     Ce     0.1348   0.5   0.8652
V144     V     0.2247   0.5   0.7753
loop_
_geom_bond_atom_site_label_1
_geom_bond_atom_site_label_2
_geom_bond_distance
_geom_bond_site_symmetry_2
_ccdc_geom_bond_type
Er1     Ce88    10.0   .     S
Er1     Ti8    10.0   1_556     S
Er1     Ti12    10.0   1_565     S
Er2     Ce77    10.0   .     S
Er2     Ti5    10.0   1_556     S
Er2     Ti69    10.0   1_655     S
Er3     Ce112    10.0   .     S
Er3     Ti5    10.0   .     S
Er3     Ti51    10.0   1_655     S
Er4     Ce117    10.0   .     S
Er4     Ti8    10.0   .     S
Er4     Ti56    10.0   1_565     S
Ti5     Er2    10.0   1_554     S
Ti5     V6    10.0   .     S
V6     Ce7    10.0   .     S
V6     Ti8    10.0   .     S
Ce7     Er86    10.0   1_554     S
Ce7     Er114    10.0   .     S
Ti8     Er1    10.0   1_554     S
Er9     Ce82    10.0   .     S
Er9     Ti15    10.0   1_565     S
Er9     Ti72    10.0   1_655     S
Er10     Ce95    10.0   .     S
Er10     Ti12    10.0   .     S
Er10     Ti29    10.0   1_556     S
Er11     Ce100    10.0   .     S
Er11     Ti15    10.0   .     S
Er11     Ti34    10.0   1_655     S
Ti12     Er1    10.0   1_545     S
Ti12     V13    10.0   .     S
V13     Ce14    10.0   .     S
V13     Ti15    10.0   .     S
Ce14     Er85    10.0   1_545     S
Ce14     Er97    10.0   .     S
Ti15     Er9    10.0   1_545     S
Er16     Ce106    10.0   .     S
Er16     Ti29    10.0   .     S
Er16     Ti56    10.0   .     S
Er17     Ce126    10.0   .     S
Er17     Ti25    10.0   .     S
Er17     Ti51    10.0   .     S
Er18     Ce132    10.0   .     S
Er18     Ti20    10.0   .     S
Er18     Ti34    10.0   .     S
Ti19     Er37    10.0   .     S
Ti19     Er23    10.0   1_545     S
Ti19     V21    10.0   .     S
Ti20     Er68    10.0   1_545     S
Ti20     V21    10.0   .     S
V21     Ce22    10.0   .     S
Ce22     Er128    10.0   .     S
Ce22     Er134    10.0   1_545     S
Er23     Ti19    10.0   1_565     S
Er23     Ce88    10.0   .     S
Er23     Ti24    10.0   1_556     S
Ti24     Er43    10.0   .     S
Ti24     Er23    10.0   1_554     S
Ti24     V26    10.0   .     S
Ti25     Er67    10.0   1_554     S
Ti25     V26    10.0   .     S
V26     Ce27    10.0   .     S
Ce27     Er122    10.0   .     S
Ce27     Er135    10.0   1_554     S
Ti28     Er60    10.0   .     S
Ti28     Er32    10.0   1_554     S
Ti28     V30    10.0   .     S
Ti29     Er10    10.0   1_554     S
Ti29     V30    10.0   .     S
V30     Ce31    10.0   .     S
Ce31     Er92    10.0   1_554     S
Ce31     Er103    10.0   .     S
Er32     Ti28    10.0   1_556     S
Er32     Ce77    10.0   .     S
Er32     Ti33    10.0   1_655     S
Ti33     Er38    10.0   .     S
Ti33     Er32    10.0   1_455     S
Ti33     V35    10.0   .     S
Ti34     Er11    10.0   1_455     S
Ti34     V35    10.0   .     S
V35     Ce36    10.0   .     S
Ce36     Er91    10.0   1_455     S
Ce36     Er129    10.0   .     S
Er37     Ce95    10.0   .     S
Er37     Ti39    10.0   1_556     S
Er38     Ce143    10.0   .     S
Er38     Ti42    10.0   1_556     S
Ti39     Er44    10.0   .     S
Ti39     Er37    10.0   1_554     S
Ti39     V40    10.0   .     S
V40     Ce41    10.0   .     S
V40     Ti42    10.0   .     S
Ce41     Er75    10.0   1_554     S
Ce41     Er121    10.0   .     S
Ti42     Er59    10.0   .     S
Ti42     Er38    10.0   1_554     S
Er43     Ce117    10.0   .     S
Er43     Ti45    10.0   1_565     S
Er44     Ce106    10.0   .     S
Er44     Ti45    10.0   .     S
Ti45     Er43    10.0   1_545     S
Ti45     V46    10.0   .     S
V46     Ce47    10.0   .     S
V46     Ti48    10.0   .     S
Ce47     Er73    10.0   1_545     S
Ce47     Er120    10.0   .     S
Ti48     Er62    10.0   .     S
Ti48     Er49    10.0   1_545     S
Er49     Ti48    10.0   1_565     S
Er49     Ce138    10.0   .     S
Er49     Ti50    10.0   .     S
Ti50     Er54    10.0   1_455     S
Ti50     V52    10.0   .     S
Ti51     Er3    10.0   1_455     S
Ti51     V52    10.0   .     S
V52     Ce53    10.0   .     S
Ce53     Er108    10.0   1_455     S
Ce53     Er123    10.0   .     S
Er54     Ti50    10.0   1_655     S
Er54     Ce82    10.0   .     S
Er54     Ti55    10.0   1_565     S
Ti55     Er61    10.0   .     S
Ti55     Er54    10.0   1_545     S
Ti55     V57    10.0   .     S
Ti56     Er4    10.0   1_545     S
Ti56     V57    10.0   .     S
V57     Ce58    10.0   .     S
Ce58     Er102    10.0   .     S
Ce58     Er109    10.0   1_545     S
Er59     Ce126    10.0   .     S
Er59     Ti63    10.0   .     S
Er60     Ce112    10.0   .     S
Er60     Ti63    10.0   1_655     S
Er61     Ce100    10.0   .     S
Er61     Ti64    10.0   1_655     S
Er62     Ce132    10.0   .     S
Er62     Ti64    10.0   .     S
Ti63     Er60    10.0   1_455     S
Ti63     V65    10.0   .     S
Ti64     Er61    10.0   1_455     S
Ti64     V65    10.0   .     S
V65     Ce66    10.0   .     S
Ce66     Er74    10.0   1_455     S
Ce66     Er119    10.0   .     S
Er67     Ti25    10.0   1_556     S
Er67     Ce143    10.0   .     S
Er67     Ti69    10.0   .     S
Er68     Ti20    10.0   1_565     S
Er68     Ce138    10.0   .     S
Er68     Ti72    10.0   .     S
Ti69     Er2    10.0   1_455     S
Ti69     V70    10.0   .     S
V70     Ce71    10.0   .     S
V70     Ti72    10.0   .     S
Ce71     Er80    10.0   1_455     S
Ce71     Er140    10.0   .     S
Ti72     Er9    10.0   1_455     S
Er73     Ce47    10.0   1_565     S
Er73     Ti115    10.0   .     S
Er73     Ti136    10.0   .     S
Er74     Ce66    10.0   1_655     S
Er74     Ti98    10.0   .     S
Er74     Ti110    10.0   .     S
Er75     Ce41    10.0   1_556     S
Er75     Ti93    10.0   .     S
Er75     Ti142    10.0   .     S
Ti76     Er92    10.0   .     S
Ti76     Er86    10.0   .     S
Ti76     V78    10.0   .     S
Ce77     V78    10.0   .     S
V78     Ti79    10.0   .     S
Ti79     Er80    10.0   .     S
Ti79     Er91    10.0   .     S
Er80     Ce71    10.0   1_655     S
Er80     Ti81    10.0   .     S
Ti81     Er108    10.0   .     S
Ti81     V83    10.0   .     S
Ce82     V83    10.0   .     S
V83     Ti84    10.0   .     S
Ti84     Er85    10.0   .     S
Ti84     Er109    10.0   .     S
Er85     Ce14    10.0   1_565     S
Er85     Ti87    10.0   .     S
Er86     Ce7    10.0   1_556     S
Er86     Ti90    10.0   .     S
Ti87     Er134    10.0   .     S
Ti87     V89    10.0   .     S
Ce88     V89    10.0   .     S
V89     Ti90    10.0   .     S
Ti90     Er135    10.0   .     S
Er91     Ce36    10.0   1_655     S
Er91     Ti98    10.0   .     S
Er92     Ce31    10.0   1_556     S
Er92     Ti93    10.0   .     S
Ti93     V96    10.0   .     S
Ti94     Er97    10.0   .     S
Ti94     Er128    10.0   .     S
Ti94     V96    10.0   .     S
Ce95     V96    10.0   .     S
Er97     Ti99    10.0   .     S
Ti98     V101    10.0   .     S
Ti99     Er102    10.0   .     S
Ti99     V101    10.0   .     S
Ce100     V101    10.0   .     S
Er102     Ti104    10.0   .     S
Er103     Ti107    10.0   .     S
Er103     Ti111    10.0   .     S
Ti104     Er120    10.0   .     S
Ti104     V105    10.0   .     S
V105     Ce106    10.0   .     S
V105     Ti107    10.0   .     S
Ti107     Er121    10.0   .     S
Er108     Ce53    10.0   1_655     S
Er108     Ti110    10.0   .     S
Er109     Ce58    10.0   1_565     S
Er109     Ti115    10.0   .     S
Ti110     V113    10.0   .     S
Ti111     Er114    10.0   .     S
Ti111     V113    10.0   .     S
Ce112     V113    10.0   .     S
Er114     Ti116    10.0   .     S
Ti115     V118    10.0   .     S
Ti116     Er122    10.0   .     S
Ti116     V118    10.0   .     S
Ce117     V118    10.0   .     S
Er119     Ti127    10.0   .     S
Er119     Ti133    10.0   .     S
Er120     Ti130    10.0   .     S
Er121     Ti124    10.0   .     S
Er122     Ti124    10.0   .     S
Er123     Ti127    10.0   .     S
Er123     Ti137    10.0   .     S
Ti124     V125    10.0   .     S
V125     Ce126    10.0   .     S
V125     Ti127    10.0   .     S
Er128     Ti130    10.0   .     S
Er129     Ti133    10.0   .     S
Er129     Ti141    10.0   .     S
Ti130     V131    10.0   .     S
V131     Ce132    10.0   .     S
V131     Ti133    10.0   .     S
Er134     Ce22    10.0   1_565     S
Er134     Ti136    10.0   .     S
Er135     Ce27    10.0   1_556     S
Er135     Ti142    10.0   .     S
Ti136     V139    10.0   .     S
Ti137     Er140    10.0   .     S
Ti137     V139    10.0   .     S
Ce138     V139    10.0   .     S
Er140     Ti141    10.0   .     S
Ti141     V144    10.0   .     S
Ti142     V144    10.0   .     S
Ce143     V144    10.0   .     S
