data_ood
_audit_creation_date              2020-02-02
_audit_creation_method            'Pymatgen'
_symmetry_space_group_name_H-M    'P1'
_symmetry_Int_Tables_number       1
loop_
_symmetry_equiv_pos_as_xyz
  x,y,z
_cell_length_a                    42.7043
_cell_length_b                    42.7043
_cell_length_c                    23.6815
_cell_angle_alpha                 90.0
_cell_angle_beta                 90.0
_cell_angle_gamma                 120.0
loop_
_atom_site_label
_atom_site_type_symbol
_atom_site_fract_x
_atom_site_fract_y
_atom_site_fract_z
Ti1     Ti     0.6416   0.6416   0.5
Ti2     Ti     0.0   0.6416   0.5
Ti3     Ti     0.0   0.3584   0.5
Er4     Er     0.7602   0.2398   0.6951
Er5     Er     0.7602   0.2398   0.3049
Ti6     Ti     0.6416   0.0   0.5
Er7     Er     0.2398   0.4796   0.6951
Er8     Er     0.2398   0.4796   0.3049
Ti9     Ti     0.3584   0.3584   0.5
Er10     Er     0.4796   0.2398   0.6951
Er11     Er     0.7602   0.5204   0.6951
V12     V     0.6667   0.3333   0.0
Er13     Er     0.7602   0.5204   0.3049
Er14     Er     0.4796   0.2398   0.3049
Er15     Er     0.2398   0.7602   0.6951
Er16     Er     0.2398   0.7602   0.3049
V17     V     0.3333   0.6667   0.0
Er18     Er     0.5204   0.7602   0.6951
Er19     Er     0.5204   0.7602   0.3049
Ti20     Ti     0.3584   0.0   0.5
loop_
_geom_bond_atom_site_label_1
_geom_bond_atom_site_label_2
_geom_bond_distance
_geom_bond_site_symmetry_2
_ccdc_geom_bond_type
Ti1     Er11    10.0   .     S
Ti1     Er13    10.0   .     S
Ti1     Er19    10.0   .     S
Ti1     Er18    10.0   .     S
Ti2     Er13    10.0   1_455     S
Ti2     Er11    10.0   1_455     S
Ti2     Er15    10.0   .     S
Ti2     Er16    10.0   .     S
Ti3     Er4    10.0   1_455     S
Ti3     Er5    10.0   1_455     S
Ti3     Er8    10.0   .     S
Ti3     Er7    10.0   .     S
Er4     Ti3    10.0   1_655     S
Er4     V12    10.0   1_556     S
Er4     Ti6    10.0   .     S
Er5     Ti3    10.0   1_655     S
Er5     Ti6    10.0   .     S
Er5     V12    10.0   .     S
Ti6     Er18    10.0   1_545     S
Ti6     Er19    10.0   1_545     S
Er7     V17    10.0   1_556     S
Er7     Ti9    10.0   .     S
Er8     V17    10.0   .     S
Er8     Ti9    10.0   .     S
Ti9     Er14    10.0   .     S
Ti9     Er10    10.0   .     S
Er10     Ti20    10.0   .     S
Er10     V12    10.0   1_556     S
Er11     Ti2    10.0   1_655     S
Er11     V12    10.0   1_556     S
V12     Er4    10.0   1_554     S
V12     Er10    10.0   1_554     S
V12     Er11    10.0   1_554     S
V12     Er13    10.0   .     S
V12     Er14    10.0   .     S
Er13     Ti2    10.0   1_655     S
Er14     Ti20    10.0   .     S
Er15     V17    10.0   1_556     S
Er15     Ti20    10.0   1_565     S
Er16     V17    10.0   .     S
Er16     Ti20    10.0   1_565     S
V17     Er7    10.0   1_554     S
V17     Er15    10.0   1_554     S
V17     Er19    10.0   .     S
V17     Er18    10.0   1_554     S
Er18     Ti6    10.0   1_565     S
Er18     V17    10.0   1_556     S
Er19     Ti6    10.0   1_565     S
Ti20     Er16    10.0   1_545     S
Ti20     Er15    10.0   1_545     S
