data_ooe
_audit_creation_date              2020-02-02
_audit_creation_method            'Pymatgen'
_symmetry_space_group_name_H-M    'P1'
_symmetry_Int_Tables_number       1
loop_
_symmetry_equiv_pos_as_xyz
  x,y,z
_cell_length_a                    87.6266
_cell_length_b                    87.6266
_cell_length_c                    87.6266
_cell_angle_alpha                 90.0
_cell_angle_beta                 90.0
_cell_angle_gamma                 90.0
loop_
_atom_site_label
_atom_site_type_symbol
_atom_site_fract_x
_atom_site_fract_y
_atom_site_fract_z
Er1     Er     0.4068   0.267   0.4068
Er2     Er     0.267   0.4068   0.4068
Ti3     Ti     0.3601   0.3601   0.3601
Er4     Er     0.4068   0.4068   0.267
Er5     Er     0.733   0.4068   0.4068
Er6     Er     0.5933   0.4068   0.267
Ti7     Ti     0.6399   0.3601   0.3601
Er8     Er     0.5933   0.267   0.4068
V9     V     0.5   0.2202   0.3605
V10     V     0.5   0.1395   0.2798
V11     V     0.5   0.3605   0.2202
V12     V     0.5   0.2798   0.1395
Er13     Er     0.733   0.0932   0.0932
Er14     Er     0.5933   0.233   0.0932
Ti15     Ti     0.6399   0.1399   0.1399
Er16     Er     0.5933   0.0932   0.233
Er17     Er     0.4068   0.4068   0.733
Er18     Er     0.4068   0.267   0.5933
Ti19     Ti     0.3601   0.3601   0.6399
Er20     Er     0.267   0.4068   0.5933
V21     V     0.3605   0.2202   0.5
V22     V     0.2798   0.1395   0.5
V23     V     0.2202   0.3605   0.5
V24     V     0.1395   0.2798   0.5
Er25     Er     0.0932   0.0932   0.733
Er26     Er     0.233   0.0932   0.5933
Ti27     Ti     0.1399   0.1399   0.6399
Er28     Er     0.0932   0.233   0.5933
Er29     Er     0.4068   0.733   0.4068
Er30     Er     0.4068   0.5933   0.267
Ti31     Ti     0.3601   0.6399   0.3601
Er32     Er     0.267   0.5933   0.4068
V33     V     0.2202   0.5   0.3605
V34     V     0.1395   0.5   0.2798
V35     V     0.3605   0.5   0.2202
V36     V     0.2798   0.5   0.1395
Er37     Er     0.0932   0.733   0.0932
Er38     Er     0.233   0.5933   0.0932
Ti39     Ti     0.1399   0.6399   0.1399
Er40     Er     0.0932   0.5933   0.233
Er41     Er     0.4068   0.233   0.0932
Er42     Er     0.267   0.0932   0.0932
Ti43     Ti     0.3601   0.1399   0.1399
Er44     Er     0.4068   0.0932   0.233
V45     V     0.2202   0.5   0.6395
V46     V     0.1395   0.5   0.7202
Er47     Er     0.4068   0.5933   0.733
Er48     Er     0.4068   0.733   0.5933
Ti49     Ti     0.3601   0.6399   0.6399
Er50     Er     0.267   0.5933   0.5933
V51     V     0.5   0.2202   0.6395
V52     V     0.5   0.1395   0.7202
Er53     Er     0.5933   0.4068   0.733
Er54     Er     0.733   0.4068   0.5933
Ti55     Ti     0.6399   0.3601   0.6399
Er56     Er     0.5933   0.267   0.5933
V57     V     0.0   0.7798   0.1395
V58     V     0.0   0.8605   0.2202
V59     V     0.7798   0.0   0.1395
V60     V     0.8605   0.0   0.2202
Er61     Er     0.767   0.9068   0.4068
Er62     Er     0.9068   0.767   0.4068
Ti63     Ti     0.8601   0.8601   0.3601
Er64     Er     0.9068   0.9068   0.267
Er65     Er     0.233   0.0932   0.4068
Er66     Er     0.0932   0.233   0.4068
Ti67     Ti     0.1399   0.1399   0.3601
Er68     Er     0.0932   0.0932   0.267
V69     V     0.6395   0.5   0.2202
V70     V     0.7202   0.5   0.1395
V71     V     0.5   0.6395   0.2202
V72     V     0.5   0.7202   0.1395
Er73     Er     0.5933   0.733   0.4068
Er74     Er     0.733   0.5933   0.4068
Ti75     Ti     0.6399   0.6399   0.3601
Er76     Er     0.5933   0.5933   0.267
Er77     Er     0.233   0.4068   0.0932
Er78     Er     0.0932   0.267   0.0932
Ti79     Ti     0.1399   0.3601   0.1399
Er80     Er     0.0932   0.4068   0.233
V81     V     0.2202   0.6395   0.5
V82     V     0.1395   0.7202   0.5
V83     V     0.7202   0.0   0.3605
V84     V     0.6395   0.0   0.2798
V85     V     0.5   0.7798   0.3605
V86     V     0.5   0.8605   0.2798
Er87     Er     0.5933   0.767   0.0932
Er88     Er     0.733   0.9068   0.0932
Ti89     Ti     0.6399   0.8601   0.1399
Er90     Er     0.5933   0.9068   0.233
V91     V     0.3605   0.0   0.7202
V92     V     0.2798   0.0   0.6395
V93     V     0.3605   0.7798   0.5
V94     V     0.2798   0.8605   0.5
Er95     Er     0.0932   0.767   0.5933
Er96     Er     0.0932   0.9068   0.733
Ti97     Ti     0.1399   0.8601   0.6399
Er98     Er     0.233   0.9068   0.5933
V99     V     0.2202   0.0   0.1395
V100     V     0.1395   0.0   0.2202
Er101     Er     0.4068   0.767   0.0932
Er102     Er     0.267   0.9068   0.0932
Ti103     Ti     0.3601   0.8601   0.1399
Er104     Er     0.4068   0.9068   0.233
V105     V     0.2798   0.0   0.3605
V106     V     0.3605   0.0   0.2798
Er107     Er     0.0932   0.767   0.4068
Er108     Er     0.0932   0.9068   0.267
Ti109     Ti     0.1399   0.8601   0.3601
Er110     Er     0.233   0.9068   0.4068
V111     V     0.1395   0.0   0.7798
V112     V     0.2202   0.0   0.8605
V113     V     0.1395   0.7798   0.0
V114     V     0.2202   0.8605   0.0
Er115     Er     0.4068   0.767   0.9068
Er116     Er     0.4068   0.9068   0.767
Ti117     Ti     0.3601   0.8601   0.8601
Er118     Er     0.267   0.9068   0.9068
V119     V     0.3605   0.7202   0.0
V120     V     0.2798   0.6395   0.0
V121     V     0.3605   0.5   0.7798
V122     V     0.2798   0.5   0.8605
Er123     Er     0.0932   0.5933   0.767
Er124     Er     0.0932   0.733   0.9068
Ti125     Ti     0.1399   0.6399   0.8601
Er126     Er     0.233   0.5933   0.9068
V127     V     0.1395   0.2202   0.0
V128     V     0.2202   0.1395   0.0
Er129     Er     0.0932   0.4068   0.767
Er130     Er     0.0932   0.267   0.9068
Ti131     Ti     0.1399   0.3601   0.8601
Er132     Er     0.233   0.4068   0.9068
V133     V     0.3605   0.2798   0.0
V134     V     0.2798   0.3605   0.0
Er135     Er     0.4068   0.0932   0.767
Er136     Er     0.267   0.0932   0.9068
Ti137     Ti     0.3601   0.1399   0.8601
Er138     Er     0.4068   0.233   0.9068
V139     V     0.7202   0.3605   0.0
V140     V     0.6395   0.2798   0.0
V141     V     0.5   0.3605   0.7798
V142     V     0.5   0.2798   0.8605
Er143     Er     0.5933   0.0932   0.767
Er144     Er     0.733   0.0932   0.9068
Ti145     Ti     0.6399   0.1399   0.8601
Er146     Er     0.5933   0.233   0.9068
V147     V     0.7798   0.1395   0.0
V148     V     0.8605   0.2202   0.0
V149     V     0.0   0.1395   0.7798
V150     V     0.0   0.2202   0.8605
Er151     Er     0.767   0.4068   0.9068
Er152     Er     0.9068   0.4068   0.767
Ti153     Ti     0.8601   0.3601   0.8601
Er154     Er     0.9068   0.267   0.9068
V155     V     0.6395   0.2202   0.5
V156     V     0.7202   0.1395   0.5
V157     V     0.0   0.3605   0.7202
V158     V     0.0   0.2798   0.6395
V159     V     0.7798   0.3605   0.5
V160     V     0.8605   0.2798   0.5
Er161     Er     0.767   0.0932   0.5933
Er162     Er     0.9068   0.0932   0.733
Ti163     Ti     0.8601   0.1399   0.6399
Er164     Er     0.9068   0.233   0.5933
V165     V     0.0   0.7202   0.3605
V166     V     0.0   0.6395   0.2798
V167     V     0.7798   0.5   0.3605
V168     V     0.8605   0.5   0.2798
Er169     Er     0.767   0.5933   0.0932
Er170     Er     0.9068   0.733   0.0932
Ti171     Ti     0.8601   0.6399   0.1399
Er172     Er     0.9068   0.5933   0.233
V173     V     0.0   0.1395   0.2202
V174     V     0.0   0.2202   0.1395
Er175     Er     0.767   0.4068   0.0932
Er176     Er     0.9068   0.4068   0.233
Ti177     Ti     0.8601   0.3601   0.1399
Er178     Er     0.9068   0.267   0.0932
V179     V     0.0   0.3605   0.2798
V180     V     0.0   0.2798   0.3605
Er181     Er     0.767   0.0932   0.4068
Er182     Er     0.9068   0.0932   0.267
Ti183     Ti     0.8601   0.1399   0.3601
Er184     Er     0.9068   0.233   0.4068
V185     V     0.6395   0.0   0.7202
V186     V     0.7202   0.0   0.6395
V187     V     0.0   0.6395   0.7202
V188     V     0.0   0.7202   0.6395
Er189     Er     0.5933   0.5933   0.733
Er190     Er     0.5933   0.733   0.5933
Ti191     Ti     0.6399   0.6399   0.6399
Er192     Er     0.733   0.5933   0.5933
V193     V     0.6395   0.7202   0.0
V194     V     0.7202   0.6395   0.0
V195     V     0.6395   0.7798   0.5
V196     V     0.7202   0.8605   0.5
V197     V     0.7798   0.6395   0.5
V198     V     0.8605   0.7202   0.5
Er199     Er     0.767   0.9068   0.5933
Er200     Er     0.9068   0.767   0.5933
Ti201     Ti     0.8601   0.8601   0.6399
Er202     Er     0.9068   0.9068   0.733
V203     V     0.5   0.6395   0.7798
V204     V     0.5   0.7202   0.8605
V205     V     0.5   0.7798   0.6395
V206     V     0.5   0.8605   0.7202
V207     V     0.7798   0.0   0.8605
V208     V     0.8605   0.0   0.7798
Er209     Er     0.5933   0.767   0.9068
Er210     Er     0.5933   0.9068   0.767
Ti211     Ti     0.6399   0.8601   0.8601
Er212     Er     0.733   0.9068   0.9068
V213     V     0.6395   0.5   0.7798
V214     V     0.7202   0.5   0.8605
V215     V     0.7798   0.5   0.6395
V216     V     0.8605   0.5   0.7202
V217     V     0.8605   0.7798   0.0
V218     V     0.7798   0.8605   0.0
V219     V     0.0   0.8605   0.7798
V220     V     0.0   0.7798   0.8605
Er221     Er     0.767   0.5933   0.9068
Er222     Er     0.9068   0.5933   0.767
Ti223     Ti     0.8601   0.6399   0.8601
Er224     Er     0.9068   0.733   0.9068
loop_
_geom_bond_atom_site_label_1
_geom_bond_atom_site_label_2
_geom_bond_distance
_geom_bond_site_symmetry_2
_ccdc_geom_bond_type
Er1     V9    10.0   .     S
Er1     V21    10.0   .     S
Er1     Ti3    10.0   .     S
Er2     V33    10.0   .     S
Er2     V23    10.0   .     S
Er2     Ti3    10.0   .     S
Ti3     Er4    10.0   .     S
Er4     V11    10.0   .     S
Er4     V35    10.0   .     S
Er5     V159    10.0   .     S
Er5     V167    10.0   .     S
Er5     Ti7    10.0   .     S
Er6     V69    10.0   .     S
Er6     V11    10.0   .     S
Er6     Ti7    10.0   .     S
Ti7     Er8    10.0   .     S
Er8     V155    10.0   .     S
Er8     V9    10.0   .     S
V9     V10    9.999   .     S
V10     Er16    10.0   .     S
V10     Er44    10.0   .     S
V11     V12    9.999   .     S
V12     Er14    10.0   .     S
V12     Er41    10.0   .     S
Er13     V147    10.0   .     S
Er13     V59    10.0   .     S
Er13     Ti15    10.0   .     S
Er14     V140    10.0   .     S
Er14     Ti15    10.0   .     S
Ti15     Er16    10.0   .     S
Er16     V84    10.0   .     S
Er17     V121    10.0   .     S
Er17     V141    10.0   .     S
Er17     Ti19    10.0   .     S
Er18     V51    10.0   .     S
Er18     V21    10.0   .     S
Er18     Ti19    10.0   .     S
Ti19     Er20    10.0   .     S
Er20     V45    10.0   .     S
Er20     V23    10.0   .     S
V21     V22    9.999   .     S
V22     Er26    10.0   .     S
V22     Er65    10.0   .     S
V23     V24    9.999   .     S
V24     Er28    10.0   .     S
V24     Er66    10.0   .     S
Er25     V111    10.0   .     S
Er25     V149    10.0   .     S
Er25     Ti27    10.0   .     S
Er26     V92    10.0   .     S
Er26     Ti27    10.0   .     S
Ti27     Er28    10.0   .     S
Er28     V158    10.0   .     S
Er29     V85    10.0   .     S
Er29     V93    10.0   .     S
Er29     Ti31    10.0   .     S
Er30     V71    10.0   .     S
Er30     V35    10.0   .     S
Er30     Ti31    10.0   .     S
Ti31     Er32    10.0   .     S
Er32     V81    10.0   .     S
Er32     V33    10.0   .     S
V33     V34    9.999   .     S
V34     Er40    10.0   .     S
V34     Er80    10.0   .     S
V35     V36    9.999   .     S
V36     Er38    10.0   .     S
V36     Er77    10.0   .     S
Er37     V57    10.0   .     S
Er37     V113    10.0   .     S
Er37     Ti39    10.0   .     S
Er38     V120    10.0   .     S
Er38     Ti39    10.0   .     S
Ti39     Er40    10.0   .     S
Er40     V166    10.0   .     S
Er41     V133    10.0   .     S
Er41     Ti43    10.0   .     S
Er42     V99    10.0   .     S
Er42     V128    10.0   .     S
Er42     Ti43    10.0   .     S
Ti43     Er44    10.0   .     S
Er44     V106    10.0   .     S
V45     V46    9.999   .     S
V45     Er50    10.0   .     S
V46     Er123    10.0   .     S
V46     Er129    10.0   .     S
Er47     V203    10.0   .     S
Er47     V121    10.0   .     S
Er47     Ti49    10.0   .     S
Er48     V205    10.0   .     S
Er48     V93    10.0   .     S
Er48     Ti49    10.0   .     S
Ti49     Er50    10.0   .     S
Er50     V81    10.0   .     S
V51     V52    9.999   .     S
V51     Er56    10.0   .     S
V52     Er135    10.0   .     S
V52     Er143    10.0   .     S
Er53     V213    10.0   .     S
Er53     V141    10.0   .     S
Er53     Ti55    10.0   .     S
Er54     V215    10.0   .     S
Er54     V159    10.0   .     S
Er54     Ti55    10.0   .     S
Ti55     Er56    10.0   .     S
Er56     V155    10.0   .     S
V57     V58    9.999   .     S
V57     Er170    10.0   1_455     S
V58     Er64    10.0   1_455     S
V58     Er108    10.0   .     S
V59     V60    9.999   .     S
V59     Er88    10.0   1_545     S
V60     Er64    10.0   1_545     S
V60     Er182    10.0   .     S
Er61     V196    10.0   .     S
Er61     V83    10.0   1_565     S
Er61     Ti63    10.0   .     S
Er62     V198    10.0   .     S
Er62     V165    10.0   1_655     S
Er62     Ti63    10.0   .     S
Ti63     Er64    10.0   .     S
Er64     V58    10.0   1_655     S
Er64     V60    10.0   1_565     S
Er65     V105    10.0   .     S
Er65     Ti67    10.0   .     S
Er66     V180    10.0   .     S
Er66     Ti67    10.0   .     S
Ti67     Er68    10.0   .     S
Er68     V173    10.0   .     S
Er68     V100    10.0   .     S
V69     V70    9.999   .     S
V69     Er76    10.0   .     S
V70     Er169    10.0   .     S
V70     Er175    10.0   .     S
V71     V72    9.999   .     S
V71     Er76    10.0   .     S
V72     Er87    10.0   .     S
V72     Er101    10.0   .     S
Er73     V195    10.0   .     S
Er73     V85    10.0   .     S
Er73     Ti75    10.0   .     S
Er74     V197    10.0   .     S
Er74     V167    10.0   .     S
Er74     Ti75    10.0   .     S
Ti75     Er76    10.0   .     S
Er77     V134    10.0   .     S
Er77     Ti79    10.0   .     S
Er78     V127    10.0   .     S
Er78     V174    10.0   .     S
Er78     Ti79    10.0   .     S
Ti79     Er80    10.0   .     S
Er80     V179    10.0   .     S
V81     V82    9.999   .     S
V82     Er95    10.0   .     S
V82     Er107    10.0   .     S
V83     Er61    10.0   1_545     S
V83     V84    9.999   .     S
V83     Er181    10.0   .     S
V84     Er90    10.0   1_545     S
V85     V86    9.999   .     S
V86     Er90    10.0   .     S
V86     Er104    10.0   .     S
Er87     V193    10.0   .     S
Er87     Ti89    10.0   .     S
Er88     V218    10.0   .     S
Er88     V59    10.0   1_565     S
Er88     Ti89    10.0   .     S
Ti89     Er90    10.0   .     S
Er90     V84    10.0   1_565     S
V91     V92    9.999   .     S
V91     Er116    10.0   1_545     S
V91     Er135    10.0   .     S
V92     Er98    10.0   1_545     S
V93     V94    9.999   .     S
V94     Er98    10.0   .     S
V94     Er110    10.0   .     S
Er95     V188    10.0   .     S
Er95     Ti97    10.0   .     S
Er96     V219    10.0   .     S
Er96     V111    10.0   1_565     S
Er96     Ti97    10.0   .     S
Ti97     Er98    10.0   .     S
Er98     V92    10.0   1_565     S
V99     V100    9.999   .     S
V99     Er102    10.0   1_545     S
V100     Er108    10.0   1_545     S
Er101     V119    10.0   .     S
Er101     Ti103    10.0   .     S
Er102     V114    10.0   .     S
Er102     V99    10.0   1_565     S
Er102     Ti103    10.0   .     S
Ti103     Er104    10.0   .     S
Er104     V106    10.0   1_565     S
V105     V106    9.999   .     S
V105     Er110    10.0   1_545     S
V106     Er104    10.0   1_545     S
Er107     V165    10.0   .     S
Er107     Ti109    10.0   .     S
Er108     V100    10.0   1_565     S
Er108     Ti109    10.0   .     S
Ti109     Er110    10.0   .     S
Er110     V105    10.0   1_565     S
V111     Er96    10.0   1_545     S
V111     V112    9.999   .     S
V112     Er118    10.0   1_545     S
V112     Er136    10.0   .     S
V113     V114    9.999   .     S
V113     Er124    10.0   1_554     S
V114     Er118    10.0   1_554     S
Er115     V204    10.0   .     S
Er115     V119    10.0   1_556     S
Er115     Ti117    10.0   .     S
Er116     V206    10.0   .     S
Er116     V91    10.0   1_565     S
Er116     Ti117    10.0   .     S
Ti117     Er118    10.0   .     S
Er118     V112    10.0   1_565     S
Er118     V114    10.0   1_556     S
V119     Er115    10.0   1_554     S
V119     V120    9.999   .     S
V120     Er126    10.0   1_554     S
V121     V122    9.999   .     S
V122     Er126    10.0   .     S
V122     Er132    10.0   .     S
Er123     V187    10.0   .     S
Er123     Ti125    10.0   .     S
Er124     V220    10.0   .     S
Er124     V113    10.0   1_556     S
Er124     Ti125    10.0   .     S
Ti125     Er126    10.0   .     S
Er126     V120    10.0   1_556     S
V127     V128    9.999   .     S
V127     Er130    10.0   1_554     S
V128     Er136    10.0   1_554     S
Er129     V157    10.0   .     S
Er129     Ti131    10.0   .     S
Er130     V150    10.0   .     S
Er130     V127    10.0   1_556     S
Er130     Ti131    10.0   .     S
Ti131     Er132    10.0   .     S
Er132     V134    10.0   1_556     S
V133     V134    9.999   .     S
V133     Er138    10.0   1_554     S
V134     Er132    10.0   1_554     S
Er135     Ti137    10.0   .     S
Er136     V128    10.0   1_556     S
Er136     Ti137    10.0   .     S
Ti137     Er138    10.0   .     S
Er138     V142    10.0   .     S
Er138     V133    10.0   1_556     S
V139     V140    9.999   .     S
V139     Er151    10.0   1_554     S
V139     Er175    10.0   .     S
V140     Er146    10.0   1_554     S
V141     V142    9.999   .     S
V142     Er146    10.0   .     S
Er143     V185    10.0   .     S
Er143     Ti145    10.0   .     S
Er144     V207    10.0   .     S
Er144     V147    10.0   1_556     S
Er144     Ti145    10.0   .     S
Ti145     Er146    10.0   .     S
Er146     V140    10.0   1_556     S
V147     Er144    10.0   1_554     S
V147     V148    9.999   .     S
V148     Er154    10.0   1_554     S
V148     Er178    10.0   .     S
V149     V150    9.999   .     S
V149     Er162    10.0   1_455     S
V150     Er154    10.0   1_455     S
Er151     V214    10.0   .     S
Er151     V139    10.0   1_556     S
Er151     Ti153    10.0   .     S
Er152     V216    10.0   .     S
Er152     V157    10.0   1_655     S
Er152     Ti153    10.0   .     S
Ti153     Er154    10.0   .     S
Er154     V150    10.0   1_655     S
Er154     V148    10.0   1_556     S
V155     V156    9.999   .     S
V156     Er161    10.0   .     S
V156     Er181    10.0   .     S
V157     Er152    10.0   1_455     S
V157     V158    9.999   .     S
V158     Er164    10.0   1_455     S
V159     V160    9.999   .     S
V160     Er164    10.0   .     S
V160     Er184    10.0   .     S
Er161     V186    10.0   .     S
Er161     Ti163    10.0   .     S
Er162     V208    10.0   .     S
Er162     V149    10.0   1_655     S
Er162     Ti163    10.0   .     S
Ti163     Er164    10.0   .     S
Er164     V158    10.0   1_655     S
V165     Er62    10.0   1_455     S
V165     V166    9.999   .     S
V166     Er172    10.0   1_455     S
V167     V168    9.999   .     S
V168     Er172    10.0   .     S
V168     Er176    10.0   .     S
Er169     V194    10.0   .     S
Er169     Ti171    10.0   .     S
Er170     V217    10.0   .     S
Er170     V57    10.0   1_655     S
Er170     Ti171    10.0   .     S
Ti171     Er172    10.0   .     S
Er172     V166    10.0   1_655     S
V173     V174    9.999   .     S
V173     Er182    10.0   1_455     S
V174     Er178    10.0   1_455     S
Er175     Ti177    10.0   .     S
Er176     V179    10.0   1_655     S
Er176     Ti177    10.0   .     S
Ti177     Er178    10.0   .     S
Er178     V174    10.0   1_655     S
V179     Er176    10.0   1_455     S
V179     V180    9.999   .     S
V180     Er184    10.0   1_455     S
Er181     Ti183    10.0   .     S
Er182     V173    10.0   1_655     S
Er182     Ti183    10.0   .     S
Ti183     Er184    10.0   .     S
Er184     V180    10.0   1_655     S
V185     V186    9.999   .     S
V185     Er210    10.0   1_545     S
V186     Er199    10.0   1_545     S
V187     V188    9.999   .     S
V187     Er222    10.0   1_455     S
V188     Er200    10.0   1_455     S
Er189     V213    10.0   .     S
Er189     V203    10.0   .     S
Er189     Ti191    10.0   .     S
Er190     V205    10.0   .     S
Er190     V195    10.0   .     S
Er190     Ti191    10.0   .     S
Ti191     Er192    10.0   .     S
Er192     V197    10.0   .     S
Er192     V215    10.0   .     S
V193     V194    9.999   .     S
V193     Er209    10.0   1_554     S
V194     Er221    10.0   1_554     S
V195     V196    9.999   .     S
V196     Er199    10.0   .     S
V197     V198    9.999   .     S
V198     Er200    10.0   .     S
Er199     V186    10.0   1_565     S
Er199     Ti201    10.0   .     S
Er200     V188    10.0   1_655     S
Er200     Ti201    10.0   .     S
Ti201     Er202    10.0   .     S
Er202     V208    10.0   1_565     S
Er202     V219    10.0   1_655     S
V203     V204    9.999   .     S
V204     Er209    10.0   .     S
V205     V206    9.999   .     S
V206     Er210    10.0   .     S
V207     V208    9.999   .     S
V207     Er212    10.0   1_545     S
V208     Er202    10.0   1_545     S
Er209     V193    10.0   1_556     S
Er209     Ti211    10.0   .     S
Er210     V185    10.0   1_565     S
Er210     Ti211    10.0   .     S
Ti211     Er212    10.0   .     S
Er212     V218    10.0   1_556     S
Er212     V207    10.0   1_565     S
V213     V214    9.999   .     S
V214     Er221    10.0   .     S
V215     V216    9.999   .     S
V216     Er222    10.0   .     S
V217     V218    9.999   .     S
V217     Er224    10.0   1_554     S
V218     Er212    10.0   1_554     S
V219     Er202    10.0   1_455     S
V219     V220    9.999   .     S
V220     Er224    10.0   1_455     S
Er221     V194    10.0   1_556     S
Er221     Ti223    10.0   .     S
Er222     V187    10.0   1_655     S
Er222     Ti223    10.0   .     S
Ti223     Er224    10.0   .     S
Er224     V220    10.0   1_655     S
Er224     V217    10.0   1_556     S
