data_osd
_audit_creation_date              2020-02-02
_audit_creation_method            'Pymatgen'
_symmetry_space_group_name_H-M    'P1'
_symmetry_Int_Tables_number       1
loop_
_symmetry_equiv_pos_as_xyz
  x,y,z
_cell_length_a                    19.8183
_cell_length_b                    34.9569
_cell_length_c                    20.0
_cell_angle_alpha                 90.0
_cell_angle_beta                 90.0
_cell_angle_gamma                 90.0
loop_
_atom_site_label
_atom_site_type_symbol
_atom_site_fract_x
_atom_site_fract_y
_atom_site_fract_z
V1     V     0.6398   0.893   0.3414
V2     V     0.6398   0.893   0.8414
V3     V     0.6398   0.607   0.3414
V4     V     0.6398   0.607   0.8414
V5     V     0.1398   0.893   0.4086
V6     V     0.1398   0.893   0.9086
V7     V     0.1398   0.607   0.4086
V8     V     0.1398   0.607   0.9086
V9     V     0.8602   0.107   0.0914
V10     V     0.8602   0.107   0.5914
V11     V     0.8602   0.393   0.0914
V12     V     0.8602   0.393   0.5914
V13     V     0.3602   0.107   0.1586
V14     V     0.3602   0.107   0.6586
V15     V     0.3602   0.393   0.1586
V16     V     0.3602   0.393   0.6586
loop_
_geom_bond_atom_site_label_1
_geom_bond_atom_site_label_2
_geom_bond_distance
_geom_bond_site_symmetry_2
_ccdc_geom_bond_type
V1     V3    10.0   .     S
V1     V5    10.0   1_655     S
V1     V5    10.0   .     S
V1     V2    10.0   1_554     S
V1     V2    10.0   .     S
V1     V13    10.0   1_565     S
V1     V9    10.0   1_565     S
V1     V10    10.0   1_565     S
V2     V4    10.0   .     S
V2     V6    10.0   1_655     S
V2     V6    10.0   .     S
V2     V1    10.0   1_556     S
V2     V14    10.0   1_565     S
V2     V10    10.0   1_565     S
V2     V9    10.0   1_566     S
V3     V15    10.0   .     S
V3     V11    10.0   .     S
V3     V12    10.0   .     S
V3     V7    10.0   .     S
V3     V7    10.0   1_655     S
V3     V4    10.0   1_554     S
V3     V4    10.0   .     S
V4     V16    10.0   .     S
V4     V12    10.0   .     S
V4     V11    10.0   1_556     S
V4     V8    10.0   .     S
V4     V8    10.0   1_655     S
V4     V3    10.0   1_556     S
V5     V7    10.0   .     S
V5     V1    10.0   1_455     S
V5     V6    10.0   1_554     S
V5     V6    10.0   .     S
V5     V13    10.0   1_565     S
V5     V10    10.0   1_465     S
V5     V14    10.0   1_565     S
V6     V8    10.0   .     S
V6     V2    10.0   1_455     S
V6     V5    10.0   1_556     S
V6     V14    10.0   1_565     S
V6     V9    10.0   1_466     S
V6     V13    10.0   1_566     S
V7     V15    10.0   .     S
V7     V12    10.0   1_455     S
V7     V16    10.0   .     S
V7     V3    10.0   1_455     S
V7     V8    10.0   1_554     S
V7     V8    10.0   .     S
V8     V16    10.0   .     S
V8     V11    10.0   1_456     S
V8     V15    10.0   1_556     S
V8     V4    10.0   1_455     S
V8     V7    10.0   1_556     S
V9     V11    10.0   .     S
V9     V13    10.0   .     S
V9     V13    10.0   1_655     S
V9     V10    10.0   .     S
V9     V10    10.0   1_554     S
V9     V1    10.0   1_545     S
V9     V6    10.0   1_644     S
V9     V2    10.0   1_544     S
V10     V12    10.0   .     S
V10     V14    10.0   .     S
V10     V14    10.0   1_655     S
V10     V9    10.0   1_556     S
V10     V2    10.0   1_545     S
V10     V5    10.0   1_645     S
V10     V1    10.0   1_545     S
V11     V8    10.0   1_654     S
V11     V4    10.0   1_554     S
V11     V15    10.0   1_655     S
V11     V15    10.0   .     S
V11     V12    10.0   .     S
V11     V12    10.0   1_554     S
V12     V7    10.0   1_655     S
V12     V16    10.0   1_655     S
V12     V16    10.0   .     S
V12     V11    10.0   1_556     S
V13     V15    10.0   .     S
V13     V9    10.0   1_455     S
V13     V14    10.0   .     S
V13     V14    10.0   1_554     S
V13     V1    10.0   1_545     S
V13     V5    10.0   1_545     S
V13     V6    10.0   1_544     S
V14     V16    10.0   .     S
V14     V10    10.0   1_455     S
V14     V13    10.0   1_556     S
V14     V2    10.0   1_545     S
V14     V6    10.0   1_545     S
V14     V5    10.0   1_545     S
V15     V8    10.0   1_554     S
V15     V11    10.0   1_455     S
V15     V16    10.0   .     S
V15     V16    10.0   1_554     S
V16     V12    10.0   1_455     S
V16     V15    10.0   1_556     S
