data_oso
_audit_creation_date              2020-02-02
_audit_creation_method            'Pymatgen'
_symmetry_space_group_name_H-M    'P1'
_symmetry_Int_Tables_number       1
loop_
_symmetry_equiv_pos_as_xyz
  x,y,z
_cell_length_a                    34.4676
_cell_length_b                    34.4676
_cell_length_c                    26.8396
_cell_angle_alpha                 90.0
_cell_angle_beta                 90.0
_cell_angle_gamma                 120.0
loop_
_atom_site_label
_atom_site_type_symbol
_atom_site_fract_x
_atom_site_fract_y
_atom_site_fract_z
Er1     Er     0.2901   0.7099   0.3333
Er2     Er     0.7099   0.2901   0.3333
V3     V     0.0   0.5   0.1667
Er4     Er     0.4198   0.7099   0.6667
V5     V     0.5   0.0   0.5
Er6     Er     0.5802   0.2901   0.6667
Er7     Er     0.7099   0.4198   0.0
V8     V     0.5   0.5   0.8333
Er9     Er     0.2901   0.5802   0.0
loop_
_geom_bond_atom_site_label_1
_geom_bond_atom_site_label_2
_geom_bond_distance
_geom_bond_site_symmetry_2
_ccdc_geom_bond_type
Er1     Er4    10.0   .     S
Er1     Er9    10.0   .     S
Er1     V3    10.0   .     S
Er1     V5    10.0   1_565     S
Er2     Er6    10.0   .     S
Er2     Er7    10.0   .     S
Er2     V3    10.0   1_655     S
Er2     V5    10.0   .     S
V3     Er2    10.0   1_455     S
V3     Er7    10.0   1_455     S
V3     Er9    10.0   .     S
Er4     Er9    10.0   1_556     S
Er4     V5    10.0   1_565     S
Er4     V8    10.0   .     S
V5     Er1    10.0   1_545     S
V5     Er4    10.0   1_545     S
V5     Er6    10.0   .     S
Er6     Er7    10.0   1_556     S
Er6     V8    10.0   .     S
Er7     Er6    10.0   1_554     S
Er7     V3    10.0   1_655     S
Er7     V8    10.0   1_554     S
V8     Er7    10.0   1_556     S
V8     Er9    10.0   1_556     S
Er9     Er4    10.0   1_554     S
Er9     V8    10.0   1_554     S
