data_ott
_audit_creation_date              2020-02-02
_audit_creation_method            'Pymatgen'
_symmetry_space_group_name_H-M    'P1'
_symmetry_Int_Tables_number       1
loop_
_symmetry_equiv_pos_as_xyz
  x,y,z
_cell_length_a                    64.1407
_cell_length_b                    64.1407
_cell_length_c                    64.1407
_cell_angle_alpha                 90.0
_cell_angle_beta                 90.0
_cell_angle_gamma                 90.0
loop_
_atom_site_label
_atom_site_type_symbol
_atom_site_fract_x
_atom_site_fract_y
_atom_site_fract_z
V1     V     0.078   0.422   0.922
V2     V     0.922   0.422   0.922
V3     V     0.922   0.422   0.078
V4     V     0.078   0.422   0.078
V5     V     0.922   0.578   0.078
V6     V     0.922   0.578   0.922
V7     V     0.078   0.578   0.922
V8     V     0.078   0.578   0.078
V9     V     0.422   0.922   0.078
V10     V     0.422   0.922   0.922
V11     V     0.422   0.078   0.922
V12     V     0.422   0.078   0.078
V13     V     0.578   0.922   0.078
V14     V     0.578   0.922   0.922
V15     V     0.578   0.078   0.922
V16     V     0.578   0.078   0.078
V17     V     0.922   0.922   0.422
V18     V     0.922   0.078   0.422
V19     V     0.078   0.922   0.422
V20     V     0.078   0.078   0.422
V21     V     0.922   0.078   0.578
V22     V     0.078   0.078   0.578
V23     V     0.922   0.922   0.578
V24     V     0.078   0.922   0.578
V25     V     0.578   0.578   0.578
V26     V     0.578   0.578   0.422
V27     V     0.578   0.422   0.422
V28     V     0.578   0.422   0.578
V29     V     0.422   0.578   0.578
V30     V     0.422   0.578   0.422
V31     V     0.422   0.422   0.578
V32     V     0.422   0.422   0.422
Ti33     Ti     0.5914   0.5914   0.7327
Ti34     Ti     0.5914   0.7327   0.5914
Ti35     Ti     0.7327   0.5914   0.5914
Ti36     Ti     0.5914   0.5914   0.2673
Ti37     Ti     0.4086   0.7327   0.5914
Ti38     Ti     0.5914   0.2673   0.5914
Ti39     Ti     0.7327   0.4086   0.5914
Ti40     Ti     0.2673   0.5914   0.5914
Ti41     Ti     0.7327   0.0914   0.0914
Ti42     Ti     0.0914   0.7327   0.0914
Ti43     Ti     0.0914   0.0914   0.7327
Ti44     Ti     0.5914   0.4086   0.7327
Ti45     Ti     0.4086   0.5914   0.7327
Ti46     Ti     0.5914   0.7327   0.4086
Ti47     Ti     0.7327   0.5914   0.4086
Ti48     Ti     0.5914   0.2327   0.0914
Ti49     Ti     0.2327   0.5914   0.0914
Ti50     Ti     0.2327   0.0914   0.5914
Ti51     Ti     0.5914   0.0914   0.2327
Ti52     Ti     0.0914   0.5914   0.2327
Ti53     Ti     0.0914   0.2327   0.5914
Ti54     Ti     0.4086   0.4086   0.7327
Ti55     Ti     0.4086   0.4086   0.2673
Ti56     Ti     0.4086   0.2673   0.4086
Ti57     Ti     0.4086   0.7327   0.4086
Ti58     Ti     0.2327   0.0914   0.4086
Ti59     Ti     0.7327   0.4086   0.4086
Ti60     Ti     0.0914   0.2327   0.4086
Ti61     Ti     0.2673   0.4086   0.4086
Ti62     Ti     0.7673   0.5914   0.0914
Ti63     Ti     0.5914   0.7673   0.0914
Ti64     Ti     0.5914   0.0914   0.7673
Ti65     Ti     0.7673   0.0914   0.5914
Ti66     Ti     0.4086   0.7673   0.9086
Ti67     Ti     0.4086   0.9086   0.7673
Ti68     Ti     0.5914   0.7673   0.9086
Er69     Er     0.5   0.8051   0.6949
Er70     Er     0.5   0.6949   0.8051
Ti71     Ti     0.5914   0.9086   0.7673
Ti72     Ti     0.0914   0.7673   0.5914
Ti73     Ti     0.7673   0.9086   0.4086
Ti74     Ti     0.9086   0.7673   0.4086
Ti75     Ti     0.7673   0.9086   0.5914
Er76     Er     0.8051   0.6949   0.5
Er77     Er     0.6949   0.8051   0.5
Ti78     Ti     0.9086   0.7673   0.5914
Ti79     Ti     0.0914   0.5914   0.7673
Ti80     Ti     0.9086   0.7327   0.0914
Ti81     Ti     0.7327   0.9086   0.0914
Er82     Er     0.8051   0.8051   0.0
Er83     Er     0.6949   0.6949   0.0
Ti84     Ti     0.7327   0.9086   0.9086
Ti85     Ti     0.7327   0.0914   0.9086
Ti86     Ti     0.9086   0.0914   0.7327
Er87     Er     0.8051   0.0   0.8051
Er88     Er     0.6949   0.0   0.6949
Ti89     Ti     0.0914   0.7327   0.9086
Ti90     Ti     0.9086   0.7327   0.9086
Ti91     Ti     0.9086   0.9086   0.7327
Ti92     Ti     0.0914   0.9086   0.7327
Er93     Er     0.0   0.6949   0.6949
Er94     Er     0.0   0.8051   0.8051
Ti95     Ti     0.7673   0.4086   0.9086
Ti96     Ti     0.9086   0.4086   0.7673
Ti97     Ti     0.7673   0.5914   0.9086
Er98     Er     0.8051   0.5   0.6949
Er99     Er     0.6949   0.5   0.8051
Ti100     Ti     0.9086   0.5914   0.7673
Ti101     Ti     0.4086   0.2327   0.0914
Er102     Er     0.5   0.1949   0.3051
Er103     Er     0.5   0.3051   0.1949
Ti104     Ti     0.4086   0.0914   0.2327
Ti105     Ti     0.5914   0.2327   0.9086
Ti106     Ti     0.2327   0.5914   0.9086
Ti107     Ti     0.2673   0.4086   0.5914
Ti108     Ti     0.0914   0.4086   0.7673
Ti109     Ti     0.2327   0.4086   0.9086
Er110     Er     0.3051   0.5   0.8051
Er111     Er     0.1949   0.5   0.6949
Er112     Er     0.3051   0.1949   0.5
Er113     Er     0.1949   0.3051   0.5
Ti114     Ti     0.4086   0.0914   0.7673
Ti115     Ti     0.4086   0.2673   0.5914
Ti116     Ti     0.4086   0.2327   0.9086
Er117     Er     0.5   0.3051   0.8051
Er118     Er     0.5   0.1949   0.6949
Ti119     Ti     0.2327   0.9086   0.5914
Ti120     Ti     0.0914   0.7673   0.4086
Ti121     Ti     0.2673   0.5914   0.4086
Ti122     Ti     0.2327   0.9086   0.4086
Er123     Er     0.3051   0.8051   0.5
Er124     Er     0.1949   0.6949   0.5
Ti125     Ti     0.4086   0.5914   0.2673
Ti126     Ti     0.4086   0.7673   0.0914
Ti127     Ti     0.4086   0.9086   0.2327
Er128     Er     0.5   0.8051   0.3051
Er129     Er     0.5   0.6949   0.1949
Ti130     Ti     0.5914   0.9086   0.2327
Ti131     Ti     0.5914   0.2673   0.4086
Ti132     Ti     0.7673   0.0914   0.4086
Ti133     Ti     0.9086   0.2327   0.4086
Er134     Er     0.8051   0.3051   0.5
Er135     Er     0.6949   0.1949   0.5
Ti136     Ti     0.9086   0.2327   0.5914
Ti137     Ti     0.0914   0.2673   0.9086
Er138     Er     0.0   0.1949   0.8051
Er139     Er     0.0   0.3051   0.6949
Ti140     Ti     0.9086   0.2673   0.9086
Er141     Er     0.8051   0.1949   0.0
Er142     Er     0.6949   0.3051   0.0
Er143     Er     0.1949   0.8051   0.0
Er144     Er     0.3051   0.6949   0.0
Ti145     Ti     0.2673   0.9086   0.0914
Ti146     Ti     0.2673   0.9086   0.9086
Er147     Er     0.1949   0.0   0.8051
Er148     Er     0.3051   0.0   0.6949
Er149     Er     0.0   0.8051   0.1949
Er150     Er     0.0   0.6949   0.3051
Ti151     Ti     0.9086   0.9086   0.2673
Er152     Er     0.8051   0.0   0.1949
Er153     Er     0.6949   0.0   0.3051
Ti154     Ti     0.9086   0.0914   0.2673
Ti155     Ti     0.2673   0.0914   0.9086
Ti156     Ti     0.0914   0.2673   0.0914
Ti157     Ti     0.9086   0.2673   0.0914
Er158     Er     0.1949   0.1949   0.0
Er159     Er     0.3051   0.3051   0.0
Ti160     Ti     0.2673   0.0914   0.0914
Ti161     Ti     0.0914   0.9086   0.2673
Er162     Er     0.1949   0.0   0.1949
Er163     Er     0.3051   0.0   0.3051
Ti164     Ti     0.0914   0.0914   0.2673
Er165     Er     0.0   0.1949   0.1949
Er166     Er     0.0   0.3051   0.3051
Ti167     Ti     0.7673   0.4086   0.0914
Ti168     Ti     0.5914   0.4086   0.2673
Ti169     Ti     0.9086   0.4086   0.2327
Er170     Er     0.8051   0.5   0.3051
Er171     Er     0.6949   0.5   0.1949
Ti172     Ti     0.9086   0.5914   0.2327
Ti173     Ti     0.2327   0.4086   0.0914
Er174     Er     0.1949   0.5   0.3051
Er175     Er     0.3051   0.5   0.1949
Ti176     Ti     0.0914   0.4086   0.2327
loop_
_geom_bond_atom_site_label_1
_geom_bond_atom_site_label_2
_geom_bond_distance
_geom_bond_site_symmetry_2
_ccdc_geom_bond_type
V1     V4    10.0   1_556     S
V1     V2    10.0   1_455     S
V1     V7    10.0   .     S
V1     Ti108    10.0   .     S
V1     Ti109    10.0   .     S
V1     Ti137    10.0   .     S
V2     V3    10.0   1_556     S
V2     V1    10.0   1_655     S
V2     V6    10.0   .     S
V2     Ti95    10.0   .     S
V2     Ti96    10.0   .     S
V2     Ti140    10.0   .     S
V3     V2    10.0   1_554     S
V3     V4    10.0   1_655     S
V3     V5    10.0   .     S
V3     Ti157    10.0   .     S
V3     Ti167    10.0   .     S
V3     Ti169    10.0   .     S
V4     V1    10.0   1_554     S
V4     V3    10.0   1_455     S
V4     V8    10.0   .     S
V4     Ti156    10.0   .     S
V4     Ti173    10.0   .     S
V4     Ti176    10.0   .     S
V5     V8    10.0   1_655     S
V5     V6    10.0   1_554     S
V5     Ti62    10.0   .     S
V5     Ti80    10.0   .     S
V5     Ti172    10.0   .     S
V6     V7    10.0   1_655     S
V6     V5    10.0   1_556     S
V6     Ti90    10.0   .     S
V6     Ti97    10.0   .     S
V6     Ti100    10.0   .     S
V7     V6    10.0   1_455     S
V7     V8    10.0   1_556     S
V7     Ti79    10.0   .     S
V7     Ti89    10.0   .     S
V7     Ti106    10.0   .     S
V8     V5    10.0   1_455     S
V8     V7    10.0   1_554     S
V8     Ti42    10.0   .     S
V8     Ti49    10.0   .     S
V8     Ti52    10.0   .     S
V9     V12    10.0   1_565     S
V9     V10    10.0   1_554     S
V9     V13    10.0   .     S
V9     Ti126    10.0   .     S
V9     Ti127    10.0   .     S
V9     Ti145    10.0   .     S
V10     V11    10.0   1_565     S
V10     V9    10.0   1_556     S
V10     V14    10.0   .     S
V10     Ti66    10.0   .     S
V10     Ti67    10.0   .     S
V10     Ti146    10.0   .     S
V11     V10    10.0   1_545     S
V11     V12    10.0   1_556     S
V11     V15    10.0   .     S
V11     Ti114    10.0   .     S
V11     Ti116    10.0   .     S
V11     Ti155    10.0   .     S
V12     V9    10.0   1_545     S
V12     V11    10.0   1_554     S
V12     V16    10.0   .     S
V12     Ti101    10.0   .     S
V12     Ti104    10.0   .     S
V12     Ti160    10.0   .     S
V13     V16    10.0   1_565     S
V13     V14    10.0   1_554     S
V13     Ti63    10.0   .     S
V13     Ti81    10.0   .     S
V13     Ti130    10.0   .     S
V14     V15    10.0   1_565     S
V14     V13    10.0   1_556     S
V14     Ti68    10.0   .     S
V14     Ti71    10.0   .     S
V14     Ti84    10.0   .     S
V15     V14    10.0   1_545     S
V15     V16    10.0   1_556     S
V15     Ti64    10.0   .     S
V15     Ti85    10.0   .     S
V15     Ti105    10.0   .     S
V16     V13    10.0   1_545     S
V16     V15    10.0   1_554     S
V16     Ti41    10.0   .     S
V16     Ti48    10.0   .     S
V16     Ti51    10.0   .     S
V17     V18    10.0   1_565     S
V17     V19    10.0   1_655     S
V17     V23    10.0   .     S
V17     Ti73    10.0   .     S
V17     Ti74    10.0   .     S
V17     Ti151    10.0   .     S
V18     V17    10.0   1_545     S
V18     V20    10.0   1_655     S
V18     V21    10.0   .     S
V18     Ti132    10.0   .     S
V18     Ti133    10.0   .     S
V18     Ti154    10.0   .     S
V19     V17    10.0   1_455     S
V19     V20    10.0   1_565     S
V19     V24    10.0   .     S
V19     Ti120    10.0   .     S
V19     Ti122    10.0   .     S
V19     Ti161    10.0   .     S
V20     V18    10.0   1_455     S
V20     V19    10.0   1_545     S
V20     V22    10.0   .     S
V20     Ti58    10.0   .     S
V20     Ti60    10.0   .     S
V20     Ti164    10.0   .     S
V21     V22    10.0   1_655     S
V21     V23    10.0   1_545     S
V21     Ti65    10.0   .     S
V21     Ti86    10.0   .     S
V21     Ti136    10.0   .     S
V22     V21    10.0   1_455     S
V22     V24    10.0   1_545     S
V22     Ti43    10.0   .     S
V22     Ti50    10.0   .     S
V22     Ti53    10.0   .     S
V23     V21    10.0   1_565     S
V23     V24    10.0   1_655     S
V23     Ti75    10.0   .     S
V23     Ti78    10.0   .     S
V23     Ti91    10.0   .     S
V24     V23    10.0   1_455     S
V24     V22    10.0   1_565     S
V24     Ti72    10.0   .     S
V24     Ti92    10.0   .     S
V24     Ti119    10.0   .     S
V25     V26    10.0   .     S
V25     V28    10.0   .     S
V25     V29    10.0   .     S
V25     Ti33    10.0   .     S
V25     Ti34    10.0   .     S
V25     Ti35    10.0   .     S
V26     V27    10.0   .     S
V26     V30    10.0   .     S
V26     Ti36    10.0   .     S
V26     Ti46    10.0   .     S
V26     Ti47    10.0   .     S
V27     V32    10.0   .     S
V27     V28    10.0   .     S
V27     Ti59    10.0   .     S
V27     Ti131    10.0   .     S
V27     Ti168    10.0   .     S
V28     V31    10.0   .     S
V28     Ti38    10.0   .     S
V28     Ti39    10.0   .     S
V28     Ti44    10.0   .     S
V29     V30    10.0   .     S
V29     V31    10.0   .     S
V29     Ti37    10.0   .     S
V29     Ti40    10.0   .     S
V29     Ti45    10.0   .     S
V30     V32    10.0   .     S
V30     Ti57    10.0   .     S
V30     Ti121    10.0   .     S
V30     Ti125    10.0   .     S
V31     V32    10.0   .     S
V31     Ti54    10.0   .     S
V31     Ti107    10.0   .     S
V31     Ti115    10.0   .     S
V32     Ti55    10.0   .     S
V32     Ti56    10.0   .     S
V32     Ti61    10.0   .     S
Ti33     Er99    10.0   .     S
Ti33     Er70    10.0   .     S
Ti34     Er69    10.0   .     S
Ti34     Er77    10.0   .     S
Ti35     Er76    10.0   .     S
Ti35     Er98    10.0   .     S
Ti36     Er129    10.0   .     S
Ti36     Er171    10.0   .     S
Ti37     Er123    10.0   .     S
Ti37     Er69    10.0   .     S
Ti38     Er135    10.0   .     S
Ti38     Er118    10.0   .     S
Ti39     Er134    10.0   .     S
Ti39     Er98    10.0   .     S
Ti40     Er111    10.0   .     S
Ti40     Er124    10.0   .     S
Ti41     Er141    10.0   .     S
Ti41     Er152    10.0   .     S
Ti42     Er149    10.0   .     S
Ti42     Er143    10.0   .     S
Ti43     Er147    10.0   .     S
Ti43     Er138    10.0   .     S
Ti44     Er117    10.0   .     S
Ti44     Er99    10.0   .     S
Ti45     Er110    10.0   .     S
Ti45     Er70    10.0   .     S
Ti46     Er128    10.0   .     S
Ti46     Er77    10.0   .     S
Ti47     Er170    10.0   .     S
Ti47     Er76    10.0   .     S
Ti48     Er103    10.0   .     S
Ti48     Er142    10.0   .     S
Ti49     Er175    10.0   .     S
Ti49     Er144    10.0   .     S
Ti50     Er112    10.0   .     S
Ti50     Er148    10.0   .     S
Ti51     Er102    10.0   .     S
Ti51     Er153    10.0   .     S
Ti52     Er174    10.0   .     S
Ti52     Er150    10.0   .     S
Ti53     Er113    10.0   .     S
Ti53     Er139    10.0   .     S
Ti54     Er110    10.0   .     S
Ti54     Er117    10.0   .     S
Ti55     Er103    10.0   .     S
Ti55     Er175    10.0   .     S
Ti56     Er102    10.0   .     S
Ti56     Er112    10.0   .     S
Ti57     Er128    10.0   .     S
Ti57     Er123    10.0   .     S
Ti58     Er112    10.0   .     S
Ti58     Er163    10.0   .     S
Ti59     Er134    10.0   .     S
Ti59     Er170    10.0   .     S
Ti60     Er113    10.0   .     S
Ti60     Er166    10.0   .     S
Ti61     Er113    10.0   .     S
Ti61     Er174    10.0   .     S
Ti62     Er171    10.0   .     S
Ti62     Er83    10.0   .     S
Ti63     Er129    10.0   .     S
Ti63     Er83    10.0   .     S
Ti64     Er118    10.0   .     S
Ti64     Er88    10.0   .     S
Ti65     Er135    10.0   .     S
Ti65     Er88    10.0   .     S
Ti66     Er70    10.0   .     S
Ti66     Er144    10.0   1_556     S
Ti67     Er69    10.0   .     S
Ti67     Er148    10.0   1_565     S
Ti68     Er70    10.0   .     S
Ti68     Er83    10.0   1_556     S
Er69     Er70    10.0   .     S
Er69     Ti71    10.0   .     S
Ti71     Er88    10.0   1_565     S
Ti72     Er124    10.0   .     S
Ti72     Er93    10.0   .     S
Ti73     Er77    10.0   .     S
Ti73     Er153    10.0   1_565     S
Ti74     Er76    10.0   .     S
Ti74     Er150    10.0   1_655     S
Ti75     Er77    10.0   .     S
Ti75     Er88    10.0   1_565     S
Er76     Er77    10.0   .     S
Er76     Ti78    10.0   .     S
Ti78     Er93    10.0   1_655     S
Ti79     Er111    10.0   .     S
Ti79     Er93    10.0   .     S
Ti80     Er149    10.0   1_655     S
Ti80     Er82    10.0   .     S
Ti81     Er152    10.0   1_565     S
Ti81     Er82    10.0   .     S
Er82     Er83    10.0   .     S
Er82     Ti84    10.0   1_554     S
Er82     Ti90    10.0   1_554     S
Er83     Ti97    10.0   1_554     S
Er83     Ti68    10.0   1_554     S
Ti84     Er82    10.0   1_556     S
Ti84     Er87    10.0   1_565     S
Ti85     Er141    10.0   1_556     S
Ti85     Er87    10.0   .     S
Ti86     Er138    10.0   1_655     S
Ti86     Er87    10.0   .     S
Er87     Er88    10.0   .     S
Er87     Ti91    10.0   1_545     S
Er87     Ti84    10.0   1_545     S
Er88     Ti71    10.0   1_545     S
Er88     Ti75    10.0   1_545     S
Ti89     Er143    10.0   1_556     S
Ti89     Er94    10.0   .     S
Ti90     Er82    10.0   1_556     S
Ti90     Er94    10.0   1_655     S
Ti91     Er87    10.0   1_565     S
Ti91     Er94    10.0   1_655     S
Ti92     Er147    10.0   1_565     S
Ti92     Er94    10.0   .     S
Er93     Er94    10.0   .     S
Er93     Ti100    10.0   1_455     S
Er93     Ti78    10.0   1_455     S
Er94     Ti90    10.0   1_455     S
Er94     Ti91    10.0   1_455     S
Ti95     Er99    10.0   .     S
Ti95     Er142    10.0   1_556     S
Ti96     Er98    10.0   .     S
Ti96     Er139    10.0   1_655     S
Ti97     Er99    10.0   .     S
Ti97     Er83    10.0   1_556     S
Er98     Er99    10.0   .     S
Er98     Ti100    10.0   .     S
Ti100     Er93    10.0   1_655     S
Ti101     Er103    10.0   .     S
Ti101     Er159    10.0   .     S
Er102     Er103    10.0   .     S
Er102     Ti104    10.0   .     S
Er102     Ti131    10.0   .     S
Er103     Ti168    10.0   .     S
Ti104     Er163    10.0   .     S
Ti105     Er117    10.0   .     S
Ti105     Er142    10.0   1_556     S
Ti106     Er110    10.0   .     S
Ti106     Er144    10.0   1_556     S
Ti107     Er113    10.0   .     S
Ti107     Er111    10.0   .     S
Ti108     Er111    10.0   .     S
Ti108     Er139    10.0   .     S
Ti109     Er110    10.0   .     S
Ti109     Er159    10.0   1_556     S
Er110     Er111    10.0   .     S
Er112     Er113    10.0   .     S
Er112     Ti115    10.0   .     S
Ti114     Er118    10.0   .     S
Ti114     Er148    10.0   .     S
Ti115     Er118    10.0   .     S
Ti116     Er117    10.0   .     S
Ti116     Er159    10.0   1_556     S
Er117     Er118    10.0   .     S
Ti119     Er123    10.0   .     S
Ti119     Er148    10.0   1_565     S
Ti120     Er124    10.0   .     S
Ti120     Er150    10.0   .     S
Ti121     Er174    10.0   .     S
Ti121     Er124    10.0   .     S
Ti122     Er123    10.0   .     S
Ti122     Er163    10.0   1_565     S
Er123     Er124    10.0   .     S
Ti125     Er175    10.0   .     S
Ti125     Er129    10.0   .     S
Ti126     Er129    10.0   .     S
Ti126     Er144    10.0   .     S
Ti127     Er128    10.0   .     S
Ti127     Er163    10.0   1_565     S
Er128     Er129    10.0   .     S
Er128     Ti130    10.0   .     S
Ti130     Er153    10.0   1_565     S
Ti131     Er135    10.0   .     S
Ti132     Er135    10.0   .     S
Ti132     Er153    10.0   .     S
Ti133     Er134    10.0   .     S
Ti133     Er166    10.0   1_655     S
Er134     Er135    10.0   .     S
Er134     Ti136    10.0   .     S
Ti136     Er139    10.0   1_655     S
Ti137     Er158    10.0   1_556     S
Ti137     Er138    10.0   .     S
Er138     Ti86    10.0   1_455     S
Er138     Er139    10.0   .     S
Er138     Ti140    10.0   1_455     S
Er139     Ti136    10.0   1_455     S
Er139     Ti96    10.0   1_455     S
Ti140     Er138    10.0   1_655     S
Ti140     Er141    10.0   1_556     S
Er141     Ti85    10.0   1_554     S
Er141     Er142    10.0   .     S
Er141     Ti140    10.0   1_554     S
Er141     Ti157    10.0   .     S
Er142     Ti105    10.0   1_554     S
Er142     Ti167    10.0   .     S
Er142     Ti95    10.0   1_554     S
Er143     Ti89    10.0   1_554     S
Er143     Er144    10.0   .     S
Er143     Ti146    10.0   1_554     S
Er143     Ti145    10.0   .     S
Er144     Ti106    10.0   1_554     S
Er144     Ti66    10.0   1_554     S
Ti145     Er162    10.0   1_565     S
Ti146     Er143    10.0   1_556     S
Ti146     Er147    10.0   1_565     S
Er147     Ti92    10.0   1_545     S
Er147     Er148    10.0   .     S
Er147     Ti146    10.0   1_545     S
Er147     Ti155    10.0   .     S
Er148     Ti119    10.0   1_545     S
Er148     Ti67    10.0   1_545     S
Er149     Ti80    10.0   1_455     S
Er149     Er150    10.0   .     S
Er149     Ti151    10.0   1_455     S
Er149     Ti161    10.0   .     S
Er150     Ti74    10.0   1_455     S
Er150     Ti172    10.0   1_455     S
Ti151     Er149    10.0   1_655     S
Ti151     Er152    10.0   1_565     S
Er152     Ti81    10.0   1_545     S
Er152     Er153    10.0   .     S
Er152     Ti151    10.0   1_545     S
Er152     Ti154    10.0   .     S
Er153     Ti130    10.0   1_545     S
Er153     Ti73    10.0   1_545     S
Ti154     Er165    10.0   1_655     S
Ti155     Er158    10.0   1_556     S
Ti156     Er158    10.0   .     S
Ti156     Er165    10.0   .     S
Ti157     Er165    10.0   1_655     S
Er158     Ti137    10.0   1_554     S
Er158     Ti155    10.0   1_554     S
Er158     Er159    10.0   .     S
Er158     Ti160    10.0   .     S
Er159     Ti109    10.0   1_554     S
Er159     Ti116    10.0   1_554     S
Er159     Ti173    10.0   .     S
Ti160     Er162    10.0   .     S
Ti161     Er162    10.0   1_565     S
Er162     Ti145    10.0   1_545     S
Er162     Ti161    10.0   1_545     S
Er162     Er163    10.0   .     S
Er162     Ti164    10.0   .     S
Er163     Ti127    10.0   1_545     S
Er163     Ti122    10.0   1_545     S
Ti164     Er165    10.0   .     S
Er165     Ti154    10.0   1_455     S
Er165     Ti157    10.0   1_455     S
Er165     Er166    10.0   .     S
Er166     Ti176    10.0   .     S
Er166     Ti133    10.0   1_455     S
Er166     Ti169    10.0   1_455     S
Ti167     Er171    10.0   .     S
Ti168     Er171    10.0   .     S
Ti169     Er166    10.0   1_655     S
Ti169     Er170    10.0   .     S
Er170     Er171    10.0   .     S
Er170     Ti172    10.0   .     S
Ti172     Er150    10.0   1_655     S
Ti173     Er175    10.0   .     S
Er174     Er175    10.0   .     S
Er174     Ti176    10.0   .     S
