data_pbge
_audit_creation_date              2020-02-02
_audit_creation_method            'Pymatgen'
_symmetry_space_group_name_H-M    'P1'
_symmetry_Int_Tables_number       1
loop_
_symmetry_equiv_pos_as_xyz
  x,y,z
_cell_length_a                    77.3951
_cell_length_b                    77.3951
_cell_length_c                    77.3951
_cell_angle_alpha                 90.0
_cell_angle_beta                 90.0
_cell_angle_gamma                 90.0
loop_
_atom_site_label
_atom_site_type_symbol
_atom_site_fract_x
_atom_site_fract_y
_atom_site_fract_z
V1     V     0.0097   0.9042   0.0862
V2     V     0.9138   0.9903   0.0958
V3     V     0.9903   0.0958   0.9138
V4     V     0.9042   0.0862   0.0097
V5     V     0.0958   0.9138   0.9903
V6     V     0.0862   0.0097   0.9042
Er7     Er     0.875   0.153   0.903
Er8     Er     0.903   0.875   0.153
Er9     Er     0.153   0.903   0.875
V10     V     0.2597   0.6638   0.3458
V11     V     0.1542   0.7403   0.1638
V12     V     0.1638   0.6542   0.2597
V13     V     0.2403   0.8362   0.1542
V14     V     0.3362   0.8458   0.2403
V15     V     0.3458   0.7597   0.3362
Er16     Er     0.375   0.653   0.403
Er17     Er     0.097   0.625   0.153
V18     V     0.5862   0.5097   0.4042
V19     V     0.4903   0.5958   0.4138
V20     V     0.5958   0.4138   0.4903
V21     V     0.5097   0.4042   0.5862
V22     V     0.4042   0.5862   0.5097
V23     V     0.4138   0.4903   0.5958
Er24     Er     0.347   0.597   0.625
Er25     Er     0.597   0.625   0.347
V26     V     0.1542   0.2597   0.3362
V27     V     0.1638   0.3458   0.2403
V28     V     0.2597   0.3362   0.1542
V29     V     0.3458   0.2403   0.1638
V30     V     0.3362   0.1542   0.2597
V31     V     0.2403   0.1638   0.3458
Er32     Er     0.375   0.347   0.097
Er33     Er     0.097   0.375   0.347
Er34     Er     0.347   0.097   0.375
V35     V     0.6542   0.2403   0.6638
V36     V     0.7403   0.3362   0.6542
V37     V     0.6638   0.1542   0.7597
V38     V     0.8362   0.3458   0.7403
V39     V     0.7597   0.1638   0.8458
V40     V     0.8458   0.2597   0.8362
Er41     Er     0.597   0.125   0.653
Er42     Er     0.903   0.375   0.847
V43     V     0.4138   0.9903   0.4042
V44     V     0.5097   0.9042   0.4138
V45     V     0.5958   0.9138   0.5097
V46     V     0.5862   0.0097   0.5958
V47     V     0.4903   0.0958   0.5862
V48     V     0.4042   0.0862   0.4903
Er49     Er     0.403   0.875   0.347
Er50     Er     0.375   0.153   0.597
V51     V     0.4042   0.4138   0.9903
V52     V     0.5097   0.5958   0.9138
V53     V     0.4138   0.5097   0.9042
V54     V     0.4903   0.4042   0.0862
V55     V     0.5862   0.4903   0.0958
V56     V     0.5958   0.5862   0.0097
Er57     Er     0.597   0.375   0.153
Er58     Er     0.347   0.403   0.875
V59     V     0.6638   0.6542   0.2403
V60     V     0.6542   0.7403   0.3362
V61     V     0.7403   0.8362   0.3458
V62     V     0.7597   0.6638   0.1542
V63     V     0.8458   0.7597   0.1638
V64     V     0.8362   0.8458   0.2597
Er65     Er     0.625   0.847   0.403
Er66     Er     0.653   0.597   0.125
Er67     Er     0.847   0.903   0.375
V68     V     0.9903   0.4042   0.4138
V69     V     0.9138   0.5097   0.5958
V70     V     0.9042   0.4138   0.5097
V71     V     0.0097   0.5958   0.5862
V72     V     0.0958   0.5862   0.4903
V73     V     0.0862   0.4903   0.4042
Er74     Er     0.153   0.597   0.375
Er75     Er     0.847   0.403   0.625
V76     V     0.2597   0.8362   0.8458
V77     V     0.1638   0.8458   0.7597
V78     V     0.1542   0.7597   0.6638
V79     V     0.3458   0.7403   0.8362
V80     V     0.2403   0.6638   0.6542
V81     V     0.3362   0.6542   0.7403
Er82     Er     0.403   0.625   0.847
Er83     Er     0.125   0.653   0.597
Er84     Er     0.903   0.625   0.653
V85     V     0.3458   0.2597   0.6638
V86     V     0.2403   0.3362   0.8458
V87     V     0.3362   0.3458   0.7597
V88     V     0.1542   0.2403   0.8362
V89     V     0.1638   0.1542   0.7403
V90     V     0.2597   0.1638   0.6542
Er91     Er     0.403   0.375   0.653
Er92     Er     0.153   0.097   0.625
V93     V     0.0097   0.4042   0.9138
V94     V     0.0862   0.5097   0.0958
V95     V     0.0958   0.4138   0.0097
V96     V     0.9903   0.5958   0.0862
V97     V     0.9042   0.5862   0.9903
V98     V     0.9138   0.4903   0.9042
V99     V     0.9138   0.0097   0.4042
V100     V     0.9903   0.9042   0.5862
V101     V     0.9042   0.9138   0.4903
V102     V     0.0862   0.9903   0.5958
V103     V     0.0958   0.0862   0.5097
V104     V     0.0097   0.0958   0.4138
V105     V     0.6542   0.7597   0.8362
V106     V     0.6638   0.8458   0.7403
V107     V     0.7597   0.8362   0.6542
V108     V     0.8458   0.7403   0.6638
V109     V     0.8362   0.6542   0.7597
V110     V     0.7403   0.6638   0.8458
Er111     Er     0.875   0.847   0.597
Er112     Er     0.847   0.597   0.875
Er113     Er     0.153   0.403   0.125
Er114     Er     0.097   0.875   0.653
Er115     Er     0.875   0.653   0.097
Er116     Er     0.125   0.153   0.403
V117     V     0.6638   0.3458   0.2597
V118     V     0.7597   0.3362   0.3458
V119     V     0.8458   0.2403   0.3362
V120     V     0.8362   0.1542   0.2403
V121     V     0.7403   0.1638   0.1542
V122     V     0.6542   0.2597   0.1638
Er123     Er     0.875   0.347   0.403
Er124     Er     0.653   0.403   0.375
V125     V     0.4042   0.9138   0.0097
V126     V     0.5097   0.0958   0.0862
V127     V     0.4138   0.0097   0.0958
V128     V     0.5958   0.0862   0.9903
V129     V     0.5862   0.9903   0.9042
V130     V     0.4903   0.9042   0.9138
Er131     Er     0.597   0.875   0.847
Er132     Er     0.403   0.125   0.153
Er133     Er     0.653   0.097   0.875
Er134     Er     0.625   0.153   0.097
Er135     Er     0.847   0.097   0.125
Er136     Er     0.097   0.125   0.847
Er137     Er     0.903   0.125   0.347
Er138     Er     0.347   0.903   0.125
Er139     Er     0.125   0.347   0.903
Er140     Er     0.125   0.847   0.097
Er141     Er     0.625   0.347   0.597
Er142     Er     0.375   0.847   0.903
Er143     Er     0.653   0.903   0.625
Er144     Er     0.625   0.653   0.903
loop_
_geom_bond_atom_site_label_1
_geom_bond_atom_site_label_2
_geom_bond_distance
_geom_bond_site_symmetry_2
_ccdc_geom_bond_type
V1     Er140    10.0   .     S
V1     V5    10.0   1_554     S
V1     Er8    10.0   1_455     S
V1     V2    10.0   1_455     S
V2     Er8    10.0   .     S
V2     V1    10.0   1_655     S
V2     Er135    10.0   1_565     S
V2     V4    10.0   1_565     S
V3     Er7    10.0   .     S
V3     V4    10.0   1_556     S
V3     Er136    10.0   1_655     S
V3     V6    10.0   1_655     S
V4     V3    10.0   1_554     S
V4     Er135    10.0   .     S
V4     V2    10.0   1_545     S
V4     Er7    10.0   1_554     S
V5     V1    10.0   1_556     S
V5     Er9    10.0   .     S
V5     V6    10.0   1_565     S
V5     Er140    10.0   1_556     S
V6     V5    10.0   1_545     S
V6     Er136    10.0   .     S
V6     V3    10.0   1_455     S
V6     Er9    10.0   1_545     S
Er7     V4    10.0   1_556     S
Er7     V39    10.0   .     S
Er7     V40    10.0   .     S
Er8     V1    10.0   1_655     S
Er8     V63    10.0   .     S
Er8     V64    10.0   .     S
Er9     V6    10.0   1_565     S
Er9     V76    10.0   .     S
Er9     V77    10.0   .     S
V10     Er16    10.0   .     S
V10     V15    10.0   .     S
V10     Er74    10.0   .     S
V10     V12    10.0   .     S
V11     Er17    10.0   .     S
V11     V12    10.0   .     S
V11     Er140    10.0   .     S
V11     V13    10.0   .     S
V12     Er74    10.0   .     S
V12     Er17    10.0   .     S
V13     Er140    10.0   .     S
V13     Er138    10.0   .     S
V13     V14    10.0   .     S
V14     Er138    10.0   .     S
V14     Er49    10.0   .     S
V14     V15    10.0   .     S
V15     Er49    10.0   .     S
V15     Er16    10.0   .     S
Er16     V19    10.0   .     S
Er16     V22    10.0   .     S
Er17     V94    10.0   .     S
Er17     V96    10.0   1_455     S
V18     Er25    10.0   .     S
V18     V19    10.0   .     S
V18     Er124    10.0   .     S
V18     V20    10.0   .     S
V19     V22    10.0   .     S
V19     Er25    10.0   .     S
V20     Er124    10.0   .     S
V20     Er141    10.0   .     S
V20     V21    10.0   .     S
V21     Er141    10.0   .     S
V21     Er91    10.0   .     S
V21     V23    10.0   .     S
V22     Er24    10.0   .     S
V22     V23    10.0   .     S
V23     Er91    10.0   .     S
V23     Er24    10.0   .     S
Er24     V80    10.0   .     S
Er24     V81    10.0   .     S
Er25     V59    10.0   .     S
Er25     V60    10.0   .     S
V26     Er33    10.0   .     S
V26     V27    10.0   .     S
V26     Er116    10.0   .     S
V26     V31    10.0   .     S
V27     Er113    10.0   .     S
V27     V28    10.0   .     S
V27     Er33    10.0   .     S
V28     Er32    10.0   .     S
V28     V29    10.0   .     S
V28     Er113    10.0   .     S
V29     Er132    10.0   .     S
V29     V30    10.0   .     S
V29     Er32    10.0   .     S
V30     Er34    10.0   .     S
V30     V31    10.0   .     S
V30     Er132    10.0   .     S
V31     Er116    10.0   .     S
V31     Er34    10.0   .     S
Er32     V51    10.0   1_554     S
Er32     V54    10.0   .     S
Er33     V68    10.0   1_455     S
Er33     V73    10.0   .     S
Er34     V43    10.0   1_545     S
Er34     V48    10.0   .     S
V35     Er41    10.0   .     S
V35     V37    10.0   .     S
V35     Er141    10.0   .     S
V35     V36    10.0   .     S
V36     Er141    10.0   .     S
V36     Er75    10.0   .     S
V36     V38    10.0   .     S
V37     Er133    10.0   .     S
V37     V39    10.0   .     S
V37     Er41    10.0   .     S
V38     Er75    10.0   .     S
V38     Er42    10.0   .     S
V38     V40    10.0   .     S
V39     V40    10.0   .     S
V39     Er133    10.0   .     S
V40     Er42    10.0   .     S
Er41     V46    10.0   .     S
Er41     V47    10.0   .     S
Er42     V93    10.0   1_655     S
Er42     V98    10.0   .     S
V43     Er49    10.0   .     S
V43     V44    10.0   .     S
V43     Er34    10.0   1_565     S
V43     V48    10.0   1_565     S
V44     Er65    10.0   .     S
V44     V45    10.0   .     S
V44     Er49    10.0   .     S
V45     Er143    10.0   .     S
V45     V46    10.0   1_565     S
V45     Er65    10.0   .     S
V46     V45    10.0   1_545     S
V46     V47    10.0   .     S
V46     Er143    10.0   1_545     S
V47     Er50    10.0   .     S
V47     V48    10.0   .     S
V48     V43    10.0   1_545     S
V48     Er50    10.0   .     S
Er50     V85    10.0   .     S
Er50     V90    10.0   .     S
V51     Er58    10.0   .     S
V51     V53    10.0   .     S
V51     Er32    10.0   1_556     S
V51     V54    10.0   1_556     S
V52     Er144    10.0   .     S
V52     V56    10.0   1_556     S
V52     Er82    10.0   .     S
V52     V53    10.0   .     S
V53     Er82    10.0   .     S
V53     Er58    10.0   .     S
V54     V51    10.0   1_554     S
V54     Er57    10.0   .     S
V54     V55    10.0   .     S
V55     Er57    10.0   .     S
V55     Er66    10.0   .     S
V55     V56    10.0   .     S
V56     V52    10.0   1_554     S
V56     Er66    10.0   .     S
V56     Er144    10.0   1_554     S
Er57     V117    10.0   .     S
Er57     V122    10.0   .     S
Er58     V86    10.0   .     S
Er58     V87    10.0   .     S
V59     Er66    10.0   .     S
V59     V62    10.0   .     S
V59     V60    10.0   .     S
V60     Er65    10.0   .     S
V60     V61    10.0   .     S
V61     Er65    10.0   .     S
V61     Er67    10.0   .     S
V61     V64    10.0   .     S
V62     Er115    10.0   .     S
V62     V63    10.0   .     S
V62     Er66    10.0   .     S
V63     V64    10.0   .     S
V63     Er115    10.0   .     S
V64     Er67    10.0   .     S
Er67     V99    10.0   1_565     S
Er67     V101    10.0   .     S
V68     Er123    10.0   .     S
V68     V70    10.0   .     S
V68     Er33    10.0   1_655     S
V68     V73    10.0   1_655     S
V69     Er84    10.0   .     S
V69     V71    10.0   1_655     S
V69     Er75    10.0   .     S
V69     V70    10.0   .     S
V70     Er75    10.0   .     S
V70     Er123    10.0   .     S
V71     V69    10.0   1_455     S
V71     Er83    10.0   .     S
V71     V72    10.0   .     S
V71     Er84    10.0   1_455     S
V72     Er74    10.0   .     S
V72     V73    10.0   .     S
V72     Er83    10.0   .     S
V73     V68    10.0   1_455     S
V73     Er74    10.0   .     S
V76     Er142    10.0   .     S
V76     V79    10.0   .     S
V76     V77    10.0   .     S
V77     Er114    10.0   .     S
V77     V78    10.0   .     S
V78     Er114    10.0   .     S
V78     Er83    10.0   .     S
V78     V80    10.0   .     S
V79     Er82    10.0   .     S
V79     V81    10.0   .     S
V79     Er142    10.0   .     S
V80     Er83    10.0   .     S
V80     V81    10.0   .     S
V81     Er82    10.0   .     S
Er84     V71    10.0   1_655     S
Er84     V108    10.0   .     S
Er84     V109    10.0   .     S
V85     Er91    10.0   .     S
V85     V87    10.0   .     S
V85     V90    10.0   .     S
V86     Er139    10.0   .     S
V86     V88    10.0   .     S
V86     V87    10.0   .     S
V87     Er91    10.0   .     S
V88     Er136    10.0   .     S
V88     V89    10.0   .     S
V88     Er139    10.0   .     S
V89     Er92    10.0   .     S
V89     V90    10.0   .     S
V89     Er136    10.0   .     S
V90     Er92    10.0   .     S
Er92     V102    10.0   1_545     S
Er92     V103    10.0   .     S
V93     Er139    10.0   .     S
V93     V95    10.0   1_556     S
V93     Er42    10.0   1_455     S
V93     V98    10.0   1_455     S
V94     V96    10.0   1_455     S
V94     Er113    10.0   .     S
V94     V95    10.0   .     S
V95     V93    10.0   1_554     S
V95     Er113    10.0   .     S
V95     Er139    10.0   1_554     S
V96     V94    10.0   1_655     S
V96     Er115    10.0   .     S
V96     V97    10.0   1_554     S
V96     Er17    10.0   1_655     S
V97     V96    10.0   1_556     S
V97     Er112    10.0   .     S
V97     V98    10.0   .     S
V97     Er115    10.0   1_556     S
V98     V93    10.0   1_655     S
V98     Er112    10.0   .     S
V99     Er137    10.0   .     S
V99     V104    10.0   1_655     S
V99     Er67    10.0   1_545     S
V99     V101    10.0   1_545     S
V100     Er111    10.0   .     S
V100     V101    10.0   .     S
V100     Er114    10.0   1_655     S
V100     V102    10.0   1_655     S
V101     V99    10.0   1_565     S
V101     Er111    10.0   .     S
V102     Er114    10.0   .     S
V102     V100    10.0   1_455     S
V102     Er92    10.0   1_565     S
V102     V103    10.0   1_565     S
V103     V102    10.0   1_545     S
V103     Er116    10.0   .     S
V103     V104    10.0   .     S
V104     V99    10.0   1_455     S
V104     Er116    10.0   .     S
V104     Er137    10.0   1_455     S
V105     Er131    10.0   .     S
V105     V106    10.0   .     S
V105     Er144    10.0   .     S
V105     V110    10.0   .     S
V106     Er143    10.0   .     S
V106     V107    10.0   .     S
V106     Er131    10.0   .     S
V107     Er111    10.0   .     S
V107     V108    10.0   .     S
V107     Er143    10.0   .     S
V108     V109    10.0   .     S
V108     Er111    10.0   .     S
V109     Er112    10.0   .     S
V109     V110    10.0   .     S
V110     Er144    10.0   .     S
V110     Er112    10.0   .     S
Er114     V100    10.0   1_455     S
Er115     V97    10.0   1_554     S
V117     Er124    10.0   .     S
V117     V118    10.0   .     S
V117     V122    10.0   .     S
V118     Er123    10.0   .     S
V118     V119    10.0   .     S
V118     Er124    10.0   .     S
V119     Er137    10.0   .     S
V119     V120    10.0   .     S
V119     Er123    10.0   .     S
V120     Er135    10.0   .     S
V120     V121    10.0   .     S
V120     Er137    10.0   .     S
V121     Er134    10.0   .     S
V121     V122    10.0   .     S
V121     Er135    10.0   .     S
V122     Er134    10.0   .     S
V125     Er138    10.0   .     S
V125     V127    10.0   1_565     S
V125     Er142    10.0   1_554     S
V125     V130    10.0   1_554     S
V126     Er134    10.0   .     S
V126     V128    10.0   1_554     S
V126     Er132    10.0   .     S
V126     V127    10.0   .     S
V127     V125    10.0   1_545     S
V127     Er132    10.0   .     S
V127     Er138    10.0   1_545     S
V128     V126    10.0   1_556     S
V128     Er133    10.0   .     S
V128     V129    10.0   1_545     S
V128     Er134    10.0   1_556     S
V129     V128    10.0   1_565     S
V129     Er131    10.0   .     S
V129     V130    10.0   .     S
V129     Er133    10.0   1_565     S
V130     Er142    10.0   .     S
V130     V125    10.0   1_556     S
V130     Er131    10.0   .     S
Er133     V129    10.0   1_545     S
Er134     V128    10.0   1_554     S
Er135     V2    10.0   1_545     S
Er136     V3    10.0   1_455     S
Er137     V104    10.0   1_655     S
Er138     V127    10.0   1_565     S
Er139     V95    10.0   1_556     S
Er140     V5    10.0   1_554     S
Er142     V125    10.0   1_556     S
Er143     V46    10.0   1_565     S
Er144     V56    10.0   1_556     S
