data_pbpe
_audit_creation_date              2020-02-02
_audit_creation_method            'Pymatgen'
_symmetry_space_group_name_H-M    'P1'
_symmetry_Int_Tables_number       1
loop_
_symmetry_equiv_pos_as_xyz
  x,y,z
_cell_length_a                    62.9253
_cell_length_b                    62.9253
_cell_length_c                    62.9253
_cell_angle_alpha                 90.0
_cell_angle_beta                 90.0
_cell_angle_gamma                 90.0
loop_
_atom_site_label
_atom_site_type_symbol
_atom_site_fract_x
_atom_site_fract_y
_atom_site_fract_z
V1     V     0.6939   0.6939   0.0
V2     V     0.0   0.6939   0.6939
V3     V     0.6939   0.0   0.6939
V4     V     0.3061   0.6939   0.0
V5     V     0.0   0.3061   0.6939
V6     V     0.6939   0.0   0.3061
V7     V     0.6939   0.3061   0.0
V8     V     0.3061   0.0   0.6939
V9     V     0.0   0.6939   0.3061
V10     V     0.3061   0.3061   0.0
V11     V     0.3061   0.0   0.3061
Er12     Er     0.3624   0.1376   0.25
Er13     Er     0.3624   0.25   0.1376
Er14     Er     0.1376   0.3624   0.25
Er15     Er     0.25   0.3624   0.1376
Er16     Er     0.1376   0.25   0.3624
Er17     Er     0.25   0.1376   0.3624
V18     V     0.0   0.3061   0.3061
V19     V     0.8061   0.1939   0.5
V20     V     0.5   0.1939   0.8061
Er21     Er     0.75   0.3624   0.8624
Er22     Er     0.8624   0.3624   0.75
Er23     Er     0.6376   0.1376   0.75
Er24     Er     0.6376   0.25   0.8624
Er25     Er     0.75   0.1376   0.6376
Er26     Er     0.8624   0.25   0.6376
V27     V     0.1939   0.1939   0.5
Er28     Er     0.25   0.1376   0.6376
Er29     Er     0.1376   0.25   0.6376
Er30     Er     0.3624   0.1376   0.75
Er31     Er     0.3624   0.25   0.8624
Er32     Er     0.1376   0.3624   0.75
Er33     Er     0.25   0.3624   0.8624
V34     V     0.1939   0.8061   0.5
V35     V     0.1939   0.5   0.8061
Er36     Er     0.3624   0.8624   0.75
Er37     Er     0.3624   0.75   0.8624
Er38     Er     0.1376   0.75   0.6376
Er39     Er     0.25   0.8624   0.6376
Er40     Er     0.1376   0.6376   0.75
Er41     Er     0.25   0.6376   0.8624
V42     V     0.8061   0.5   0.8061
V43     V     0.5   0.8061   0.8061
V44     V     0.8061   0.8061   0.5
Er45     Er     0.8624   0.6376   0.75
Er46     Er     0.75   0.6376   0.8624
Er47     Er     0.6376   0.8624   0.75
Er48     Er     0.6376   0.75   0.8624
Er49     Er     0.75   0.8624   0.6376
Er50     Er     0.8624   0.75   0.6376
V51     V     0.1939   0.5   0.1939
Er52     Er     0.1376   0.6376   0.25
Er53     Er     0.25   0.6376   0.1376
Er54     Er     0.1376   0.75   0.3624
Er55     Er     0.25   0.8624   0.3624
Er56     Er     0.3624   0.75   0.1376
Er57     Er     0.3624   0.8624   0.25
V58     V     0.5   0.8061   0.1939
V59     V     0.8061   0.5   0.1939
Er60     Er     0.8624   0.75   0.3624
Er61     Er     0.75   0.8624   0.3624
Er62     Er     0.6376   0.75   0.1376
Er63     Er     0.6376   0.8624   0.25
Er64     Er     0.75   0.6376   0.1376
Er65     Er     0.8624   0.6376   0.25
V66     V     0.5   0.1939   0.1939
Er67     Er     0.6376   0.25   0.1376
Er68     Er     0.6376   0.1376   0.25
Er69     Er     0.75   0.1376   0.3624
Er70     Er     0.8624   0.25   0.3624
Er71     Er     0.75   0.3624   0.1376
Er72     Er     0.8624   0.3624   0.25
loop_
_geom_bond_atom_site_label_1
_geom_bond_atom_site_label_2
_geom_bond_distance
_geom_bond_site_symmetry_2
_ccdc_geom_bond_type
V1     Er48    10.0   1_554     S
V1     Er64    10.0   .     S
V1     Er46    10.0   1_554     S
V1     Er62    10.0   .     S
V2     Er38    10.0   .     S
V2     Er40    10.0   .     S
V2     Er45    10.0   1_455     S
V2     Er50    10.0   1_455     S
V3     Er23    10.0   .     S
V3     Er25    10.0   .     S
V3     Er49    10.0   1_545     S
V3     Er47    10.0   1_545     S
V4     Er37    10.0   1_554     S
V4     Er56    10.0   .     S
V4     Er53    10.0   .     S
V4     Er41    10.0   1_554     S
V5     Er32    10.0   .     S
V5     Er22    10.0   1_455     S
V5     Er29    10.0   .     S
V5     Er26    10.0   1_455     S
V6     Er69    10.0   .     S
V6     Er61    10.0   1_545     S
V6     Er68    10.0   .     S
V6     Er63    10.0   1_545     S
V7     Er21    10.0   1_554     S
V7     Er71    10.0   .     S
V7     Er67    10.0   .     S
V7     Er24    10.0   1_554     S
V8     Er30    10.0   .     S
V8     Er36    10.0   1_545     S
V8     Er28    10.0   .     S
V8     Er39    10.0   1_545     S
V9     Er54    10.0   .     S
V9     Er60    10.0   1_455     S
V9     Er52    10.0   .     S
V9     Er65    10.0   1_455     S
V10     Er15    10.0   .     S
V10     Er13    10.0   .     S
V10     Er31    10.0   1_554     S
V10     Er33    10.0   1_554     S
V11     Er12    10.0   .     S
V11     Er17    10.0   .     S
V11     Er55    10.0   1_545     S
V11     Er57    10.0   1_545     S
Er12     Er13    10.0   .     S
Er12     Er17    10.0   .     S
Er12     V66    10.0   .     S
Er13     Er15    10.0   .     S
Er13     V66    10.0   .     S
Er14     Er15    10.0   .     S
Er14     Er16    10.0   .     S
Er14     V18    10.0   .     S
Er14     V51    10.0   .     S
Er15     V51    10.0   .     S
Er16     Er17    10.0   .     S
Er16     V18    10.0   .     S
Er16     V27    10.0   .     S
Er17     V27    10.0   .     S
V18     Er72    10.0   1_455     S
V18     Er70    10.0   1_455     S
V19     Er70    10.0   .     S
V19     Er69    10.0   .     S
V19     Er26    10.0   .     S
V19     Er25    10.0   .     S
V20     Er31    10.0   .     S
V20     Er30    10.0   .     S
V20     Er24    10.0   .     S
V20     Er23    10.0   .     S
Er21     V7    10.0   1_556     S
Er21     Er22    10.0   .     S
Er21     Er24    10.0   .     S
Er21     V42    10.0   .     S
Er22     V5    10.0   1_655     S
Er22     Er26    10.0   .     S
Er22     V42    10.0   .     S
Er23     Er24    10.0   .     S
Er23     Er25    10.0   .     S
Er24     V7    10.0   1_556     S
Er25     Er26    10.0   .     S
Er26     V5    10.0   1_655     S
V27     Er28    10.0   .     S
V27     Er29    10.0   .     S
Er28     Er29    10.0   .     S
Er28     Er30    10.0   .     S
Er29     Er32    10.0   .     S
Er30     Er31    10.0   .     S
Er31     V10    10.0   1_556     S
Er31     Er33    10.0   .     S
Er32     Er33    10.0   .     S
Er32     V35    10.0   .     S
Er33     V10    10.0   1_556     S
Er33     V35    10.0   .     S
V34     Er55    10.0   .     S
V34     Er54    10.0   .     S
V34     Er39    10.0   .     S
V34     Er38    10.0   .     S
V35     Er41    10.0   .     S
V35     Er40    10.0   .     S
Er36     V8    10.0   1_565     S
Er36     Er37    10.0   .     S
Er36     Er39    10.0   .     S
Er36     V43    10.0   .     S
Er37     V4    10.0   1_556     S
Er37     Er41    10.0   .     S
Er37     V43    10.0   .     S
Er38     Er39    10.0   .     S
Er38     Er40    10.0   .     S
Er39     V8    10.0   1_565     S
Er40     Er41    10.0   .     S
Er41     V4    10.0   1_556     S
V42     Er45    10.0   .     S
V42     Er46    10.0   .     S
V43     Er48    10.0   .     S
V43     Er47    10.0   .     S
V44     Er60    10.0   .     S
V44     Er61    10.0   .     S
V44     Er49    10.0   .     S
V44     Er50    10.0   .     S
Er45     V2    10.0   1_655     S
Er45     Er46    10.0   .     S
Er45     Er50    10.0   .     S
Er46     V1    10.0   1_556     S
Er46     Er48    10.0   .     S
Er47     V3    10.0   1_565     S
Er47     Er48    10.0   .     S
Er47     Er49    10.0   .     S
Er48     V1    10.0   1_556     S
Er49     V3    10.0   1_565     S
Er49     Er50    10.0   .     S
Er50     V2    10.0   1_655     S
V51     Er52    10.0   .     S
V51     Er53    10.0   .     S
Er52     Er53    10.0   .     S
Er52     Er54    10.0   .     S
Er53     Er56    10.0   .     S
Er54     Er55    10.0   .     S
Er55     V11    10.0   1_565     S
Er55     Er57    10.0   .     S
Er56     Er57    10.0   .     S
Er56     V58    10.0   .     S
Er57     V11    10.0   1_565     S
Er57     V58    10.0   .     S
V58     Er63    10.0   .     S
V58     Er62    10.0   .     S
V59     Er72    10.0   .     S
V59     Er71    10.0   .     S
V59     Er65    10.0   .     S
V59     Er64    10.0   .     S
Er60     V9    10.0   1_655     S
Er60     Er61    10.0   .     S
Er60     Er65    10.0   .     S
Er61     V6    10.0   1_565     S
Er61     Er63    10.0   .     S
Er62     Er63    10.0   .     S
Er62     Er64    10.0   .     S
Er63     V6    10.0   1_565     S
Er64     Er65    10.0   .     S
Er65     V9    10.0   1_655     S
V66     Er67    10.0   .     S
V66     Er68    10.0   .     S
Er67     Er68    10.0   .     S
Er67     Er71    10.0   .     S
Er68     Er69    10.0   .     S
Er69     Er70    10.0   .     S
Er70     V18    10.0   1_655     S
Er70     Er72    10.0   .     S
Er71     Er72    10.0   .     S
Er72     V18    10.0   1_655     S
