data_pbpl
_audit_creation_date              2020-02-02
_audit_creation_method            'Pymatgen'
_symmetry_space_group_name_H-M    'P1'
_symmetry_Int_Tables_number       1
loop_
_symmetry_equiv_pos_as_xyz
  x,y,z
_cell_length_a                    91.2096
_cell_length_b                    91.2096
_cell_length_c                    91.2096
_cell_angle_alpha                 90.0
_cell_angle_beta                 90.0
_cell_angle_gamma                 90.0
loop_
_atom_site_label
_atom_site_type_symbol
_atom_site_fract_x
_atom_site_fract_y
_atom_site_fract_z
Ti1     Ti     0.8663   0.7887   0.5
Ti2     Ti     0.7887   0.8663   0.5
Ti3     Ti     0.8663   0.5   0.7887
Ti4     Ti     0.7887   0.5   0.8663
Ti5     Ti     0.5   0.8663   0.7887
Ti6     Ti     0.5   0.7887   0.8663
Ti7     Ti     0.8663   0.2113   0.5
Ti8     Ti     0.7887   0.1337   0.5
Ti9     Ti     0.2113   0.8663   0.5
Ti10     Ti     0.1337   0.7887   0.5
Ti11     Ti     0.5   0.8663   0.2113
Ti12     Ti     0.5   0.7887   0.1337
Ti13     Ti     0.8663   0.5   0.2113
Ti14     Ti     0.7887   0.5   0.1337
Ti15     Ti     0.1337   0.5   0.2113
Ti16     Ti     0.2113   0.5   0.1337
Ti17     Ti     0.5   0.1337   0.2113
Ti18     Ti     0.5   0.2113   0.1337
Ti19     Ti     0.5   0.2113   0.8663
Ti20     Ti     0.5   0.1337   0.7887
Ti21     Ti     0.2113   0.5   0.8663
Ti22     Ti     0.1337   0.5   0.7887
Ti23     Ti     0.0   0.2887   0.3663
Ti24     Ti     0.0   0.3663   0.2887
Er25     Er     0.75   0.095   0.405
V26     V     0.75   0.1725   0.3275
Er27     Er     0.595   0.095   0.25
V28     V     0.6725   0.1725   0.25
Er29     Er     0.75   0.405   0.095
V30     V     0.75   0.3275   0.1725
Er31     Er     0.595   0.25   0.095
V32     V     0.6725   0.25   0.1725
V33     V     0.8275   0.25   0.3275
Er34     Er     0.905   0.25   0.405
V35     V     0.8275   0.3275   0.25
Er36     Er     0.905   0.405   0.25
Ti37     Ti     0.0   0.7113   0.3663
Ti38     Ti     0.0   0.6337   0.2887
Ti39     Ti     0.7113   0.0   0.3663
Ti40     Ti     0.6337   0.0   0.2887
Er41     Er     0.595   0.75   0.095
V42     V     0.6725   0.75   0.1725
Er43     Er     0.75   0.595   0.095
V44     V     0.75   0.6725   0.1725
V45     V     0.75   0.8275   0.3275
Er46     Er     0.75   0.905   0.405
V47     V     0.6725   0.8275   0.25
Er48     Er     0.595   0.905   0.25
V49     V     0.8275   0.75   0.3275
Er50     Er     0.905   0.75   0.405
V51     V     0.8275   0.6725   0.25
Er52     Er     0.905   0.595   0.25
Ti53     Ti     0.7113   0.3663   0.0
Ti54     Ti     0.6337   0.2887   0.0
Ti55     Ti     0.0   0.3663   0.7113
Ti56     Ti     0.0   0.2887   0.6337
Er57     Er     0.75   0.095   0.595
V58     V     0.75   0.1725   0.6725
Er59     Er     0.595   0.095   0.75
V60     V     0.6725   0.1725   0.75
V61     V     0.8275   0.3275   0.75
Er62     Er     0.905   0.405   0.75
V63     V     0.8275   0.25   0.6725
Er64     Er     0.905   0.25   0.595
V65     V     0.75   0.3275   0.8275
Er66     Er     0.75   0.405   0.905
V67     V     0.6725   0.25   0.8275
Er68     Er     0.595   0.25   0.905
Ti69     Ti     0.7113   0.6337   0.0
Ti70     Ti     0.6337   0.7113   0.0
Ti71     Ti     0.6337   0.0   0.7113
Ti72     Ti     0.7113   0.0   0.6337
Ti73     Ti     0.0   0.6337   0.7113
Ti74     Ti     0.0   0.7113   0.6337
V75     V     0.75   0.8275   0.6725
Er76     Er     0.75   0.905   0.595
V77     V     0.6725   0.8275   0.75
Er78     Er     0.595   0.905   0.75
V79     V     0.6725   0.75   0.8275
Er80     Er     0.595   0.75   0.905
V81     V     0.75   0.6725   0.8275
Er82     Er     0.75   0.595   0.905
V83     V     0.8275   0.75   0.6725
Er84     Er     0.905   0.75   0.595
V85     V     0.8275   0.6725   0.75
Er86     Er     0.905   0.595   0.75
Ti87     Ti     0.3663   0.0   0.2887
Ti88     Ti     0.2887   0.0   0.3663
Er89     Er     0.095   0.75   0.405
V90     V     0.1725   0.75   0.3275
Er91     Er     0.095   0.595   0.25
V92     V     0.1725   0.6725   0.25
Er93     Er     0.405   0.75   0.095
V94     V     0.3275   0.75   0.1725
Er95     Er     0.25   0.595   0.095
V96     V     0.25   0.6725   0.1725
V97     V     0.25   0.8275   0.3275
Er98     Er     0.25   0.905   0.405
V99     V     0.3275   0.8275   0.25
Er100     Er     0.405   0.905   0.25
Ti101     Ti     0.3663   0.7113   0.0
Ti102     Ti     0.2887   0.6337   0.0
Ti103     Ti     0.3663   0.0   0.7113
Ti104     Ti     0.2887   0.0   0.6337
Er105     Er     0.095   0.595   0.75
V106     V     0.1725   0.6725   0.75
Er107     Er     0.095   0.75   0.595
V108     V     0.1725   0.75   0.6725
V109     V     0.3275   0.75   0.8275
Er110     Er     0.405   0.75   0.905
V111     V     0.25   0.6725   0.8275
Er112     Er     0.25   0.595   0.905
V113     V     0.3275   0.8275   0.75
Er114     Er     0.405   0.905   0.75
V115     V     0.25   0.8275   0.6725
Er116     Er     0.25   0.905   0.595
Ti117     Ti     0.2887   0.3663   0.0
Ti118     Ti     0.3663   0.2887   0.0
Er119     Er     0.095   0.405   0.75
V120     V     0.1725   0.3275   0.75
Er121     Er     0.095   0.25   0.595
V122     V     0.1725   0.25   0.6725
Er123     Er     0.405   0.095   0.75
V124     V     0.3275   0.1725   0.75
Er125     Er     0.25   0.095   0.595
V126     V     0.25   0.1725   0.6725
V127     V     0.25   0.3275   0.8275
Er128     Er     0.25   0.405   0.905
V129     V     0.3275   0.25   0.8275
Er130     Er     0.405   0.25   0.905
Er131     Er     0.405   0.25   0.095
V132     V     0.3275   0.25   0.1725
Er133     Er     0.405   0.095   0.25
V134     V     0.3275   0.1725   0.25
Er135     Er     0.25   0.405   0.095
V136     V     0.25   0.3275   0.1725
Er137     Er     0.095   0.405   0.25
V138     V     0.1725   0.3275   0.25
Er139     Er     0.25   0.095   0.405
V140     V     0.25   0.1725   0.3275
Er141     Er     0.095   0.25   0.405
V142     V     0.1725   0.25   0.3275
Ti143     Ti     0.2113   0.1337   0.5
Ti144     Ti     0.1337   0.2113   0.5
loop_
_geom_bond_atom_site_label_1
_geom_bond_atom_site_label_2
_geom_bond_distance
_geom_bond_site_symmetry_2
_ccdc_geom_bond_type
Ti1     Er50    10.0   .     S
Ti1     Er84    10.0   .     S
Ti1     Ti2    10.001   .     S
Ti2     Er76    10.0   .     S
Ti2     Er46    10.0   .     S
Ti3     Er86    10.0   .     S
Ti3     Er62    10.0   .     S
Ti3     Ti4    10.001   .     S
Ti4     Er66    10.0   .     S
Ti4     Er82    10.0   .     S
Ti5     Er114    10.0   .     S
Ti5     Er78    10.0   .     S
Ti5     Ti6    10.001   .     S
Ti6     Er80    10.0   .     S
Ti6     Er110    10.0   .     S
Ti7     Er64    10.0   .     S
Ti7     Er34    10.0   .     S
Ti7     Ti8    10.001   .     S
Ti8     Er25    10.0   .     S
Ti8     Er57    10.0   .     S
Ti9     Er98    10.0   .     S
Ti9     Er116    10.0   .     S
Ti9     Ti10    10.001   .     S
Ti10     Er107    10.0   .     S
Ti10     Er89    10.0   .     S
Ti11     Er48    10.0   .     S
Ti11     Er100    10.0   .     S
Ti11     Ti12    10.001   .     S
Ti12     Er93    10.0   .     S
Ti12     Er41    10.0   .     S
Ti13     Er36    10.0   .     S
Ti13     Er52    10.0   .     S
Ti13     Ti14    10.001   .     S
Ti14     Er43    10.0   .     S
Ti14     Er29    10.0   .     S
Ti15     Er91    10.0   .     S
Ti15     Er137    10.0   .     S
Ti15     Ti16    10.001   .     S
Ti16     Er135    10.0   .     S
Ti16     Er95    10.0   .     S
Ti17     Er133    10.0   .     S
Ti17     Er27    10.0   .     S
Ti17     Ti18    10.001   .     S
Ti18     Er31    10.0   .     S
Ti18     Er131    10.0   .     S
Ti19     Er130    10.0   .     S
Ti19     Er68    10.0   .     S
Ti19     Ti20    10.001   .     S
Ti20     Er59    10.0   .     S
Ti20     Er123    10.0   .     S
Ti21     Er112    10.0   .     S
Ti21     Er128    10.0   .     S
Ti21     Ti22    10.001   .     S
Ti22     Er119    10.0   .     S
Ti22     Er105    10.0   .     S
Ti23     Er141    10.0   .     S
Ti23     Er34    10.0   1_455     S
Ti23     Ti24    10.001   .     S
Ti24     Er36    10.0   1_455     S
Ti24     Er137    10.0   .     S
Er25     V26    9.999   .     S
Er25     Ti39    10.0   .     S
V26     V28    10.001   .     S
V26     V33    10.001   .     S
Er27     V28    9.999   .     S
Er27     Ti40    10.0   .     S
V28     V32    10.001   .     S
Er29     V30    9.999   .     S
Er29     Ti53    10.0   .     S
V30     V32    10.001   .     S
V30     V35    10.001   .     S
Er31     V32    9.999   .     S
Er31     Ti54    10.0   .     S
V33     Er34    9.999   .     S
V33     V35    10.001   .     S
Er34     Ti23    10.0   1_655     S
V35     Er36    9.999   .     S
Er36     Ti24    10.0   1_655     S
Ti37     Er50    10.0   1_455     S
Ti37     Er89    10.0   .     S
Ti37     Ti38    10.001   .     S
Ti38     Er52    10.0   1_455     S
Ti38     Er91    10.0   .     S
Ti39     Er46    10.0   1_545     S
Ti39     Ti40    10.001   .     S
Ti40     Er48    10.0   1_545     S
Er41     V42    9.999   .     S
Er41     Ti70    10.0   .     S
V42     V44    10.001   .     S
V42     V47    10.001   .     S
Er43     V44    9.999   .     S
Er43     Ti69    10.0   .     S
V44     V51    10.001   .     S
V45     Er46    9.999   .     S
V45     V47    10.001   .     S
V45     V49    10.001   .     S
Er46     Ti39    10.0   1_565     S
V47     Er48    9.999   .     S
Er48     Ti40    10.0   1_565     S
V49     Er50    9.999   .     S
V49     V51    10.001   .     S
Er50     Ti37    10.0   1_655     S
V51     Er52    9.999   .     S
Er52     Ti38    10.0   1_655     S
Ti53     Er66    10.0   1_554     S
Ti53     Ti54    10.001   .     S
Ti54     Er68    10.0   1_554     S
Ti55     Er119    10.0   .     S
Ti55     Er62    10.0   1_455     S
Ti55     Ti56    10.001   .     S
Ti56     Er64    10.0   1_455     S
Ti56     Er121    10.0   .     S
Er57     V58    9.999   .     S
Er57     Ti72    10.0   .     S
V58     V60    10.001   .     S
V58     V63    10.001   .     S
Er59     V60    9.999   .     S
Er59     Ti71    10.0   .     S
V60     V67    10.001   .     S
V61     Er62    9.999   .     S
V61     V63    10.001   .     S
V61     V65    10.001   .     S
Er62     Ti55    10.0   1_655     S
V63     Er64    9.999   .     S
Er64     Ti56    10.0   1_655     S
V65     Er66    9.999   .     S
V65     V67    10.001   .     S
Er66     Ti53    10.0   1_556     S
V67     Er68    9.999   .     S
Er68     Ti54    10.0   1_556     S
Ti69     Er82    10.0   1_554     S
Ti69     Ti70    10.001   .     S
Ti70     Er80    10.0   1_554     S
Ti71     Er78    10.0   1_545     S
Ti71     Ti72    10.001   .     S
Ti72     Er76    10.0   1_545     S
Ti73     Er86    10.0   1_455     S
Ti73     Er105    10.0   .     S
Ti73     Ti74    10.001   .     S
Ti74     Er107    10.0   .     S
Ti74     Er84    10.0   1_455     S
V75     Er76    9.999   .     S
V75     V77    10.001   .     S
V75     V83    10.001   .     S
Er76     Ti72    10.0   1_565     S
V77     Er78    9.999   .     S
V77     V79    10.001   .     S
Er78     Ti71    10.0   1_565     S
V79     Er80    9.999   .     S
V79     V81    10.001   .     S
Er80     Ti70    10.0   1_556     S
V81     Er82    9.999   .     S
V81     V85    10.001   .     S
Er82     Ti69    10.0   1_556     S
V83     Er84    9.999   .     S
V83     V85    10.001   .     S
Er84     Ti74    10.0   1_655     S
V85     Er86    9.999   .     S
Er86     Ti73    10.0   1_655     S
Ti87     Er133    10.0   .     S
Ti87     Er100    10.0   1_545     S
Ti87     Ti88    10.001   .     S
Ti88     Er98    10.0   1_545     S
Ti88     Er139    10.0   .     S
Er89     V90    9.999   .     S
V90     V92    10.001   .     S
V90     V97    10.001   .     S
Er91     V92    9.999   .     S
V92     V96    10.001   .     S
Er93     V94    9.999   .     S
Er93     Ti101    10.0   .     S
V94     V96    10.001   .     S
V94     V99    10.001   .     S
Er95     V96    9.999   .     S
Er95     Ti102    10.0   .     S
V97     Er98    9.999   .     S
V97     V99    10.001   .     S
Er98     Ti88    10.0   1_565     S
V99     Er100    9.999   .     S
Er100     Ti87    10.0   1_565     S
Ti101     Er110    10.0   1_554     S
Ti101     Ti102    10.001   .     S
Ti102     Er112    10.0   1_554     S
Ti103     Er114    10.0   1_545     S
Ti103     Er123    10.0   .     S
Ti103     Ti104    10.001   .     S
Ti104     Er125    10.0   .     S
Ti104     Er116    10.0   1_545     S
Er105     V106    9.999   .     S
V106     V108    10.001   .     S
V106     V111    10.001   .     S
Er107     V108    9.999   .     S
V108     V115    10.001   .     S
V109     Er110    9.999   .     S
V109     V111    10.001   .     S
V109     V113    10.001   .     S
Er110     Ti101    10.0   1_556     S
V111     Er112    9.999   .     S
Er112     Ti102    10.0   1_556     S
V113     Er114    9.999   .     S
V113     V115    10.001   .     S
Er114     Ti103    10.0   1_565     S
V115     Er116    9.999   .     S
Er116     Ti104    10.0   1_565     S
Ti117     Er135    10.0   .     S
Ti117     Er128    10.0   1_554     S
Ti117     Ti118    10.001   .     S
Ti118     Er130    10.0   1_554     S
Ti118     Er131    10.0   .     S
Er119     V120    9.999   .     S
V120     V122    10.001   .     S
V120     V127    10.001   .     S
Er121     V122    9.999   .     S
Er121     Ti144    10.0   .     S
V122     V126    10.001   .     S
Er123     V124    9.999   .     S
V124     V126    10.001   .     S
V124     V129    10.001   .     S
Er125     V126    9.999   .     S
Er125     Ti143    10.0   .     S
V127     Er128    9.999   .     S
V127     V129    10.001   .     S
Er128     Ti117    10.0   1_556     S
V129     Er130    9.999   .     S
Er130     Ti118    10.0   1_556     S
Er131     V132    9.999   .     S
V132     V134    10.001   .     S
V132     V136    10.001   .     S
Er133     V134    9.999   .     S
V134     V140    10.001   .     S
Er135     V136    9.999   .     S
V136     V138    10.001   .     S
Er137     V138    9.999   .     S
V138     V142    10.001   .     S
Er139     V140    9.999   .     S
Er139     Ti143    10.0   .     S
V140     V142    10.001   .     S
Er141     V142    9.999   .     S
Er141     Ti144    10.0   .     S
Ti143     Ti144    10.001   .     S
