data_pbze
_audit_creation_date              2020-02-02
_audit_creation_method            'Pymatgen'
_symmetry_space_group_name_H-M    'P1'
_symmetry_Int_Tables_number       1
loop_
_symmetry_equiv_pos_as_xyz
  x,y,z
_cell_length_a                    48.9898
_cell_length_b                    48.9898
_cell_length_c                    48.9898
_cell_angle_alpha                 90.0
_cell_angle_beta                 90.0
_cell_angle_gamma                 90.0
loop_
_atom_site_label
_atom_site_type_symbol
_atom_site_fract_x
_atom_site_fract_y
_atom_site_fract_z
V1     V     0.0   0.75   0.25
Er2     Er     0.1665   0.9166   0.5834
Er3     Er     0.9166   0.1665   0.5834
Er4     Er     0.9166   0.9166   0.3335
Er5     Er     0.8334   0.0834   0.4166
Er6     Er     0.0834   0.8334   0.4166
Er7     Er     0.0834   0.0834   0.6666
V8     V     0.25   0.0   0.75
V9     V     0.75   0.0   0.25
Er10     Er     0.5834   0.9166   0.1665
Er11     Er     0.3335   0.9166   0.9166
Er12     Er     0.5834   0.1665   0.9166
Er13     Er     0.4166   0.0834   0.8334
Er14     Er     0.6666   0.0834   0.0834
Er15     Er     0.4166   0.8334   0.0834
V16     V     0.75   0.25   0.5
V17     V     0.25   0.5   0.75
V18     V     0.5   0.75   0.25
V19     V     0.25   0.75   0.5
V20     V     0.5   0.25   0.75
Er21     Er     0.3335   0.5834   0.5834
Er22     Er     0.5834   0.3335   0.5834
Er23     Er     0.5834   0.5834   0.3335
Er24     Er     0.6666   0.4166   0.4166
Er25     Er     0.4166   0.6666   0.4166
Er26     Er     0.4166   0.4166   0.6666
V27     V     0.75   0.25   0.0
V28     V     0.25   0.75   0.0
V29     V     0.75   0.5   0.25
Er30     Er     0.9166   0.5834   0.1665
Er31     Er     0.1665   0.5834   0.9166
Er32     Er     0.9166   0.3335   0.9166
Er33     Er     0.0834   0.4166   0.8334
Er34     Er     0.8334   0.4166   0.0834
Er35     Er     0.0834   0.6666   0.0834
V36     V     0.0   0.25   0.75
loop_
_geom_bond_atom_site_label_1
_geom_bond_atom_site_label_2
_geom_bond_distance
_geom_bond_site_symmetry_2
_ccdc_geom_bond_type
V1     Er35    10.0   .     S
V1     Er30    10.0   1_455     S
V1     Er4    10.0   1_455     S
V1     Er6    10.0   .     S
Er2     Er7    10.0   1_565     S
Er2     Er6    10.0   .     S
Er2     V8    10.0   1_565     S
Er2     V19    10.0   .     S
Er3     Er5    10.0   .     S
Er3     Er7    10.0   1_655     S
Er3     V16    10.0   .     S
Er3     V36    10.0   1_655     S
Er4     Er5    10.0   1_565     S
Er4     Er6    10.0   1_655     S
Er4     V9    10.0   1_565     S
Er4     V1    10.0   1_655     S
Er5     Er4    10.0   1_545     S
Er5     V16    10.0   .     S
Er5     V9    10.0   .     S
Er6     Er4    10.0   1_455     S
Er6     V19    10.0   .     S
Er7     Er2    10.0   1_545     S
Er7     Er3    10.0   1_455     S
Er7     V8    10.0   .     S
Er7     V36    10.0   .     S
V8     Er2    10.0   1_545     S
V8     Er11    10.0   1_545     S
V8     Er13    10.0   .     S
V9     Er14    10.0   .     S
V9     Er10    10.0   1_545     S
V9     Er4    10.0   1_545     S
Er10     Er15    10.0   .     S
Er10     Er14    10.0   1_565     S
Er10     V18    10.0   .     S
Er10     V9    10.0   1_565     S
Er11     Er13    10.0   1_565     S
Er11     Er15    10.0   1_556     S
Er11     V28    10.0   1_556     S
Er11     V8    10.0   1_565     S
Er12     Er13    10.0   .     S
Er12     Er14    10.0   1_556     S
Er12     V27    10.0   1_556     S
Er12     V20    10.0   .     S
Er13     Er11    10.0   1_545     S
Er13     V20    10.0   .     S
Er14     Er10    10.0   1_545     S
Er14     Er12    10.0   1_554     S
Er14     V27    10.0   .     S
Er15     Er11    10.0   1_554     S
Er15     V18    10.0   .     S
Er15     V28    10.0   .     S
V16     Er22    10.0   .     S
V16     Er24    10.0   .     S
V17     Er33    10.0   .     S
V17     Er31    10.0   .     S
V17     Er26    10.0   .     S
V17     Er21    10.0   .     S
V18     Er23    10.0   .     S
V18     Er25    10.0   .     S
V19     Er25    10.0   .     S
V19     Er21    10.0   .     S
V20     Er26    10.0   .     S
V20     Er22    10.0   .     S
Er21     Er26    10.0   .     S
Er21     Er25    10.0   .     S
Er22     Er24    10.0   .     S
Er22     Er26    10.0   .     S
Er23     Er24    10.0   .     S
Er23     Er25    10.0   .     S
Er23     V29    10.0   .     S
Er24     V29    10.0   .     S
V27     Er12    10.0   1_554     S
V27     Er32    10.0   1_554     S
V27     Er34    10.0   .     S
V28     Er35    10.0   .     S
V28     Er31    10.0   1_554     S
V28     Er11    10.0   1_554     S
V29     Er34    10.0   .     S
V29     Er30    10.0   .     S
Er30     Er35    10.0   1_655     S
Er30     Er34    10.0   .     S
Er30     V1    10.0   1_655     S
Er31     Er33    10.0   .     S
Er31     Er35    10.0   1_556     S
Er31     V28    10.0   1_556     S
Er32     Er33    10.0   1_655     S
Er32     Er34    10.0   1_556     S
Er32     V36    10.0   1_655     S
Er32     V27    10.0   1_556     S
Er33     Er32    10.0   1_455     S
Er33     V36    10.0   .     S
Er34     Er32    10.0   1_554     S
Er35     Er30    10.0   1_455     S
Er35     Er31    10.0   1_554     S
V36     Er3    10.0   1_455     S
V36     Er32    10.0   1_455     S
