data_pbzll
_audit_creation_date              2020-02-02
_audit_creation_method            'Pymatgen'
_symmetry_space_group_name_H-M    'P1'
_symmetry_Int_Tables_number       1
loop_
_symmetry_equiv_pos_as_xyz
  x,y,z
_cell_length_a                    121.3353
_cell_length_b                    121.3353
_cell_length_c                    121.3353
_cell_angle_alpha                 90.0
_cell_angle_beta                 90.0
_cell_angle_gamma                 90.0
loop_
_atom_site_label
_atom_site_type_symbol
_atom_site_fract_x
_atom_site_fract_y
_atom_site_fract_z
Ce1     Ce     0.0   0.2209   0.7791
Ce2     Ce     0.0   0.2791   0.7209
Ce3     Ce     0.2209   0.7791   0.0
Ce4     Ce     0.2791   0.7209   0.0
Ce5     Ce     0.7791   0.0   0.2209
Ce6     Ce     0.7209   0.0   0.2791
Ce7     Ce     0.2791   0.0   0.7209
Ce8     Ce     0.2209   0.0   0.7791
Ce9     Ce     0.7209   0.2791   0.0
Ce10     Ce     0.7791   0.2209   0.0
Ce11     Ce     0.0   0.7791   0.2209
Ce12     Ce     0.0   0.7209   0.2791
Ce13     Ce     0.7791   0.5   0.2791
Ce14     Ce     0.7209   0.5   0.2209
Ce15     Ce     0.2209   0.7209   0.5
Ce16     Ce     0.2791   0.7791   0.5
Ce17     Ce     0.5   0.2209   0.7209
Ce18     Ce     0.5   0.2791   0.7791
Ce19     Ce     0.5   0.7791   0.2791
Ce20     Ce     0.5   0.7209   0.2209
Ce21     Ce     0.7791   0.2791   0.5
Ce22     Ce     0.7209   0.2209   0.5
Ce23     Ce     0.2791   0.5   0.7791
Ce24     Ce     0.2209   0.5   0.7209
Ti25     Ti     0.6912   0.2877   0.9236
V26     V     0.6255   0.3366   0.9328
H27     H     0.7103   0.261   0.848
Ti28     Ti     0.8088   0.2123   0.9236
V29     V     0.8745   0.1634   0.9328
H30     H     0.7897   0.239   0.848
Ti31     Ti     0.9236   0.2877   0.6912
V32     V     0.9328   0.3366   0.6255
H33     H     0.848   0.261   0.7103
Ti34     Ti     0.9236   0.2123   0.8088
V35     V     0.9328   0.1634   0.8745
H36     H     0.848   0.239   0.7897
Ti37     Ti     0.8088   0.2877   0.5764
V38     V     0.8745   0.3366   0.5672
H39     H     0.7897   0.261   0.652
Ti40     Ti     0.6912   0.2123   0.5764
V41     V     0.6255   0.1634   0.5672
H42     H     0.7103   0.239   0.652
Ti43     Ti     0.5764   0.2123   0.6912
V44     V     0.5672   0.1634   0.6255
H45     H     0.652   0.239   0.7103
Ti46     Ti     0.5764   0.2877   0.8088
V47     V     0.5672   0.3366   0.8745
H48     H     0.652   0.261   0.7897
Ti49     Ti     0.2877   0.9236   0.6912
V50     V     0.3366   0.9328   0.6255
H51     H     0.261   0.848   0.7103
Ti52     Ti     0.2123   0.9236   0.8088
V53     V     0.1634   0.9328   0.8745
H54     H     0.239   0.848   0.7897
Ti55     Ti     0.2123   0.8088   0.9236
V56     V     0.1634   0.8745   0.9328
H57     H     0.239   0.7897   0.848
Ti58     Ti     0.2877   0.6912   0.9236
V59     V     0.3366   0.6255   0.9328
H60     H     0.261   0.7103   0.848
Ti61     Ti     0.2877   0.5764   0.8088
V62     V     0.3366   0.5672   0.8745
H63     H     0.261   0.652   0.7897
Ti64     Ti     0.2123   0.5764   0.6912
V65     V     0.1634   0.5672   0.6255
H66     H     0.239   0.652   0.7103
Ti67     Ti     0.2123   0.6912   0.5764
V68     V     0.1634   0.6255   0.5672
H69     H     0.239   0.7103   0.652
Ti70     Ti     0.2877   0.8088   0.5764
V71     V     0.3366   0.8745   0.5672
H72     H     0.261   0.7897   0.652
Ti73     Ti     0.1912   0.0764   0.7877
V74     V     0.1255   0.0672   0.8366
H75     H     0.2103   0.152   0.761
Ti76     Ti     0.3088   0.0764   0.7123
V77     V     0.3745   0.0672   0.6634
H78     H     0.2897   0.152   0.739
Ti79     Ti     0.0764   0.1912   0.7877
V80     V     0.0672   0.1255   0.8366
H81     H     0.152   0.2103   0.761
Ti82     Ti     0.0764   0.3088   0.7123
V83     V     0.0672   0.3745   0.6634
H84     H     0.152   0.2897   0.739
Ti85     Ti     0.1912   0.4236   0.7123
V86     V     0.1255   0.4328   0.6634
H87     H     0.2103   0.348   0.739
Ti88     Ti     0.3088   0.4236   0.7877
V89     V     0.3745   0.4328   0.8366
H90     H     0.2897   0.348   0.761
Ti91     Ti     0.4236   0.1912   0.7123
V92     V     0.4328   0.1255   0.6634
H93     H     0.348   0.2103   0.739
Ti94     Ti     0.4236   0.3088   0.7877
V95     V     0.4328   0.3745   0.8366
H96     H     0.348   0.2897   0.761
Er97     Er     0.6166   0.3834   0.0
S98     S     0.5583   0.4417   0.0
Er99     Er     0.5   0.6165   0.1165
S100     S     0.5   0.5583   0.0583
Er101     Er     0.6165   0.5   0.1166
S102     S     0.5583   0.5   0.0583
Er103     Er     0.5   0.3834   0.8834
S104     S     0.5   0.4417   0.9417
Er105     Er     0.3834   0.5   0.8834
Er106     Er     0.3834   0.6165   0.0
S107     S     0.4417   0.5   0.9417
S108     S     0.4417   0.5583   0.0
Ti109     Ti     0.0764   0.7877   0.1912
V110     V     0.0672   0.8366   0.1255
H111     H     0.152   0.761   0.2103
Ti112     Ti     0.0764   0.7123   0.3088
V113     V     0.0672   0.6634   0.3745
H114     H     0.152   0.739   0.2897
Ti115     Ti     0.1912   0.7877   0.0764
V116     V     0.1255   0.8366   0.0672
H117     H     0.2103   0.761   0.152
Ti118     Ti     0.3088   0.7123   0.0764
V119     V     0.3745   0.6634   0.0672
H120     H     0.2897   0.739   0.152
Ti121     Ti     0.1912   0.7123   0.4236
V122     V     0.1255   0.6634   0.4328
H123     H     0.2103   0.739   0.348
Ti124     Ti     0.3088   0.7877   0.4236
V125     V     0.3745   0.8366   0.4328
H126     H     0.2897   0.761   0.348
Ti127     Ti     0.4236   0.7123   0.1912
V128     V     0.4328   0.6634   0.1255
H129     H     0.348   0.739   0.2103
Ti130     Ti     0.4236   0.7877   0.3088
V131     V     0.4328   0.8366   0.3745
H132     H     0.348   0.761   0.2897
Er133     Er     0.5   0.8834   0.3834
Er134     Er     0.3834   0.0   0.6166
S135     S     0.4417   0.0   0.5583
Er136     Er     0.5   0.1166   0.6166
Er137     Er     0.6165   0.1165   0.5
S138     S     0.5583   0.0583   0.5
S139     S     0.5   0.0583   0.5583
Er140     Er     0.3834   0.8834   0.5
S141     S     0.4417   0.9417   0.5
S142     S     0.5   0.9417   0.4417
Er143     Er     0.6165   0.0   0.3834
S144     S     0.5583   0.0   0.4417
Ti145     Ti     0.6912   0.9236   0.2877
V146     V     0.6255   0.9328   0.3366
H147     H     0.7103   0.848   0.261
Ti148     Ti     0.8088   0.9236   0.2123
V149     V     0.8745   0.9328   0.1634
H150     H     0.7897   0.848   0.239
Ti151     Ti     0.9236   0.8088   0.2123
V152     V     0.9328   0.8745   0.1634
H153     H     0.848   0.7897   0.239
Ti154     Ti     0.9236   0.6912   0.2877
V155     V     0.9328   0.6255   0.3366
H156     H     0.848   0.7103   0.261
Ti157     Ti     0.5764   0.8088   0.2877
V158     V     0.5672   0.8745   0.3366
H159     H     0.652   0.7897   0.261
Ti160     Ti     0.5764   0.6912   0.2123
V161     V     0.5672   0.6255   0.1634
H162     H     0.652   0.7103   0.239
Ti163     Ti     0.6912   0.5764   0.2123
V164     V     0.6255   0.5672   0.1634
H165     H     0.7103   0.652   0.239
Ti166     Ti     0.8088   0.5764   0.2877
V167     V     0.8745   0.5672   0.3366
H168     H     0.7897   0.652   0.261
Er169     Er     0.1166   0.8834   0.0
Er170     Er     0.8834   0.0   0.1166
Er171     Er     0.8834   0.1166   0.0
Er172     Er     0.1166   0.0   0.8834
S173     S     0.0583   0.9417   0.0
S174     S     0.0583   0.0   0.9417
Er175     Er     0.0   0.1166   0.8834
S176     S     0.0   0.0583   0.9417
S177     S     0.9417   0.0583   0.0
Er178     Er     0.0   0.8834   0.1165
S179     S     0.9417   0.0   0.0583
S180     S     0.0   0.9417   0.0583
Ti181     Ti     0.7877   0.1912   0.0764
V182     V     0.8366   0.1255   0.0672
H183     H     0.761   0.2103   0.152
Ti184     Ti     0.7123   0.3088   0.0764
V185     V     0.6634   0.3745   0.0672
H186     H     0.739   0.2897   0.152
Ti187     Ti     0.7877   0.0764   0.1912
V188     V     0.8366   0.0672   0.1255
H189     H     0.761   0.152   0.2103
Ti190     Ti     0.7123   0.0764   0.3088
V191     V     0.6634   0.0672   0.3745
H192     H     0.739   0.152   0.2897
Ti193     Ti     0.7123   0.1912   0.4236
V194     V     0.6634   0.1255   0.4328
H195     H     0.739   0.2103   0.348
Ti196     Ti     0.7877   0.3088   0.4236
V197     V     0.8366   0.3745   0.4328
H198     H     0.761   0.2897   0.348
Ti199     Ti     0.7123   0.4236   0.1912
V200     V     0.6634   0.4328   0.1255
H201     H     0.739   0.348   0.2103
Ti202     Ti     0.7877   0.4236   0.3088
V203     V     0.8366   0.4328   0.3745
H204     H     0.761   0.348   0.2897
Er205     Er     0.8834   0.5   0.3834
Er206     Er     0.8834   0.3834   0.5
Er207     Er     0.0   0.6165   0.3834
S208     S     0.0   0.5583   0.4417
S209     S     0.9417   0.5   0.4417
S210     S     0.9417   0.4417   0.5
Er211     Er     0.0   0.3834   0.6166
S212     S     0.0   0.4417   0.5583
Er213     Er     0.1166   0.6166   0.5
Er214     Er     0.1166   0.5   0.6166
S215     S     0.0583   0.5   0.5583
S216     S     0.0583   0.5583   0.5
loop_
_geom_bond_atom_site_label_1
_geom_bond_atom_site_label_2
_geom_bond_distance
_geom_bond_site_symmetry_2
_ccdc_geom_bond_type
Ce1     Ti34    10.001   1_455     S
Ce1     Ti79    10.001   .     S
Ce1     Ce2    10.0   .     S
Ce2     Ti31    10.001   1_455     S
Ce2     Ti82    10.001   .     S
Ce3     Ti55    10.001   1_554     S
Ce3     Ti115    10.001   .     S
Ce3     Ce4    10.0   .     S
Ce4     Ti58    10.001   1_554     S
Ce4     Ti118    10.001   .     S
Ce5     Ti148    10.001   1_545     S
Ce5     Ti187    10.001   .     S
Ce5     Ce6    10.0   .     S
Ce6     Ti145    10.001   1_545     S
Ce6     Ti190    10.001   .     S
Ce7     Ti49    10.001   1_545     S
Ce7     Ti76    10.001   .     S
Ce7     Ce8    10.0   .     S
Ce8     Ti52    10.001   1_545     S
Ce8     Ti73    10.001   .     S
Ce9     Ti25    10.001   1_554     S
Ce9     Ti184    10.001   .     S
Ce9     Ce10    10.0   .     S
Ce10     Ti28    10.001   1_554     S
Ce10     Ti181    10.001   .     S
Ce11     Ti151    10.001   1_455     S
Ce11     Ti109    10.001   .     S
Ce11     Ce12    10.0   .     S
Ce12     Ti154    10.001   1_455     S
Ce12     Ti112    10.001   .     S
Ce13     Ti202    10.001   .     S
Ce13     Ti166    10.001   .     S
Ce13     Ce14    10.0   .     S
Ce14     Ti199    10.001   .     S
Ce14     Ti163    10.001   .     S
Ce15     Ti67    10.001   .     S
Ce15     Ti121    10.001   .     S
Ce15     Ce16    10.0   .     S
Ce16     Ti124    10.001   .     S
Ce16     Ti70    10.001   .     S
Ce17     Ti43    10.001   .     S
Ce17     Ti91    10.001   .     S
Ce17     Ce18    10.0   .     S
Ce18     Ti94    10.001   .     S
Ce18     Ti46    10.001   .     S
Ce19     Ti130    10.001   .     S
Ce19     Ti157    10.001   .     S
Ce19     Ce20    10.0   .     S
Ce20     Ti127    10.001   .     S
Ce20     Ti160    10.001   .     S
Ce21     Ti196    10.001   .     S
Ce21     Ti37    10.001   .     S
Ce21     Ce22    10.0   .     S
Ce22     Ti193    10.001   .     S
Ce22     Ti40    10.001   .     S
Ce23     Ti88    10.001   .     S
Ce23     Ti61    10.001   .     S
Ce23     Ce24    10.0   .     S
Ce24     Ti64    10.001   .     S
Ce24     Ti85    10.001   .     S
Ti25     Ce9    10.001   1_556     S
Ti25     H27    9.999   .     S
Ti25     V26    9.999   .     S
V26     Er97    10.0   1_556     S
V26     V47    10.0   .     S
H27     H30    10.0   .     S
H27     H48    10.0   .     S
Ti28     Ce10    10.001   1_556     S
Ti28     H30    9.999   .     S
Ti28     V29    9.999   .     S
V29     Er171    10.0   1_556     S
V29     V35    10.0   .     S
H30     H36    10.0   .     S
Ti31     Ce2    10.001   1_655     S
Ti31     H33    9.999   .     S
Ti31     V32    9.999   .     S
V32     Er211    10.0   1_655     S
V32     V38    10.0   .     S
H33     H36    10.0   .     S
H33     H39    10.0   .     S
Ti34     Ce1    10.001   1_655     S
Ti34     H36    9.999   .     S
Ti34     V35    9.999   .     S
V35     Er175    10.0   1_655     S
Ti37     H39    9.999   .     S
Ti37     V38    9.999   .     S
V38     Er206    10.0   .     S
H39     H42    10.0   .     S
Ti40     H42    9.999   .     S
Ti40     V41    9.999   .     S
V41     Er137    10.0   .     S
V41     V44    10.0   .     S
H42     H45    10.0   .     S
Ti43     H45    9.999   .     S
Ti43     V44    9.999   .     S
V44     Er136    10.0   .     S
H45     H48    10.0   .     S
Ti46     H48    9.999   .     S
Ti46     V47    9.999   .     S
V47     Er103    10.0   .     S
Ti49     Ce7    10.001   1_565     S
Ti49     H51    9.999   .     S
Ti49     V50    9.999   .     S
V50     Er134    10.0   1_565     S
V50     V71    10.0   .     S
H51     H54    10.0   .     S
H51     H72    10.0   .     S
Ti52     Ce8    10.001   1_565     S
Ti52     H54    9.999   .     S
Ti52     V53    9.999   .     S
V53     Er172    10.0   1_565     S
V53     V56    10.0   .     S
H54     H57    10.0   .     S
Ti55     Ce3    10.001   1_556     S
Ti55     H57    9.999   .     S
Ti55     V56    9.999   .     S
V56     Er169    10.0   1_556     S
H57     H60    10.0   .     S
Ti58     Ce4    10.001   1_556     S
Ti58     H60    9.999   .     S
Ti58     V59    9.999   .     S
V59     Er106    10.0   1_556     S
V59     V62    10.0   .     S
H60     H63    10.0   .     S
Ti61     H63    9.999   .     S
Ti61     V62    9.999   .     S
V62     Er105    10.0   .     S
H63     H66    10.0   .     S
Ti64     H66    9.999   .     S
Ti64     V65    9.999   .     S
V65     Er214    10.0   .     S
V65     V68    10.0   .     S
H66     H69    10.0   .     S
Ti67     H69    9.999   .     S
Ti67     V68    9.999   .     S
V68     Er213    10.0   .     S
H69     H72    10.0   .     S
Ti70     H72    9.999   .     S
Ti70     V71    9.999   .     S
V71     Er140    10.0   .     S
Ti73     H75    9.999   .     S
Ti73     V74    9.999   .     S
V74     Er172    10.0   .     S
V74     V80    10.0   .     S
H75     H78    10.0   .     S
H75     H81    10.0   .     S
Ti76     H78    9.999   .     S
Ti76     V77    9.999   .     S
V77     Er134    10.0   .     S
V77     V92    10.0   .     S
H78     H93    10.0   .     S
Ti79     H81    9.999   .     S
Ti79     V80    9.999   .     S
V80     Er175    10.0   .     S
H81     H84    10.0   .     S
Ti82     H84    9.999   .     S
Ti82     V83    9.999   .     S
V83     Er211    10.0   .     S
V83     V86    10.0   .     S
H84     H87    10.0   .     S
Ti85     H87    9.999   .     S
Ti85     V86    9.999   .     S
V86     Er214    10.0   .     S
H87     H90    10.0   .     S
Ti88     H90    9.999   .     S
Ti88     V89    9.999   .     S
V89     Er105    10.0   .     S
V89     V95    10.0   .     S
H90     H96    10.0   .     S
Ti91     H93    9.999   .     S
Ti91     V92    9.999   .     S
V92     Er136    10.0   .     S
H93     H96    10.0   .     S
Ti94     H96    9.999   .     S
Ti94     V95    9.999   .     S
V95     Er103    10.0   .     S
Er97     V26    10.0   1_554     S
Er97     S98    9.999   .     S
Er97     V185    10.0   .     S
S98     S104    10.0   1_554     S
S98     S102    10.0   .     S
Er99     S100    9.999   .     S
Er99     V128    10.0   .     S
Er99     V161    10.0   .     S
S100     S102    10.0   .     S
S100     S108    10.0   .     S
Er101     S102    9.999   .     S
Er101     V164    10.0   .     S
Er101     V200    10.0   .     S
Er103     S104    9.999   .     S
S104     S98    10.0   1_556     S
S104     S107    10.0   .     S
Er105     S107    9.999   .     S
Er106     V59    10.0   1_554     S
Er106     S108    9.999   .     S
Er106     V119    10.0   .     S
S107     S108    10.0   1_556     S
S108     S107    10.0   1_554     S
Ti109     H111    9.999   .     S
Ti109     V110    9.999   .     S
V110     Er178    10.0   .     S
V110     V116    10.0   .     S
H111     H114    10.0   .     S
H111     H117    10.0   .     S
Ti112     H114    9.999   .     S
Ti112     V113    9.999   .     S
V113     Er207    10.0   .     S
V113     V122    10.0   .     S
H114     H123    10.0   .     S
Ti115     H117    9.999   .     S
Ti115     V116    9.999   .     S
V116     Er169    10.0   .     S
H117     H120    10.0   .     S
Ti118     H120    9.999   .     S
Ti118     V119    9.999   .     S
V119     V128    10.0   .     S
H120     H129    10.0   .     S
Ti121     H123    9.999   .     S
Ti121     V122    9.999   .     S
V122     Er213    10.0   .     S
H123     H126    10.0   .     S
Ti124     H126    9.999   .     S
Ti124     V125    9.999   .     S
V125     Er140    10.0   .     S
V125     V131    10.0   .     S
H126     H132    10.0   .     S
Ti127     H129    9.999   .     S
Ti127     V128    9.999   .     S
H129     H132    10.0   .     S
Ti130     H132    9.999   .     S
Ti130     V131    9.999   .     S
V131     Er133    10.0   .     S
Er133     S142    9.999   .     S
Er133     V158    10.0   .     S
Er134     V50    10.0   1_545     S
Er134     S135    9.999   .     S
S135     S141    10.0   1_545     S
S135     S139    10.0   .     S
Er136     S139    9.999   .     S
Er137     S138    9.999   .     S
Er137     V194    10.0   .     S
S138     S139    10.0   .     S
S138     S144    10.0   .     S
Er140     S141    9.999   .     S
S141     S135    10.0   1_565     S
S141     S142    10.0   .     S
S142     S144    10.0   1_565     S
Er143     S144    9.999   .     S
Er143     V146    10.0   1_545     S
Er143     V191    10.0   .     S
S144     S142    10.0   1_545     S
Ti145     Ce6    10.001   1_565     S
Ti145     H147    9.999   .     S
Ti145     V146    9.999   .     S
V146     Er143    10.0   1_565     S
V146     V158    10.0   .     S
H147     H150    10.0   .     S
H147     H159    10.0   .     S
Ti148     Ce5    10.001   1_565     S
Ti148     H150    9.999   .     S
Ti148     V149    9.999   .     S
V149     Er170    10.0   1_565     S
V149     V152    10.0   .     S
H150     H153    10.0   .     S
Ti151     Ce11    10.001   1_655     S
Ti151     H153    9.999   .     S
Ti151     V152    9.999   .     S
V152     Er178    10.0   1_655     S
H153     H156    10.0   .     S
Ti154     Ce12    10.001   1_655     S
Ti154     H156    9.999   .     S
Ti154     V155    9.999   .     S
V155     Er207    10.0   1_655     S
V155     V167    10.0   .     S
H156     H168    10.0   .     S
Ti157     H159    9.999   .     S
Ti157     V158    9.999   .     S
H159     H162    10.0   .     S
Ti160     H162    9.999   .     S
Ti160     V161    9.999   .     S
V161     V164    10.0   .     S
H162     H165    10.0   .     S
Ti163     H165    9.999   .     S
Ti163     V164    9.999   .     S
H165     H168    10.0   .     S
Ti166     H168    9.999   .     S
Ti166     V167    9.999   .     S
V167     Er205    10.0   .     S
Er169     V56    10.0   1_554     S
Er169     S173    9.999   .     S
Er170     V149    10.0   1_545     S
Er170     S179    9.999   .     S
Er170     V188    10.0   .     S
Er171     V29    10.0   1_554     S
Er171     S177    9.999   .     S
Er171     V182    10.0   .     S
Er172     V53    10.0   1_545     S
Er172     S174    9.999   .     S
S173     S180    10.0   .     S
S173     S174    10.0   1_564     S
S174     S173    10.0   1_546     S
S174     S176    10.0   .     S
Er175     V35    10.0   1_455     S
Er175     S176    9.999   .     S
S176     S177    10.0   1_456     S
S177     S176    10.0   1_654     S
S177     S179    10.0   .     S
Er178     V152    10.0   1_455     S
Er178     S180    9.999   .     S
S179     S180    10.0   1_645     S
S180     S179    10.0   1_465     S
Ti181     H183    9.999   .     S
Ti181     V182    9.999   .     S
V182     V188    10.0   .     S
H183     H186    10.0   .     S
H183     H189    10.0   .     S
Ti184     H186    9.999   .     S
Ti184     V185    9.999   .     S
V185     V200    10.0   .     S
H186     H201    10.0   .     S
Ti187     H189    9.999   .     S
Ti187     V188    9.999   .     S
H189     H192    10.0   .     S
Ti190     H192    9.999   .     S
Ti190     V191    9.999   .     S
V191     V194    10.0   .     S
H192     H195    10.0   .     S
Ti193     H195    9.999   .     S
Ti193     V194    9.999   .     S
H195     H198    10.0   .     S
Ti196     H198    9.999   .     S
Ti196     V197    9.999   .     S
V197     Er206    10.0   .     S
V197     V203    10.0   .     S
H198     H204    10.0   .     S
Ti199     H201    9.999   .     S
Ti199     V200    9.999   .     S
H201     H204    10.0   .     S
Ti202     H204    9.999   .     S
Ti202     V203    9.999   .     S
V203     Er205    10.0   .     S
Er205     S209    9.999   .     S
Er206     S210    9.999   .     S
Er207     V155    10.0   1_455     S
Er207     S208    9.999   .     S
S208     S209    10.0   1_455     S
S208     S216    10.0   .     S
S209     S208    10.0   1_655     S
S209     S210    10.0   .     S
S210     S212    10.0   1_655     S
Er211     V32    10.0   1_455     S
Er211     S212    9.999   .     S
S212     S210    10.0   1_455     S
S212     S215    10.0   .     S
Er213     S216    9.999   .     S
Er214     S215    9.999   .     S
S215     S216    10.0   .     S
