data_pbzl
_audit_creation_date              2020-02-02
_audit_creation_method            'Pymatgen'
_symmetry_space_group_name_H-M    'P1'
_symmetry_Int_Tables_number       1
loop_
_symmetry_equiv_pos_as_xyz
  x,y,z
_cell_length_a                    71.4306
_cell_length_b                    71.4306
_cell_length_c                    71.4306
_cell_angle_alpha                 90.0
_cell_angle_beta                 90.0
_cell_angle_gamma                 90.0
loop_
_atom_site_label
_atom_site_type_symbol
_atom_site_fract_x
_atom_site_fract_y
_atom_site_fract_z
V1     V     0.4397   0.4397   0.6105
V2     V     0.3895   0.5603   0.5603
V3     V     0.5603   0.3895   0.5603
V4     V     0.6105   0.4397   0.4397
V5     V     0.5603   0.5603   0.3895
V6     V     0.4397   0.6105   0.4397
V7     V     0.6105   0.0603   0.0603
V8     V     0.5603   0.1105   0.9397
V9     V     0.4397   0.0603   0.8895
V10     V     0.5603   0.9397   0.1105
V11     V     0.4397   0.8895   0.0603
V12     V     0.3895   0.9397   0.9397
V13     V     0.0603   0.6105   0.0603
V14     V     0.1105   0.5603   0.9397
V15     V     0.0603   0.4397   0.8895
V16     V     0.9397   0.5603   0.1105
V17     V     0.8895   0.4397   0.0603
V18     V     0.9397   0.3895   0.9397
V19     V     0.0603   0.0603   0.6105
V20     V     0.1105   0.9397   0.5603
V21     V     0.0603   0.8895   0.4397
V22     V     0.9397   0.1105   0.5603
V23     V     0.8895   0.0603   0.4397
V24     V     0.9397   0.9397   0.3895
Er25     Er     0.8694   0.6306   0.2092
Ti26     Ti     0.93   0.75   0.25
Er27     Er     0.8694   0.8694   0.2908
Er28     Er     0.6306   0.6306   0.2908
Er29     Er     0.6306   0.8694   0.2092
Ti30     Ti     0.57   0.75   0.25
Ti31     Ti     0.75   0.93   0.25
Ti32     Ti     0.75   0.57   0.25
Er33     Er     0.7908   0.1306   0.3694
Er34     Er     0.7092   0.1306   0.1306
Er35     Er     0.7092   0.3694   0.3694
Er36     Er     0.7908   0.3694   0.1306
Ti37     Ti     0.75   0.43   0.25
Ti38     Ti     0.75   0.25   0.07
Ti39     Ti     0.75   0.07   0.25
Ti40     Ti     0.75   0.25   0.43
Er41     Er     0.6306   0.2092   0.8694
Er42     Er     0.8694   0.2908   0.8694
Ti43     Ti     0.75   0.25   0.93
Er44     Er     0.6306   0.2908   0.6306
Er45     Er     0.8694   0.2092   0.6306
Ti46     Ti     0.75   0.25   0.57
Ti47     Ti     0.93   0.25   0.75
Ti48     Ti     0.57   0.25   0.75
Er49     Er     0.1306   0.3694   0.7908
Er50     Er     0.1306   0.1306   0.7092
Er51     Er     0.3694   0.1306   0.7908
Er52     Er     0.3694   0.3694   0.7092
Ti53     Ti     0.43   0.25   0.75
Ti54     Ti     0.25   0.07   0.75
Ti55     Ti     0.07   0.25   0.75
Ti56     Ti     0.25   0.43   0.75
Er57     Er     0.2908   0.8694   0.8694
Er58     Er     0.2908   0.6306   0.6306
Er59     Er     0.2092   0.6306   0.8694
Ti60     Ti     0.25   0.57   0.75
Ti61     Ti     0.25   0.75   0.93
Er62     Er     0.2092   0.8694   0.6306
Ti63     Ti     0.25   0.93   0.75
Ti64     Ti     0.25   0.75   0.57
Er65     Er     0.3694   0.7908   0.1306
Er66     Er     0.1306   0.7092   0.1306
Ti67     Ti     0.25   0.75   0.07
Er68     Er     0.3694   0.7092   0.3694
Er69     Er     0.1306   0.7908   0.3694
Ti70     Ti     0.25   0.75   0.43
Ti71     Ti     0.07   0.75   0.25
Ti72     Ti     0.43   0.75   0.25
loop_
_geom_bond_atom_site_label_1
_geom_bond_atom_site_label_2
_geom_bond_distance
_geom_bond_site_symmetry_2
_ccdc_geom_bond_type
V1     V2    10.0   .     S
V1     V3    10.0   .     S
V1     Er52    10.0   .     S
V2     V6    10.0   .     S
V2     Er58    10.0   .     S
V3     V4    10.0   .     S
V3     Er44    10.0   .     S
V4     V5    10.0   .     S
V4     Er35    10.0   .     S
V5     V6    10.0   .     S
V5     Er28    10.0   .     S
V6     Er68    10.0   .     S
V7     V8    10.0   1_554     S
V7     V10    10.0   1_545     S
V7     Er34    10.0   .     S
V8     V7    10.0   1_556     S
V8     V9    10.0   .     S
V8     Er41    10.0   .     S
V9     V12    10.0   1_545     S
V9     Er51    10.0   .     S
V10     V7    10.0   1_565     S
V10     V11    10.0   .     S
V10     Er29    10.0   .     S
V11     V12    10.0   1_554     S
V11     Er65    10.0   .     S
V12     V11    10.0   1_556     S
V12     V9    10.0   1_565     S
V12     Er57    10.0   .     S
V13     V16    10.0   1_455     S
V13     V14    10.0   1_554     S
V13     Er66    10.0   .     S
V14     V13    10.0   1_556     S
V14     V15    10.0   .     S
V14     Er59    10.0   .     S
V15     V18    10.0   1_455     S
V15     Er49    10.0   .     S
V16     V13    10.0   1_655     S
V16     V17    10.0   .     S
V16     Er25    10.0   .     S
V17     V18    10.0   1_554     S
V17     Er36    10.0   .     S
V18     V17    10.0   1_556     S
V18     V15    10.0   1_655     S
V18     Er42    10.0   .     S
V19     V20    10.0   1_545     S
V19     V22    10.0   1_455     S
V19     Er50    10.0   .     S
V20     V19    10.0   1_565     S
V20     V21    10.0   .     S
V20     Er62    10.0   .     S
V21     V24    10.0   1_455     S
V21     Er69    10.0   .     S
V22     V19    10.0   1_655     S
V22     V23    10.0   .     S
V22     Er45    10.0   .     S
V23     V24    10.0   1_545     S
V23     Er33    10.0   .     S
V24     V23    10.0   1_565     S
V24     V21    10.0   1_655     S
V24     Er27    10.0   .     S
Er25     Ti32    10.0   .     S
Er25     Ti26    10.0   .     S
Ti26     Er27    10.0   .     S
Ti26     Ti71    10.0   1_655     S
Er27     Ti31    10.0   .     S
Er28     Ti32    10.0   .     S
Er28     Ti30    10.0   .     S
Er29     Ti31    10.0   .     S
Er29     Ti30    10.0   .     S
Ti30     Ti72    10.0   .     S
Ti31     Ti39    10.0   1_565     S
Ti32     Ti37    10.0   .     S
Er33     Ti40    10.0   .     S
Er33     Ti39    10.0   .     S
Er34     Ti38    10.0   .     S
Er34     Ti39    10.0   .     S
Er35     Ti40    10.0   .     S
Er35     Ti37    10.0   .     S
Er36     Ti37    10.0   .     S
Er36     Ti38    10.0   .     S
Ti38     Ti43    10.0   1_554     S
Ti39     Ti31    10.0   1_545     S
Ti40     Ti46    10.0   .     S
Er41     Ti48    10.0   .     S
Er41     Ti43    10.0   .     S
Er42     Ti47    10.0   .     S
Er42     Ti43    10.0   .     S
Ti43     Ti38    10.0   1_556     S
Er44     Ti48    10.0   .     S
Er44     Ti46    10.0   .     S
Er45     Ti47    10.0   .     S
Er45     Ti46    10.0   .     S
Ti47     Ti55    10.0   1_655     S
Ti48     Ti53    10.0   .     S
Er49     Ti56    10.0   .     S
Er49     Ti55    10.0   .     S
Er50     Ti54    10.0   .     S
Er50     Ti55    10.0   .     S
Er51     Ti53    10.0   .     S
Er51     Ti54    10.0   .     S
Er52     Ti56    10.0   .     S
Er52     Ti53    10.0   .     S
Ti54     Ti63    10.0   1_545     S
Ti55     Ti47    10.0   1_455     S
Ti56     Ti60    10.0   .     S
Er57     Ti61    10.0   .     S
Er57     Ti63    10.0   .     S
Er58     Ti64    10.0   .     S
Er58     Ti60    10.0   .     S
Er59     Ti61    10.0   .     S
Er59     Ti60    10.0   .     S
Ti61     Ti67    10.0   1_556     S
Er62     Ti64    10.0   .     S
Er62     Ti63    10.0   .     S
Ti63     Ti54    10.0   1_565     S
Ti64     Ti70    10.0   .     S
Er65     Ti72    10.0   .     S
Er65     Ti67    10.0   .     S
Er66     Ti71    10.0   .     S
Er66     Ti67    10.0   .     S
Ti67     Ti61    10.0   1_554     S
Er68     Ti72    10.0   .     S
Er68     Ti70    10.0   .     S
Er69     Ti70    10.0   .     S
Er69     Ti71    10.0   .     S
Ti71     Ti26    10.0   1_455     S
