data_pcn
_audit_creation_date              2020-02-02
_audit_creation_method            'Pymatgen'
_symmetry_space_group_name_H-M    'P1'
_symmetry_Int_Tables_number       1
loop_
_symmetry_equiv_pos_as_xyz
  x,y,z
_cell_length_a                    61.0072
_cell_length_b                    61.0072
_cell_length_c                    46.9903
_cell_angle_alpha                 90.0
_cell_angle_beta                 90.0
_cell_angle_gamma                 90.0
loop_
_atom_site_label
_atom_site_type_symbol
_atom_site_fract_x
_atom_site_fract_y
_atom_site_fract_z
Er1     Er     0.3708   0.5   0.3936
Er2     Er     0.3708   0.5   0.6064
Er3     Er     0.5   0.6292   0.3936
Er4     Er     0.5   0.6292   0.6064
Er5     Er     0.6292   0.5   0.3936
Er6     Er     0.6292   0.5   0.6064
Er7     Er     0.5   0.3708   0.3936
Er8     Er     0.5   0.3708   0.6064
Ce9     Ce     0.1904   0.1904   0.0
Ce10     Ce     0.8096   0.8096   0.0
Ce11     Ce     0.1904   0.8096   0.0
Ce12     Ce     0.8096   0.1904   0.0
V13     V     0.9075   0.9075   0.6064
Li14     Li     0.8121   0.0   0.7311
V15     V     0.9075   0.0925   0.6064
Li16     Li     0.0   0.1879   0.7311
V17     V     0.0925   0.0925   0.6064
Li18     Li     0.1879   0.0   0.7311
V19     V     0.0925   0.9075   0.6064
Li20     Li     0.0   0.8121   0.7311
He21     He     0.864   0.7481   0.8158
S22     S     0.7619   0.6249   0.8622
He23     He     0.7481   0.864   0.8158
S24     S     0.6249   0.7619   0.8622
H25     H     0.6304   0.6304   0.7354
He26     He     0.2519   0.864   0.8158
S27     S     0.3751   0.7619   0.8622
He28     He     0.136   0.7481   0.8158
S29     S     0.2381   0.6249   0.8622
H30     H     0.3696   0.6304   0.7354
He31     He     0.2519   0.864   0.1842
S32     S     0.3751   0.7619   0.1378
He33     He     0.136   0.7481   0.1842
S34     S     0.2381   0.6249   0.1378
H35     H     0.3696   0.6304   0.2646
Ti36     Ti     0.5   0.7616   0.0
He37     He     0.136   0.2519   0.8158
S38     S     0.2381   0.3751   0.8622
He39     He     0.2519   0.136   0.8158
S40     S     0.3751   0.2381   0.8622
H41     H     0.3696   0.3696   0.7354
Ti42     Ti     0.2384   0.5   0.0
He43     He     0.136   0.2519   0.1842
S44     S     0.2381   0.3751   0.1378
He45     He     0.2519   0.136   0.1842
S46     S     0.3751   0.2381   0.1378
H47     H     0.3696   0.3696   0.2646
Ti48     Ti     0.5   0.2384   0.0
He49     He     0.7481   0.864   0.1842
S50     S     0.6249   0.7619   0.1378
He51     He     0.864   0.7481   0.1842
S52     S     0.7619   0.6249   0.1378
H53     H     0.6304   0.6304   0.2646
He54     He     0.864   0.2519   0.8158
S55     S     0.7619   0.3751   0.8622
He56     He     0.7481   0.136   0.8158
S57     S     0.6249   0.2381   0.8622
H58     H     0.6304   0.3696   0.7354
He59     He     0.864   0.2519   0.1842
S60     S     0.7619   0.3751   0.1378
He61     He     0.7481   0.136   0.1842
S62     S     0.6249   0.2381   0.1378
H63     H     0.6304   0.3696   0.2646
Ti64     Ti     0.7616   0.5   0.0
V65     V     0.9075   0.9075   0.3936
V66     V     0.9075   0.0925   0.3936
Li67     Li     0.8121   0.0   0.2689
Li68     Li     0.1879   0.0   0.2689
V69     V     0.0925   0.0925   0.3936
Li70     Li     0.0   0.1879   0.2689
V71     V     0.0925   0.9075   0.3936
Li72     Li     0.0   0.8121   0.2689
loop_
_geom_bond_atom_site_label_1
_geom_bond_atom_site_label_2
_geom_bond_distance
_geom_bond_site_symmetry_2
_ccdc_geom_bond_type
Er1     Er2    10.0   .     S
Er1     H47    10.0   .     S
Er1     H35    10.0   .     S
Er2     H41    10.0   .     S
Er2     H30    10.0   .     S
Er3     Er4    10.0   .     S
Er3     H35    10.0   .     S
Er3     H53    10.0   .     S
Er4     H30    10.0   .     S
Er4     H25    10.0   .     S
Er5     Er6    10.0   .     S
Er5     H63    10.0   .     S
Er5     H53    10.0   .     S
Er6     H58    10.0   .     S
Er6     H25    10.0   .     S
Er7     Er8    10.0   .     S
Er7     H47    10.0   .     S
Er7     H63    10.0   .     S
Er8     H41    10.0   .     S
Er8     H58    10.0   .     S
Ce9     He39    10.0   1_554     S
Ce9     He37    10.0   1_554     S
Ce9     He43    10.0   .     S
Ce9     He45    10.0   .     S
Ce10     He23    10.0   1_554     S
Ce10     He21    10.0   1_554     S
Ce10     He51    10.0   .     S
Ce10     He49    10.0   .     S
Ce11     He28    10.0   1_554     S
Ce11     He26    10.0   1_554     S
Ce11     He31    10.0   .     S
Ce11     He33    10.0   .     S
Ce12     He54    10.0   1_554     S
Ce12     He56    10.0   1_554     S
Ce12     He61    10.0   .     S
Ce12     He59    10.0   .     S
V13     Li14    10.0   1_565     S
V13     Li20    10.0   1_655     S
V13     V65    10.0   .     S
Li14     V13    10.0   1_545     S
Li14     He23    10.0   1_545     S
Li14     He56    10.0   .     S
Li14     V15    10.0   .     S
V15     Li16    10.0   1_655     S
V15     V66    10.0   .     S
Li16     V15    10.0   1_455     S
Li16     He54    10.0   1_455     S
Li16     He37    10.0   .     S
Li16     V17    10.0   .     S
V17     Li18    10.0   .     S
V17     V69    10.0   .     S
Li18     He26    10.0   1_545     S
Li18     He39    10.0   .     S
Li18     V19    10.0   1_545     S
V19     Li18    10.0   1_565     S
V19     Li20    10.0   .     S
V19     V71    10.0   .     S
Li20     V13    10.0   1_455     S
Li20     He21    10.0   1_455     S
Li20     He28    10.0   .     S
He21     Ce10    10.0   1_556     S
He21     He23    10.0   .     S
He21     Li20    10.0   1_655     S
He21     S22    10.0   .     S
S22     H25    10.0   .     S
S22     Ti64    10.0   1_556     S
He23     Ce10    10.0   1_556     S
He23     Li14    10.0   1_565     S
He23     S24    10.0   .     S
S24     H25    10.0   .     S
S24     Ti36    10.0   1_556     S
He26     Ce11    10.0   1_556     S
He26     He28    10.0   .     S
He26     Li18    10.0   1_565     S
He26     S27    10.0   .     S
S27     H30    10.0   .     S
S27     Ti36    10.0   1_556     S
He28     Ce11    10.0   1_556     S
He28     S29    10.0   .     S
S29     H30    10.0   .     S
S29     Ti42    10.0   1_556     S
He31     He33    10.0   .     S
He31     S32    10.0   .     S
He31     Li68    10.0   1_565     S
S32     H35    10.0   .     S
S32     Ti36    10.0   .     S
He33     S34    10.0   .     S
He33     Li72    10.0   .     S
S34     H35    10.0   .     S
S34     Ti42    10.0   .     S
Ti36     S24    10.0   1_554     S
Ti36     S50    10.0   .     S
Ti36     S27    10.0   1_554     S
He37     Ce9    10.0   1_556     S
He37     He39    10.0   .     S
He37     S38    10.0   .     S
S38     H41    10.0   .     S
S38     Ti42    10.0   1_556     S
He39     Ce9    10.0   1_556     S
He39     S40    10.0   .     S
S40     H41    10.0   .     S
S40     Ti48    10.0   1_556     S
Ti42     S29    10.0   1_554     S
Ti42     S44    10.0   .     S
Ti42     S38    10.0   1_554     S
He43     He45    10.0   .     S
He43     S44    10.0   .     S
He43     Li70    10.0   .     S
S44     H47    10.0   .     S
He45     S46    10.0   .     S
He45     Li68    10.0   .     S
S46     H47    10.0   .     S
S46     Ti48    10.0   .     S
Ti48     S62    10.0   .     S
Ti48     S57    10.0   1_554     S
Ti48     S40    10.0   1_554     S
He49     He51    10.0   .     S
He49     S50    10.0   .     S
He49     Li67    10.0   1_565     S
S50     H53    10.0   .     S
He51     S52    10.0   .     S
He51     Li72    10.0   1_655     S
S52     H53    10.0   .     S
S52     Ti64    10.0   .     S
He54     Ce12    10.0   1_556     S
He54     He56    10.0   .     S
He54     Li16    10.0   1_655     S
He54     S55    10.0   .     S
S55     H58    10.0   .     S
S55     Ti64    10.0   1_556     S
He56     Ce12    10.0   1_556     S
He56     S57    10.0   .     S
S57     Ti48    10.0   1_556     S
S57     H58    10.0   .     S
He59     He61    10.0   .     S
He59     S60    10.0   .     S
He59     Li70    10.0   1_655     S
S60     H63    10.0   .     S
S60     Ti64    10.0   .     S
He61     S62    10.0   .     S
He61     Li67    10.0   .     S
S62     H63    10.0   .     S
Ti64     S22    10.0   1_554     S
Ti64     S55    10.0   1_554     S
V65     Li72    10.0   1_655     S
V65     Li67    10.0   1_565     S
V66     Li70    10.0   1_655     S
V66     Li67    10.0   .     S
Li67     V65    10.0   1_545     S
Li67     He49    10.0   1_545     S
Li68     He31    10.0   1_545     S
Li68     V69    10.0   .     S
Li68     V71    10.0   1_545     S
V69     Li70    10.0   .     S
Li70     V66    10.0   1_455     S
Li70     He59    10.0   1_455     S
V71     Li68    10.0   1_565     S
V71     Li72    10.0   .     S
Li72     V65    10.0   1_455     S
Li72     He51    10.0   1_455     S
