data_pda
_audit_creation_date              2020-02-02
_audit_creation_method            'Pymatgen'
_symmetry_space_group_name_H-M    'P1'
_symmetry_Int_Tables_number       1
loop_
_symmetry_equiv_pos_as_xyz
  x,y,z
_cell_length_a                    30.9702
_cell_length_b                    30.9702
_cell_length_c                    30.9702
_cell_angle_alpha                 90.0
_cell_angle_beta                 90.0
_cell_angle_gamma                 90.0
loop_
_atom_site_label
_atom_site_type_symbol
_atom_site_fract_x
_atom_site_fract_y
_atom_site_fract_z
Er1     Er     0.1613   0.8387   0.5
Er2     Er     0.1613   0.1613   0.5
Er3     Er     0.8387   0.1613   0.5
Er4     Er     0.8387   0.8387   0.5
Er5     Er     0.5   0.1613   0.1613
Er6     Er     0.5   0.1613   0.8387
Er7     Er     0.5   0.8387   0.1613
Er8     Er     0.5   0.8387   0.8387
Er9     Er     0.1613   0.5   0.8387
Er10     Er     0.1613   0.5   0.1613
Er11     Er     0.8387   0.5   0.1613
Er12     Er     0.8387   0.5   0.8387
V13     V     0.2284   0.0   0.7716
V14     V     0.0   0.2284   0.7716
V15     V     0.0   0.7716   0.2284
V16     V     0.2284   0.7716   0.0
V17     V     0.0   0.2284   0.2284
V18     V     0.2284   0.0   0.2284
V19     V     0.2284   0.2284   0.0
V20     V     0.7716   0.0   0.2284
V21     V     0.7716   0.2284   0.0
V22     V     0.0   0.7716   0.7716
V23     V     0.7716   0.0   0.7716
V24     V     0.7716   0.7716   0.0
loop_
_geom_bond_atom_site_label_1
_geom_bond_atom_site_label_2
_geom_bond_distance
_geom_bond_site_symmetry_2
_ccdc_geom_bond_type
Er1     Er4    9.989   1_455     S
Er1     Er2    9.989   1_565     S
Er1     V18    10.002   1_565     S
Er1     V15    10.002   .     S
Er1     V13    10.002   1_565     S
Er1     V22    10.002   .     S
Er2     Er1    9.989   1_545     S
Er2     Er3    9.989   1_455     S
Er2     V18    10.002   .     S
Er2     V17    10.002   .     S
Er2     V14    10.002   .     S
Er2     V13    10.002   .     S
Er3     Er2    9.989   1_655     S
Er3     Er4    9.989   1_545     S
Er3     V20    10.002   .     S
Er3     V17    10.002   1_655     S
Er3     V23    10.002   .     S
Er3     V14    10.002   1_655     S
Er4     Er1    9.989   1_655     S
Er4     Er3    9.989   1_565     S
Er4     V15    10.002   1_655     S
Er4     V20    10.002   1_565     S
Er4     V23    10.002   1_565     S
Er4     V22    10.002   1_655     S
Er5     Er6    9.989   1_554     S
Er5     Er7    9.989   1_545     S
Er5     V19    10.002   .     S
Er5     V18    10.002   .     S
Er5     V21    10.002   .     S
Er5     V20    10.002   .     S
Er6     Er5    9.989   1_556     S
Er6     Er8    9.989   1_545     S
Er6     V19    10.002   1_556     S
Er6     V13    10.002   .     S
Er6     V21    10.002   1_556     S
Er6     V23    10.002   .     S
Er7     Er5    9.989   1_565     S
Er7     Er8    9.989   1_554     S
Er7     V16    10.002   .     S
Er7     V18    10.002   1_565     S
Er7     V24    10.002   .     S
Er7     V20    10.002   1_565     S
Er8     Er6    9.989   1_565     S
Er8     Er7    9.989   1_556     S
Er8     V16    10.002   1_556     S
Er8     V13    10.002   1_565     S
Er8     V24    10.002   1_556     S
Er8     V23    10.002   1_565     S
Er9     Er12    9.989   1_455     S
Er9     Er10    9.989   1_556     S
Er9     V19    10.002   1_556     S
Er9     V14    10.002   .     S
Er9     V16    10.002   1_556     S
Er9     V22    10.002   .     S
Er10     Er11    9.989   1_455     S
Er10     Er9    9.989   1_554     S
Er10     V19    10.002   .     S
Er10     V17    10.002   .     S
Er10     V16    10.002   .     S
Er10     V15    10.002   .     S
Er11     Er10    9.989   1_655     S
Er11     Er12    9.989   1_554     S
Er11     V21    10.002   .     S
Er11     V17    10.002   1_655     S
Er11     V24    10.002   .     S
Er11     V15    10.002   1_655     S
Er12     Er9    9.989   1_655     S
Er12     Er11    9.989   1_556     S
Er12     V21    10.002   1_556     S
Er12     V14    10.002   1_655     S
Er12     V24    10.002   1_556     S
Er12     V22    10.002   1_655     S
V13     Er8    10.002   1_545     S
V13     Er1    10.002   1_545     S
V13     V22    10.001   1_545     S
V13     V14    10.001   .     S
V13     V19    10.001   1_556     S
V13     V16    10.001   1_546     S
V14     Er12    10.002   1_455     S
V14     Er3    10.002   1_455     S
V14     V23    10.001   1_455     S
V14     V19    10.001   1_556     S
V14     V21    10.001   1_456     S
V15     Er4    10.002   1_455     S
V15     Er11    10.002   1_455     S
V15     V16    10.001   .     S
V15     V24    10.001   1_455     S
V15     V18    10.001   1_565     S
V15     V20    10.001   1_465     S
V16     Er8    10.002   1_554     S
V16     Er9    10.002   1_554     S
V16     V22    10.001   1_554     S
V16     V18    10.001   1_565     S
V16     V13    10.001   1_564     S
V17     Er11    10.002   1_455     S
V17     Er3    10.002   1_455     S
V17     V18    10.001   .     S
V17     V20    10.001   1_455     S
V17     V21    10.001   1_455     S
V17     V19    10.001   .     S
V18     Er7    10.002   1_545     S
V18     Er1    10.002   1_545     S
V18     V15    10.001   1_545     S
V18     V19    10.001   .     S
V18     V16    10.001   1_545     S
V19     Er6    10.002   1_554     S
V19     Er9    10.002   1_554     S
V19     V14    10.001   1_554     S
V19     V13    10.001   1_554     S
V20     Er4    10.002   1_545     S
V20     Er7    10.002   1_545     S
V20     V17    10.001   1_655     S
V20     V24    10.001   1_545     S
V20     V21    10.001   .     S
V20     V15    10.001   1_645     S
V21     Er12    10.002   1_554     S
V21     Er6    10.002   1_554     S
V21     V17    10.001   1_655     S
V21     V23    10.001   1_554     S
V21     V14    10.001   1_654     S
V22     Er12    10.002   1_455     S
V22     Er4    10.002   1_455     S
V22     V13    10.001   1_565     S
V22     V16    10.001   1_556     S
V22     V23    10.001   1_465     S
V22     V24    10.001   1_456     S
V23     Er8    10.002   1_545     S
V23     Er4    10.002   1_545     S
V23     V14    10.001   1_655     S
V23     V21    10.001   1_556     S
V23     V22    10.001   1_645     S
V23     V24    10.001   1_546     S
V24     Er12    10.002   1_554     S
V24     Er8    10.002   1_554     S
V24     V15    10.001   1_655     S
V24     V20    10.001   1_565     S
V24     V22    10.001   1_654     S
V24     V23    10.001   1_564     S
