data_pdpa
_audit_creation_date              2020-02-02
_audit_creation_method            'Pymatgen'
_symmetry_space_group_name_H-M    'P1'
_symmetry_Int_Tables_number       1
loop_
_symmetry_equiv_pos_as_xyz
  x,y,z
_cell_length_a                    87.139
_cell_length_b                    87.139
_cell_length_c                    87.139
_cell_angle_alpha                 90.0
_cell_angle_beta                 90.0
_cell_angle_gamma                 90.0
loop_
_atom_site_label
_atom_site_type_symbol
_atom_site_fract_x
_atom_site_fract_y
_atom_site_fract_z
V1     V     0.2608   0.1676   0.223
V2     V     0.3324   0.2392   0.277
V3     V     0.1676   0.223   0.2608
V4     V     0.2392   0.277   0.3324
V5     V     0.277   0.3324   0.2392
V6     V     0.223   0.2608   0.1676
Er7     Er     0.2007   0.2836   0.0574
Er8     Er     0.2007   0.2836   0.9426
Er9     Er     0.2007   0.7164   0.0574
Er10     Er     0.2007   0.7164   0.9426
Er11     Er     0.7993   0.7164   0.0574
Er12     Er     0.7993   0.7164   0.9426
Er13     Er     0.7993   0.2836   0.0574
Er14     Er     0.7993   0.2836   0.9426
Ti15     Ti     0.9426   0.5574   0.0
Ti16     Ti     0.9426   0.4426   0.0
Ti17     Ti     0.0574   0.4426   0.0
Ti18     Ti     0.0574   0.5574   0.0
Ce19     Ce     0.8646   0.3584   0.0
Ce20     Ce     0.1354   0.3584   0.0
Ce21     Ce     0.8646   0.6416   0.0
Ce22     Ce     0.1354   0.6416   0.0
Er23     Er     0.2836   0.0574   0.2007
Er24     Er     0.2836   0.9426   0.2007
Er25     Er     0.7164   0.0574   0.2007
Er26     Er     0.7164   0.9426   0.2007
Er27     Er     0.7164   0.0574   0.7993
Er28     Er     0.7164   0.9426   0.7993
Er29     Er     0.2836   0.0574   0.7993
Er30     Er     0.2836   0.9426   0.7993
Ti31     Ti     0.5574   0.0   0.9426
Ti32     Ti     0.4426   0.0   0.9426
Ti33     Ti     0.4426   0.0   0.0574
Ti34     Ti     0.5574   0.0   0.0574
Ce35     Ce     0.3584   0.0   0.8646
Ce36     Ce     0.3584   0.0   0.1354
Ce37     Ce     0.6416   0.0   0.8646
Ce38     Ce     0.6416   0.0   0.1354
Er39     Er     0.0574   0.2007   0.7164
Er40     Er     0.9426   0.2007   0.7164
Er41     Er     0.9426   0.2007   0.2836
Er42     Er     0.0574   0.2007   0.2836
Er43     Er     0.0574   0.7993   0.7164
Er44     Er     0.9426   0.7993   0.7164
Er45     Er     0.0574   0.7993   0.2836
Er46     Er     0.9426   0.7993   0.2836
Ti47     Ti     0.0   0.9426   0.5574
Ti48     Ti     0.0   0.9426   0.4426
Ti49     Ti     0.0   0.0574   0.5574
Ti50     Ti     0.0   0.0574   0.4426
Ce51     Ce     0.0   0.8646   0.3584
Ce52     Ce     0.0   0.1354   0.3584
Ce53     Ce     0.0   0.8646   0.6416
Ce54     Ce     0.0   0.1354   0.6416
V55     V     0.7392   0.8324   0.777
V56     V     0.6676   0.7608   0.723
V57     V     0.777   0.7392   0.8324
V58     V     0.723   0.6676   0.7608
V59     V     0.8324   0.777   0.7392
V60     V     0.7608   0.723   0.6676
V61     V     0.223   0.2608   0.8324
V62     V     0.277   0.3324   0.7608
V63     V     0.2608   0.1676   0.777
V64     V     0.3324   0.2392   0.723
V65     V     0.1676   0.223   0.7392
V66     V     0.2392   0.277   0.6676
Er67     Er     0.7007   0.5574   0.7836
Er68     Er     0.7007   0.4426   0.7836
Er69     Er     0.7007   0.5574   0.2164
Er70     Er     0.7007   0.4426   0.2164
Er71     Er     0.2993   0.5574   0.7836
Er72     Er     0.2993   0.4426   0.7836
Er73     Er     0.2993   0.4426   0.2164
Er74     Er     0.2993   0.5574   0.2164
Ti75     Ti     0.5574   0.5   0.0574
Ti76     Ti     0.5574   0.5   0.9426
Ti77     Ti     0.4426   0.5   0.0574
Ti78     Ti     0.4426   0.5   0.9426
Ce79     Ce     0.6354   0.5   0.8584
Ce80     Ce     0.3646   0.5   0.8584
Ce81     Ce     0.6354   0.5   0.1416
Ce82     Ce     0.3646   0.5   0.1416
V83     V     0.223   0.7392   0.8324
V84     V     0.277   0.6676   0.7608
V85     V     0.3324   0.7608   0.723
V86     V     0.2608   0.8324   0.777
V87     V     0.1676   0.777   0.7392
V88     V     0.2392   0.723   0.6676
V89     V     0.8324   0.223   0.2608
V90     V     0.7608   0.277   0.3324
V91     V     0.777   0.2608   0.1676
V92     V     0.723   0.3324   0.2392
V93     V     0.7392   0.1676   0.223
V94     V     0.6676   0.2392   0.277
Er95     Er     0.7836   0.7007   0.5574
Er96     Er     0.7836   0.7007   0.4426
Er97     Er     0.2164   0.7007   0.5574
Er98     Er     0.2164   0.7007   0.4426
Er99     Er     0.7836   0.2993   0.5574
Er100     Er     0.7836   0.2993   0.4426
Er101     Er     0.2164   0.2993   0.4426
Er102     Er     0.2164   0.2993   0.5574
Ti103     Ti     0.0574   0.5574   0.5
Ti104     Ti     0.9426   0.5574   0.5
Ti105     Ti     0.0574   0.4426   0.5
Ti106     Ti     0.9426   0.4426   0.5
Ce107     Ce     0.8584   0.6354   0.5
Ce108     Ce     0.8584   0.3646   0.5
Ce109     Ce     0.1416   0.6354   0.5
Ce110     Ce     0.1416   0.3646   0.5
V111     V     0.7392   0.8324   0.223
V112     V     0.6676   0.7608   0.277
V113     V     0.7608   0.723   0.3324
V114     V     0.8324   0.777   0.2608
V115     V     0.777   0.7392   0.1676
V116     V     0.723   0.6676   0.2392
V117     V     0.8324   0.223   0.7392
V118     V     0.7608   0.277   0.6676
V119     V     0.723   0.3324   0.7608
V120     V     0.777   0.2608   0.8324
V121     V     0.7392   0.1676   0.777
V122     V     0.6676   0.2392   0.723
V123     V     0.2608   0.8324   0.223
V124     V     0.3324   0.7608   0.277
V125     V     0.2392   0.723   0.3324
V126     V     0.1676   0.777   0.2608
V127     V     0.223   0.7392   0.1676
V128     V     0.277   0.6676   0.2392
Er129     Er     0.5574   0.7836   0.7007
Er130     Er     0.4426   0.7836   0.7007
Er131     Er     0.5574   0.2164   0.7007
Er132     Er     0.4426   0.2164   0.7007
Er133     Er     0.5574   0.7836   0.2993
Er134     Er     0.4426   0.7836   0.2993
Er135     Er     0.4426   0.2164   0.2993
Er136     Er     0.5574   0.2164   0.2993
Ti137     Ti     0.5   0.0574   0.4426
Ti138     Ti     0.5   0.9426   0.4426
Ti139     Ti     0.5   0.0574   0.5574
Ti140     Ti     0.5   0.9426   0.5574
Ce141     Ce     0.5   0.8584   0.6354
Ce142     Ce     0.5   0.8584   0.3646
Ce143     Ce     0.5   0.1416   0.6354
Ce144     Ce     0.5   0.1416   0.3646
loop_
_geom_bond_atom_site_label_1
_geom_bond_atom_site_label_2
_geom_bond_distance
_geom_bond_site_symmetry_2
_ccdc_geom_bond_type
V1     V2    9.999   .     S
V1     V6    10.0   .     S
V1     V3    10.0   .     S
V1     Er23    10.0   .     S
V2     V4    10.0   .     S
V2     V5    10.0   .     S
V2     Er135    10.0   .     S
V3     V4    9.999   .     S
V3     V6    10.0   .     S
V3     Er42    10.0   .     S
V4     V5    10.0   .     S
V4     Er101    10.0   .     S
V5     V6    9.999   .     S
V5     Er73    10.0   .     S
V6     Er7    10.0   .     S
Er7     Er8    10.0   1_554     S
Er7     Ce20    10.0   .     S
Er8     V61    10.0   .     S
Er8     Ce20    10.0   1_556     S
Er8     Er7    10.0   1_556     S
Er9     V127    10.0   .     S
Er9     Er10    10.0   1_554     S
Er9     Ce22    10.0   .     S
Er10     V83    10.0   .     S
Er10     Ce22    10.0   1_556     S
Er10     Er9    10.0   1_556     S
Er11     V115    10.0   .     S
Er11     Er12    10.0   1_554     S
Er11     Ce21    10.0   .     S
Er12     V57    10.0   .     S
Er12     Ce21    10.0   1_556     S
Er12     Er11    10.0   1_556     S
Er13     V91    10.0   .     S
Er13     Er14    10.0   1_554     S
Er13     Ce19    10.0   .     S
Er14     V120    10.0   .     S
Er14     Ce19    10.0   1_556     S
Er14     Er13    10.0   1_556     S
Ti15     Ce21    10.0   .     S
Ti15     Ti18    10.0   1_655     S
Ti15     Ti16    10.0   .     S
Ti16     Ce19    10.0   .     S
Ti16     Ti17    10.0   1_655     S
Ti17     Ti16    10.0   1_455     S
Ti17     Ce20    10.0   .     S
Ti17     Ti18    10.0   .     S
Ti18     Ti15    10.0   1_455     S
Ti18     Ce22    10.0   .     S
Ce19     Er14    10.0   1_554     S
Ce20     Er8    10.0   1_554     S
Ce21     Er12    10.0   1_554     S
Ce22     Er10    10.0   1_554     S
Er23     Er24    10.0   1_545     S
Er23     Ce36    10.0   .     S
Er24     V123    10.0   .     S
Er24     Ce36    10.0   1_565     S
Er24     Er23    10.0   1_565     S
Er25     V93    10.0   .     S
Er25     Er26    10.0   1_545     S
Er25     Ce38    10.0   .     S
Er26     V111    10.0   .     S
Er26     Ce38    10.0   1_565     S
Er26     Er25    10.0   1_565     S
Er27     V121    10.0   .     S
Er27     Er28    10.0   1_545     S
Er27     Ce37    10.0   .     S
Er28     V55    10.0   .     S
Er28     Ce37    10.0   1_565     S
Er28     Er27    10.0   1_565     S
Er29     V63    10.0   .     S
Er29     Er30    10.0   1_545     S
Er29     Ce35    10.0   .     S
Er30     V86    10.0   .     S
Er30     Ce35    10.0   1_565     S
Er30     Er29    10.0   1_565     S
Ti31     Ce37    10.0   .     S
Ti31     Ti34    10.0   1_556     S
Ti31     Ti32    10.0   .     S
Ti32     Ce35    10.0   .     S
Ti32     Ti33    10.0   1_556     S
Ti33     Ti32    10.0   1_554     S
Ti33     Ce36    10.0   .     S
Ti33     Ti34    10.0   .     S
Ti34     Ti31    10.0   1_554     S
Ti34     Ce38    10.0   .     S
Ce35     Er30    10.0   1_545     S
Ce36     Er24    10.0   1_545     S
Ce37     Er28    10.0   1_545     S
Ce38     Er26    10.0   1_545     S
Er39     V65    10.0   .     S
Er39     Er40    10.0   1_455     S
Er39     Ce54    10.0   .     S
Er40     V117    10.0   .     S
Er40     Ce54    10.0   1_655     S
Er40     Er39    10.0   1_655     S
Er41     V89    10.0   .     S
Er41     Ce52    10.0   1_655     S
Er41     Er42    10.0   1_655     S
Er42     Er41    10.0   1_455     S
Er42     Ce52    10.0   .     S
Er43     V87    10.0   .     S
Er43     Er44    10.0   1_455     S
Er43     Ce53    10.0   .     S
Er44     V59    10.0   .     S
Er44     Ce53    10.0   1_655     S
Er44     Er43    10.0   1_655     S
Er45     V126    10.0   .     S
Er45     Er46    10.0   1_455     S
Er45     Ce51    10.0   .     S
Er46     V114    10.0   .     S
Er46     Ce51    10.0   1_655     S
Er46     Er45    10.0   1_655     S
Ti47     Ce53    10.0   .     S
Ti47     Ti49    10.0   1_565     S
Ti47     Ti48    10.0   .     S
Ti48     Ce51    10.0   .     S
Ti48     Ti50    10.0   1_565     S
Ti49     Ti47    10.0   1_545     S
Ti49     Ce54    10.0   .     S
Ti49     Ti50    10.0   .     S
Ti50     Ti48    10.0   1_545     S
Ti50     Ce52    10.0   .     S
Ce51     Er46    10.0   1_455     S
Ce52     Er41    10.0   1_455     S
Ce53     Er44    10.0   1_455     S
Ce54     Er40    10.0   1_455     S
V55     V56    9.999   .     S
V55     V57    10.0   .     S
V55     V59    10.0   .     S
V56     V60    10.0   .     S
V56     V58    10.0   .     S
V56     Er129    10.0   .     S
V57     V58    9.999   .     S
V57     V59    10.0   .     S
V58     V60    10.0   .     S
V58     Er67    10.0   .     S
V59     V60    9.999   .     S
V60     Er95    10.0   .     S
V61     V62    9.999   .     S
V61     V65    10.0   .     S
V61     V63    10.0   .     S
V62     V64    10.0   .     S
V62     V66    10.0   .     S
V62     Er72    10.0   .     S
V63     V64    9.999   .     S
V63     V65    10.0   .     S
V64     V66    10.0   .     S
V64     Er132    10.0   .     S
V65     V66    9.999   .     S
V66     Er102    10.0   .     S
Er67     Er68    10.0   .     S
Er67     Ce79    10.0   .     S
Er68     V119    10.0   .     S
Er68     Ce79    10.0   .     S
Er69     V116    10.0   .     S
Er69     Er70    10.0   .     S
Er69     Ce81    10.0   .     S
Er70     V92    10.0   .     S
Er70     Ce81    10.0   .     S
Er71     V84    10.0   .     S
Er71     Er72    10.0   .     S
Er71     Ce80    10.0   .     S
Er72     Ce80    10.0   .     S
Er73     Er74    10.0   .     S
Er73     Ce82    10.0   .     S
Er74     V128    10.0   .     S
Er74     Ce82    10.0   .     S
Ti75     Ce81    10.0   .     S
Ti75     Ti76    10.0   1_554     S
Ti75     Ti77    10.0   .     S
Ti76     Ce79    10.0   .     S
Ti76     Ti75    10.0   1_556     S
Ti76     Ti78    10.0   .     S
Ti77     Ce82    10.0   .     S
Ti77     Ti78    10.0   1_554     S
Ti78     Ce80    10.0   .     S
Ti78     Ti77    10.0   1_556     S
V83     V84    9.999   .     S
V83     V87    10.0   .     S
V83     V86    10.0   .     S
V84     V85    10.0   .     S
V84     V88    10.0   .     S
V85     V86    9.999   .     S
V85     V88    10.0   .     S
V85     Er130    10.0   .     S
V86     V87    10.0   .     S
V87     V88    9.999   .     S
V88     Er97    10.0   .     S
V89     V90    9.999   .     S
V89     V93    10.0   .     S
V89     V91    10.0   .     S
V90     V92    10.0   .     S
V90     V94    10.0   .     S
V90     Er100    10.0   .     S
V91     V92    9.999   .     S
V91     V93    10.0   .     S
V92     V94    10.0   .     S
V93     V94    9.999   .     S
V94     Er136    10.0   .     S
Er95     Er96    10.0   .     S
Er95     Ce107    10.0   .     S
Er96     V113    10.0   .     S
Er96     Ce107    10.0   .     S
Er97     Er98    10.0   .     S
Er97     Ce109    10.0   .     S
Er98     V125    10.0   .     S
Er98     Ce109    10.0   .     S
Er99     V118    10.0   .     S
Er99     Er100    10.0   .     S
Er99     Ce108    10.0   .     S
Er100     Ce108    10.0   .     S
Er101     Er102    10.0   .     S
Er101     Ce110    10.0   .     S
Er102     Ce110    10.0   .     S
Ti103     Ce109    10.0   .     S
Ti103     Ti104    10.0   1_455     S
Ti103     Ti105    10.0   .     S
Ti104     Ce107    10.0   .     S
Ti104     Ti103    10.0   1_655     S
Ti104     Ti106    10.0   .     S
Ti105     Ce110    10.0   .     S
Ti105     Ti106    10.0   1_455     S
Ti106     Ce108    10.0   .     S
Ti106     Ti105    10.0   1_655     S
V111     V112    9.999   .     S
V111     V115    10.0   .     S
V111     V114    10.0   .     S
V112     V113    10.0   .     S
V112     V116    10.0   .     S
V112     Er133    10.0   .     S
V113     V114    9.999   .     S
V113     V116    10.0   .     S
V114     V115    10.0   .     S
V115     V116    9.999   .     S
V117     V118    9.999   .     S
V117     V121    10.0   .     S
V117     V120    10.0   .     S
V118     V119    10.0   .     S
V118     V122    10.0   .     S
V119     V120    9.999   .     S
V119     V122    10.0   .     S
V120     V121    10.0   .     S
V121     V122    9.999   .     S
V122     Er131    10.0   .     S
V123     V124    9.999   .     S
V123     V127    10.0   .     S
V123     V126    10.0   .     S
V124     V125    10.0   .     S
V124     V128    10.0   .     S
V124     Er134    10.0   .     S
V125     V126    9.999   .     S
V125     V128    10.0   .     S
V126     V127    10.0   .     S
V127     V128    9.999   .     S
Er129     Er130    10.0   .     S
Er129     Ce141    10.0   .     S
Er130     Ce141    10.0   .     S
Er131     Er132    10.0   .     S
Er131     Ce143    10.0   .     S
Er132     Ce143    10.0   .     S
Er133     Er134    10.0   .     S
Er133     Ce142    10.0   .     S
Er134     Ce142    10.0   .     S
Er135     Er136    10.0   .     S
Er135     Ce144    10.0   .     S
Er136     Ce144    10.0   .     S
Ti137     Ce144    10.0   .     S
Ti137     Ti138    10.0   1_545     S
Ti137     Ti139    10.0   .     S
Ti138     Ce142    10.0   .     S
Ti138     Ti137    10.0   1_565     S
Ti138     Ti140    10.0   .     S
Ti139     Ce143    10.0   .     S
Ti139     Ti140    10.0   1_545     S
Ti140     Ce141    10.0   .     S
Ti140     Ti139    10.0   1_565     S
