data_pds
_audit_creation_date              2020-02-02
_audit_creation_method            'Pymatgen'
_symmetry_space_group_name_H-M    'P1'
_symmetry_Int_Tables_number       1
loop_
_symmetry_equiv_pos_as_xyz
  x,y,z
_cell_length_a                    27.8818
_cell_length_b                    27.8818
_cell_length_c                    27.5939
_cell_angle_alpha                 90.0
_cell_angle_beta                 90.0
_cell_angle_gamma                 90.0
loop_
_atom_site_label
_atom_site_type_symbol
_atom_site_fract_x
_atom_site_fract_y
_atom_site_fract_z
V1     V     0.0   0.0   0.75
V2     V     0.0   0.0   0.25
Ti3     Ti     0.2436   0.4703   0.0
Ce4     Ce     0.7004   0.8042   0.7737
Ce5     Ce     0.7004   0.8042   0.2263
Ce6     Ce     0.2996   0.1958   0.2263
Ce7     Ce     0.2996   0.1958   0.7737
Er8     Er     0.5   0.0   0.0
Ti9     Ti     0.7564   0.5297   0.0
Ti10     Ti     0.4703   0.7564   0.5
Ce11     Ce     0.1958   0.7004   0.7263
Ce12     Ce     0.1958   0.7004   0.2737
Ce13     Ce     0.8042   0.2996   0.2737
Ce14     Ce     0.8042   0.2996   0.7263
Er15     Er     0.0   0.5   0.5
Ti16     Ti     0.5297   0.2436   0.5
loop_
_geom_bond_atom_site_label_1
_geom_bond_atom_site_label_2
_geom_bond_distance
_geom_bond_site_symmetry_2
_ccdc_geom_bond_type
V1     Ce14    10.0   1_455     S
V1     Ce4    10.0   1_445     S
V1     Ce11    10.0   1_545     S
V1     Ce7    10.0   .     S
V2     Ce5    10.0   1_445     S
V2     Ce13    10.0   1_455     S
V2     Ce6    10.0   .     S
V2     Ce12    10.0   1_545     S
Ti3     Ce11    10.0   1_554     S
Ti3     Ce12    10.0   .     S
Ti3     Ce6    10.0   .     S
Ti3     Ce7    10.0   1_554     S
Ce4     V1    10.0   1_665     S
Ce4     Ti9    10.0   1_556     S
Ce4     Er8    10.0   1_566     S
Ce4     Ti10    10.0   .     S
Ce5     V2    10.0   1_665     S
Ce5     Ti9    10.0   .     S
Ce5     Er8    10.0   1_565     S
Ce5     Ti10    10.0   .     S
Ce6     Er8    10.0   .     S
Ce6     Ti16    10.0   .     S
Ce7     Ti3    10.0   1_556     S
Ce7     Er8    10.0   1_556     S
Ce7     Ti16    10.0   .     S
Er8     Ce4    10.0   1_544     S
Er8     Ce5    10.0   1_545     S
Er8     Ce7    10.0   1_554     S
Ti9     Ce4    10.0   1_554     S
Ti9     Ce14    10.0   1_554     S
Ti9     Ce13    10.0   .     S
Ti10     Ce11    10.0   .     S
Ti10     Ce12    10.0   .     S
Ce11     V1    10.0   1_565     S
Ce11     Ti3    10.0   1_556     S
Ce11     Er15    10.0   .     S
Ce12     V2    10.0   1_565     S
Ce12     Er15    10.0   .     S
Ce13     V2    10.0   1_655     S
Ce13     Ti16    10.0   .     S
Ce13     Er15    10.0   1_655     S
Ce14     V1    10.0   1_655     S
Ce14     Ti9    10.0   1_556     S
Ce14     Ti16    10.0   .     S
Ce14     Er15    10.0   1_655     S
Er15     Ce13    10.0   1_455     S
Er15     Ce14    10.0   1_455     S
