data_peka
_audit_creation_date              2020-02-02
_audit_creation_method            'Pymatgen'
_symmetry_space_group_name_H-M    'P1'
_symmetry_Int_Tables_number       1
loop_
_symmetry_equiv_pos_as_xyz
  x,y,z
_cell_length_a                    72.1781
_cell_length_b                    72.1781
_cell_length_c                    56.0351
_cell_angle_alpha                 90.0
_cell_angle_beta                 90.0
_cell_angle_gamma                 120.0
loop_
_atom_site_label
_atom_site_type_symbol
_atom_site_fract_x
_atom_site_fract_y
_atom_site_fract_z
V1     V     0.08   0.92   0.4108
V2     V     0.08   0.92   0.5892
V3     V     0.16   0.08   0.4108
V4     V     0.16   0.08   0.5892
V5     V     0.08   0.16   0.4108
V6     V     0.08   0.16   0.5892
V7     V     0.92   0.08   0.4108
V8     V     0.92   0.08   0.5892
V9     V     0.84   0.92   0.4108
V10     V     0.84   0.92   0.5892
V11     V     0.92   0.84   0.4108
V12     V     0.92   0.84   0.5892
Ce13     Ce     0.8618   0.1382   0.7117
Ti14     Ti     0.7419   0.1196   0.817
Ti15     Ti     0.8804   0.2581   0.817
Ce16     Ce     0.8618   0.1382   0.2883
Ti17     Ti     0.7419   0.1196   0.183
Ti18     Ti     0.8804   0.2581   0.183
Ti19     Ti     0.6223   0.7419   0.817
Ti20     Ti     0.6223   0.8804   0.817
Ce21     Ce     0.7236   0.8618   0.7117
Ti22     Ti     0.6223   0.8804   0.183
Ti23     Ti     0.6223   0.7419   0.183
Ce24     Ce     0.7236   0.8618   0.2883
Er25     Er     0.4707   0.3907   0.0892
Er26     Er     0.6093   0.5293   0.0892
Er27     Er     0.4707   0.3907   0.9108
Er28     Er     0.6093   0.5293   0.9108
Er29     Er     0.3907   0.4707   0.0892
Er30     Er     0.5293   0.6093   0.0892
Er31     Er     0.3907   0.4707   0.9108
Er32     Er     0.5293   0.6093   0.9108
Ce33     Ce     0.2764   0.1382   0.7117
Ti34     Ti     0.3777   0.2581   0.817
Ti35     Ti     0.3777   0.1196   0.817
Ce36     Ce     0.2764   0.1382   0.2883
Ti37     Ti     0.3777   0.2581   0.183
Ti38     Ti     0.3777   0.1196   0.183
Er39     Er     0.4707   0.08   0.0892
Er40     Er     0.6093   0.08   0.0892
Er41     Er     0.4707   0.08   0.9108
Er42     Er     0.6093   0.08   0.9108
Er43     Er     0.3907   0.92   0.0892
Er44     Er     0.5293   0.92   0.0892
Er45     Er     0.3907   0.92   0.9108
Er46     Er     0.5293   0.92   0.9108
Ce47     Ce     0.1382   0.2764   0.7117
Ti48     Ti     0.1196   0.3777   0.817
Ti49     Ti     0.2581   0.3777   0.817
Ce50     Ce     0.1382   0.2764   0.2883
Ti51     Ti     0.1196   0.3777   0.183
Ti52     Ti     0.2581   0.3777   0.183
Ce53     Ce     0.1382   0.8618   0.7117
Ti54     Ti     0.1196   0.7419   0.817
Ti55     Ti     0.2581   0.8804   0.817
Ce56     Ce     0.1382   0.8618   0.2883
Ti57     Ti     0.1196   0.7419   0.183
Ti58     Ti     0.2581   0.8804   0.183
Ti59     Ti     0.8804   0.6223   0.817
Ti60     Ti     0.7419   0.6223   0.817
Ce61     Ce     0.8618   0.7236   0.7117
Ti62     Ti     0.7419   0.6223   0.183
Ti63     Ti     0.8804   0.6223   0.183
Ce64     Ce     0.8618   0.7236   0.2883
Er65     Er     0.92   0.3907   0.0892
Er66     Er     0.92   0.5293   0.0892
Er67     Er     0.92   0.3907   0.9108
Er68     Er     0.92   0.5293   0.9108
Er69     Er     0.08   0.4707   0.0892
Er70     Er     0.08   0.6093   0.0892
Er71     Er     0.08   0.4707   0.9108
Er72     Er     0.08   0.6093   0.9108
loop_
_geom_bond_atom_site_label_1
_geom_bond_atom_site_label_2
_geom_bond_distance
_geom_bond_site_symmetry_2
_ccdc_geom_bond_type
V1     Ce56    10.0   .     S
V1     V2    10.0   .     S
V1     V3    10.0   1_565     S
V1     V11    10.0   1_455     S
V2     Ce53    10.0   .     S
V2     V4    10.0   1_565     S
V2     V12    10.0   1_455     S
V3     V1    10.0   1_545     S
V3     Ce36    10.0   .     S
V3     V4    10.0   .     S
V3     V5    10.0   .     S
V4     V2    10.0   1_545     S
V4     Ce33    10.0   .     S
V4     V6    10.0   .     S
V5     Ce50    10.0   .     S
V5     V6    10.0   .     S
V5     V7    10.0   1_455     S
V6     Ce47    10.0   .     S
V6     V8    10.0   1_455     S
V7     V5    10.0   1_655     S
V7     Ce16    10.0   .     S
V7     V8    10.0   .     S
V7     V9    10.0   1_545     S
V8     V6    10.0   1_655     S
V8     Ce13    10.0   .     S
V8     V10    10.0   1_545     S
V9     Ce24    10.0   .     S
V9     V10    10.0   .     S
V9     V11    10.0   .     S
V9     V7    10.0   1_565     S
V10     Ce21    10.0   .     S
V10     V12    10.0   .     S
V10     V8    10.0   1_565     S
V11     Ce64    10.0   .     S
V11     V12    10.0   .     S
V11     V1    10.0   1_655     S
V12     Ce61    10.0   .     S
V12     V2    10.0   1_655     S
Ce13     Ti15    10.0   .     S
Ce13     Ti14    10.0   .     S
Ti14     Er42    10.0   .     S
Ti14     Ti15    10.0   .     S
Ti15     Er67    10.0   .     S
Ce16     Ti18    10.0   .     S
Ce16     Ti17    10.0   .     S
Ti17     Er40    10.0   .     S
Ti17     Ti18    10.0   .     S
Ti18     Er65    10.0   .     S
Ti19     Er32    10.0   .     S
Ti19     Ce21    10.0   .     S
Ti19     Ti20    10.0   .     S
Ti20     Er46    10.0   .     S
Ti20     Ce21    10.0   .     S
Ti22     Er44    10.0   .     S
Ti22     Ce24    10.0   .     S
Ti22     Ti23    10.0   .     S
Ti23     Er30    10.0   .     S
Ti23     Ce24    10.0   .     S
Er25     Er26    10.0   .     S
Er25     Er27    10.0   1_554     S
Er25     Er29    10.0   .     S
Er25     Ti37    10.0   .     S
Er26     Er28    10.0   1_554     S
Er26     Er30    10.0   .     S
Er26     Ti62    10.0   .     S
Er27     Er28    10.0   .     S
Er27     Er25    10.0   1_556     S
Er27     Er31    10.0   .     S
Er27     Ti34    10.0   .     S
Er28     Er26    10.0   1_556     S
Er28     Er32    10.0   .     S
Er28     Ti60    10.0   .     S
Er29     Er30    10.0   .     S
Er29     Er31    10.0   1_554     S
Er29     Ti52    10.0   .     S
Er30     Er32    10.0   1_554     S
Er31     Er32    10.0   .     S
Er31     Er29    10.0   1_556     S
Er31     Ti49    10.0   .     S
Er32     Er30    10.0   1_556     S
Ce33     Ti35    10.0   .     S
Ce33     Ti34    10.0   .     S
Ti34     Ti35    10.0   .     S
Ti35     Er41    10.0   .     S
Ce36     Ti38    10.0   .     S
Ce36     Ti37    10.0   .     S
Ti37     Ti38    10.0   .     S
Ti38     Er39    10.0   .     S
Er39     Er40    10.0   .     S
Er39     Er41    10.0   1_554     S
Er39     Er43    10.0   1_545     S
Er40     Er42    10.0   1_554     S
Er40     Er44    10.0   1_545     S
Er41     Er42    10.0   .     S
Er41     Er39    10.0   1_556     S
Er41     Er45    10.0   1_545     S
Er42     Er40    10.0   1_556     S
Er42     Er46    10.0   1_545     S
Er43     Er44    10.0   .     S
Er43     Er45    10.0   1_554     S
Er43     Er39    10.0   1_565     S
Er43     Ti58    10.0   .     S
Er44     Er46    10.0   1_554     S
Er44     Er40    10.0   1_565     S
Er45     Er46    10.0   .     S
Er45     Er43    10.0   1_556     S
Er45     Er41    10.0   1_565     S
Er45     Ti55    10.0   .     S
Er46     Er44    10.0   1_556     S
Er46     Er42    10.0   1_565     S
Ce47     Ti48    10.0   .     S
Ce47     Ti49    10.0   .     S
Ti48     Er71    10.0   .     S
Ti48     Ti49    10.0   .     S
Ce50     Ti51    10.0   .     S
Ce50     Ti52    10.0   .     S
Ti51     Er69    10.0   .     S
Ti51     Ti52    10.0   .     S
Ce53     Ti55    10.0   .     S
Ce53     Ti54    10.0   .     S
Ti54     Er72    10.0   .     S
Ti54     Ti55    10.0   .     S
Ce56     Ti58    10.0   .     S
Ce56     Ti57    10.0   .     S
Ti57     Er70    10.0   .     S
Ti57     Ti58    10.0   .     S
Ti59     Er68    10.0   .     S
Ti59     Ce61    10.0   .     S
Ti59     Ti60    10.0   .     S
Ti60     Ce61    10.0   .     S
Ti62     Ce64    10.0   .     S
Ti62     Ti63    10.0   .     S
Ti63     Er66    10.0   .     S
Ti63     Ce64    10.0   .     S
Er65     Er66    10.0   .     S
Er65     Er67    10.0   1_554     S
Er65     Er69    10.0   1_655     S
Er66     Er68    10.0   1_554     S
Er66     Er70    10.0   1_655     S
Er67     Er68    10.0   .     S
Er67     Er65    10.0   1_556     S
Er67     Er71    10.0   1_655     S
Er68     Er66    10.0   1_556     S
Er68     Er72    10.0   1_655     S
Er69     Er65    10.0   1_455     S
Er69     Er70    10.0   .     S
Er69     Er71    10.0   1_554     S
Er70     Er72    10.0   1_554     S
Er70     Er66    10.0   1_455     S
Er71     Er67    10.0   1_455     S
Er71     Er72    10.0   .     S
Er71     Er69    10.0   1_556     S
Er72     Er70    10.0   1_556     S
Er72     Er68    10.0   1_455     S
