data_pfma
_audit_creation_date              2020-02-02
_audit_creation_method            'Pymatgen'
_symmetry_space_group_name_H-M    'P1'
_symmetry_Int_Tables_number       1
loop_
_symmetry_equiv_pos_as_xyz
  x,y,z
_cell_length_a                    37.9648
_cell_length_b                    37.9648
_cell_length_c                    72.0453
_cell_angle_alpha                 90.0
_cell_angle_beta                 90.0
_cell_angle_gamma                 90.0
loop_
_atom_site_label
_atom_site_type_symbol
_atom_site_fract_x
_atom_site_fract_y
_atom_site_fract_z
Ce1     Ce     0.5   0.1315   0.7009
Ce2     Ce     0.5   0.8685   0.7009
Ce3     Ce     0.3685   0.0   0.7991
Ce4     Ce     0.6315   0.0   0.7991
Ce5     Ce     0.1315   0.5   0.7009
Ce6     Ce     0.8685   0.5   0.7009
Ce7     Ce     0.0   0.3685   0.7991
Ce8     Ce     0.0   0.6315   0.7991
Ti9     Ti     0.3682   0.3682   0.0
Ti10     Ti     0.3682   0.6318   0.0
Ti11     Ti     0.6318   0.3682   0.0
Ti12     Ti     0.6318   0.6318   0.0
V13     V     0.0   0.8139   0.1004
V14     V     0.8139   0.0   0.1004
V15     V     0.0   0.1861   0.1004
V16     V     0.1861   0.0   0.1004
V17     V     0.8139   0.0   0.8996
V18     V     0.0   0.8139   0.8996
V19     V     0.1861   0.0   0.8996
V20     V     0.0   0.1861   0.8996
Er21     Er     0.1816   0.1816   0.0
Er22     Er     0.8184   0.1816   0.0
Er23     Er     0.1816   0.8184   0.0
Er24     Er     0.8184   0.8184   0.0
Ce25     Ce     0.3685   0.0   0.2009
Ce26     Ce     0.6315   0.0   0.2009
Ce27     Ce     0.5   0.1315   0.2991
Ce28     Ce     0.5   0.8685   0.2991
Ce29     Ce     0.1315   0.5   0.2991
Ce30     Ce     0.8685   0.5   0.2991
Ce31     Ce     0.0   0.3685   0.2009
Ce32     Ce     0.0   0.6315   0.2009
Ti33     Ti     0.8682   0.8682   0.5
Ti34     Ti     0.8682   0.1318   0.5
Ti35     Ti     0.1318   0.8682   0.5
Ti36     Ti     0.1318   0.1318   0.5
V37     V     0.5   0.3139   0.6004
V38     V     0.3139   0.5   0.6004
V39     V     0.5   0.6861   0.6004
V40     V     0.6861   0.5   0.6004
V41     V     0.5   0.3139   0.3996
V42     V     0.3139   0.5   0.3996
V43     V     0.6861   0.5   0.3996
V44     V     0.5   0.6861   0.3996
Er45     Er     0.3184   0.6816   0.5
Er46     Er     0.3184   0.3184   0.5
Er47     Er     0.6816   0.3184   0.5
Er48     Er     0.6816   0.6816   0.5
loop_
_geom_bond_atom_site_label_1
_geom_bond_atom_site_label_2
_geom_bond_distance
_geom_bond_site_symmetry_2
_ccdc_geom_bond_type
Ce1     V37    10.019   .     S
Ce1     Ce2    9.983   1_545     S
Ce1     Ce4    9.994   .     S
Ce1     Ce3    9.994   .     S
Ce2     V39    10.019   .     S
Ce2     Ce1    9.983   1_565     S
Ce2     Ce4    9.994   1_565     S
Ce2     Ce3    9.994   1_565     S
Ce3     V19    10.019   .     S
Ce3     Ce2    9.994   1_545     S
Ce3     Ce4    9.983   .     S
Ce4     V17    10.019   .     S
Ce4     Ce2    9.994   1_545     S
Ce5     V38    10.019   .     S
Ce5     Ce6    9.983   1_455     S
Ce5     Ce7    9.994   .     S
Ce5     Ce8    9.994   .     S
Ce6     V40    10.019   .     S
Ce6     Ce5    9.983   1_655     S
Ce6     Ce7    9.994   1_655     S
Ce6     Ce8    9.994   1_655     S
Ce7     V20    10.019   .     S
Ce7     Ce6    9.994   1_455     S
Ce7     Ce8    9.983   .     S
Ce8     V18    10.019   .     S
Ce8     Ce6    9.994   1_455     S
Ti9     Ti10    10.004   .     S
Ti9     Ti11    10.004   .     S
Ti9     Er21    10.018   .     S
Ti10     Ti12    10.004   .     S
Ti10     Er23    10.018   .     S
Ti11     Ti12    10.004   .     S
Ti11     Er22    10.018   .     S
Ti12     Er24    10.018   .     S
V13     Ce32    10.019   .     S
V13     Er23    9.996   .     S
V13     V16    9.992   1_565     S
V13     V14    9.992   1_465     S
V13     Er24    9.996   1_455     S
V14     Ce26    10.019   .     S
V14     Er22    9.996   .     S
V14     V15    9.992   1_655     S
V14     V13    9.992   1_645     S
V14     Er24    9.996   1_545     S
V15     Ce31    10.019   .     S
V15     Er21    9.996   .     S
V15     Er22    9.996   1_455     S
V15     V14    9.992   1_455     S
V15     V16    9.992   .     S
V16     Ce25    10.019   .     S
V16     Er21    9.996   .     S
V16     Er23    9.996   1_545     S
V16     V13    9.992   1_545     S
V17     Er24    9.996   1_546     S
V17     V20    9.992   1_655     S
V17     V18    9.992   1_645     S
V17     Er22    9.996   1_556     S
V18     Er23    9.996   1_556     S
V18     Er24    9.996   1_456     S
V18     V19    9.992   1_565     S
V18     V17    9.992   1_465     S
V19     Er21    9.996   1_556     S
V19     Er23    9.996   1_546     S
V19     V18    9.992   1_545     S
V19     V20    9.992   .     S
V20     Er21    9.996   1_556     S
V20     V17    9.992   1_455     S
V20     Er22    9.996   1_456     S
Er21     V19    9.996   1_554     S
Er21     V20    9.996   1_554     S
Er22     V15    9.996   1_655     S
Er22     V20    9.996   1_654     S
Er22     V17    9.996   1_554     S
Er23     V16    9.996   1_565     S
Er23     V18    9.996   1_554     S
Er23     V19    9.996   1_564     S
Er24     V13    9.996   1_655     S
Er24     V14    9.996   1_565     S
Er24     V17    9.996   1_564     S
Er24     V18    9.996   1_654     S
Ce25     Ce26    9.983   .     S
Ce25     Ce28    9.994   1_545     S
Ce25     Ce27    9.994   .     S
Ce26     Ce27    9.994   .     S
Ce26     Ce28    9.994   1_545     S
Ce27     V41    10.019   .     S
Ce27     Ce28    9.983   1_545     S
Ce28     V44    10.019   .     S
Ce28     Ce27    9.983   1_565     S
Ce28     Ce25    9.994   1_565     S
Ce28     Ce26    9.994   1_565     S
Ce29     V42    10.019   .     S
Ce29     Ce30    9.983   1_455     S
Ce29     Ce31    9.994   .     S
Ce29     Ce32    9.994   .     S
Ce30     V43    10.019   .     S
Ce30     Ce29    9.983   1_655     S
Ce30     Ce31    9.994   1_655     S
Ce30     Ce32    9.994   1_655     S
Ce31     Ce32    9.983   .     S
Ce31     Ce30    9.994   1_455     S
Ce32     Ce30    9.994   1_455     S
Ti33     Ti34    10.004   1_565     S
Ti33     Ti35    10.004   1_655     S
Ti33     Er48    10.018   .     S
Ti34     Ti33    10.004   1_545     S
Ti34     Ti36    10.004   1_655     S
Ti34     Er47    10.018   .     S
Ti35     Ti33    10.004   1_455     S
Ti35     Ti36    10.004   1_565     S
Ti35     Er45    10.018   .     S
Ti36     Ti35    10.004   1_545     S
Ti36     Ti34    10.004   1_455     S
Ti36     Er46    10.018   .     S
V37     Er46    9.996   .     S
V37     Er47    9.996   .     S
V37     V40    9.992   .     S
V37     V38    9.992   .     S
V38     Er46    9.996   .     S
V38     Er45    9.996   .     S
V38     V39    9.992   .     S
V39     Er45    9.996   .     S
V39     V40    9.992   .     S
V39     Er48    9.996   .     S
V40     Er47    9.996   .     S
V40     Er48    9.996   .     S
V41     Er46    9.996   .     S
V41     V43    9.992   .     S
V41     V42    9.992   .     S
V41     Er47    9.996   .     S
V42     Er46    9.996   .     S
V42     Er45    9.996   .     S
V42     V44    9.992   .     S
V43     Er48    9.996   .     S
V43     V44    9.992   .     S
V43     Er47    9.996   .     S
V44     Er45    9.996   .     S
V44     Er48    9.996   .     S
