data_pha
_audit_creation_date              2020-02-02
_audit_creation_method            'Pymatgen'
_symmetry_space_group_name_H-M    'P1'
_symmetry_Int_Tables_number       1
loop_
_symmetry_equiv_pos_as_xyz
  x,y,z
_cell_length_a                    24.3915
_cell_length_b                    24.3915
_cell_length_c                    24.3915
_cell_angle_alpha                 90.0
_cell_angle_beta                 90.0
_cell_angle_gamma                 90.0
loop_
_atom_site_label
_atom_site_type_symbol
_atom_site_fract_x
_atom_site_fract_y
_atom_site_fract_z
Er1     Er     0.855   0.145   0.855
Er2     Er     0.145   0.855   0.855
Er3     Er     0.855   0.855   0.145
Er4     Er     0.145   0.145   0.145
V5     V     0.0   0.0   0.5
V6     V     0.5   0.0   0.0
V7     V     0.0   0.5   0.0
loop_
_geom_bond_atom_site_label_1
_geom_bond_atom_site_label_2
_geom_bond_distance
_geom_bond_site_symmetry_2
_ccdc_geom_bond_type
Er1     V6    10.0   1_556     S
Er1     Er3    10.0   1_546     S
Er1     V5    10.0   1_655     S
Er1     Er2    10.0   1_645     S
Er1     V7    10.0   1_656     S
Er1     Er4    10.0   1_656     S
Er2     V7    10.0   1_556     S
Er2     Er3    10.0   1_456     S
Er2     V5    10.0   1_565     S
Er2     Er1    10.0   1_465     S
Er2     V6    10.0   1_566     S
Er2     Er4    10.0   1_566     S
Er3     V6    10.0   1_565     S
Er3     Er1    10.0   1_564     S
Er3     V7    10.0   1_655     S
Er3     Er2    10.0   1_654     S
Er3     V5    10.0   1_665     S
Er3     Er4    10.0   1_665     S
Er4     V7    10.0   .     S
Er4     Er1    10.0   1_454     S
Er4     V6    10.0   .     S
Er4     Er2    10.0   1_544     S
Er4     V5    10.0   .     S
Er4     Er3    10.0   1_445     S
V5     Er2    10.0   1_545     S
V5     Er1    10.0   1_455     S
V5     Er3    10.0   1_445     S
V6     Er3    10.0   1_545     S
V6     Er1    10.0   1_554     S
V6     Er2    10.0   1_544     S
V7     Er2    10.0   1_554     S
V7     Er3    10.0   1_455     S
V7     Er1    10.0   1_454     S
