data_phwa
_audit_creation_date              2020-02-02
_audit_creation_method            'Pymatgen'
_symmetry_space_group_name_H-M    'P1'
_symmetry_Int_Tables_number       1
loop_
_symmetry_equiv_pos_as_xyz
  x,y,z
_cell_length_a                    51.3128
_cell_length_b                    51.3128
_cell_length_c                    89.062
_cell_angle_alpha                 90.0
_cell_angle_beta                 90.0
_cell_angle_gamma                 120.0
loop_
_atom_site_label
_atom_site_type_symbol
_atom_site_fract_x
_atom_site_fract_y
_atom_site_fract_z
V1     V     0.976   0.5832   0.6118
V2     V     0.024   0.6072   0.7215
V3     V     0.024   0.4168   0.6118
V4     V     0.976   0.3928   0.7215
Ti5     Ti     0.7777   0.0852   0.8732
Er6     Er     0.9437   0.0563   0.8333
Ti7     Ti     0.9148   0.2222   0.7934
Ti8     Ti     0.2222   0.9148   0.8732
Er9     Er     0.0563   0.9437   0.8333
Ti10     Ti     0.0852   0.7777   0.7934
Ti11     Ti     0.0852   0.3074   0.5399
Er12     Er     0.0563   0.1125   0.5
Ti13     Ti     0.2222   0.3074   0.4601
Ti14     Ti     0.9148   0.6926   0.5399
Er15     Er     0.9437   0.8875   0.5
Ti16     Ti     0.7777   0.6926   0.4601
V17     V     0.6072   0.5832   0.3882
V18     V     0.5832   0.6072   0.2785
V19     V     0.3928   0.4168   0.3882
V20     V     0.4168   0.3928   0.2785
V21     V     0.6072   0.024   0.9452
V22     V     0.5832   0.976   0.0548
V23     V     0.3928   0.976   0.9452
V24     V     0.4168   0.024   0.0548
Ti25     Ti     0.3074   0.2222   0.2066
Er26     Er     0.1125   0.0563   0.1667
Ti27     Ti     0.3074   0.0852   0.1268
Ti28     Ti     0.6926   0.7777   0.2066
Er29     Er     0.8875   0.9437   0.1667
Ti30     Ti     0.6926   0.9148   0.1268
loop_
_geom_bond_atom_site_label_1
_geom_bond_atom_site_label_2
_geom_bond_distance
_geom_bond_site_symmetry_2
_ccdc_geom_bond_type
V1     V2    9.999   1_655     S
V1     V3    10.0   1_655     S
V1     Ti14    10.0   .     S
V2     V1    9.999   1_455     S
V2     V4    10.0   1_455     S
V2     Ti10    10.0   .     S
V3     V4    9.999   1_455     S
V3     V1    10.0   1_455     S
V3     Ti11    10.0   .     S
V4     V3    9.999   1_655     S
V4     V2    10.0   1_655     S
V4     Ti7    10.0   .     S
Ti5     Ti7    10.0   .     S
Ti5     Er6    10.0   .     S
Ti5     V21    10.0   .     S
Er6     Ti7    10.0   .     S
Er6     Er9    10.0   1_645     S
Ti8     Ti10    10.0   .     S
Ti8     Er9    10.0   .     S
Ti8     V23    10.0   .     S
Er9     Ti10    10.0   .     S
Er9     Er6    10.0   1_465     S
Ti11     Ti13    10.0   .     S
Ti11     Er12    10.0   .     S
Er12     Ti13    10.0   .     S
Er12     Er15    10.0   1_445     S
Ti13     V19    10.0   .     S
Ti14     Ti16    10.0   .     S
Ti14     Er15    10.0   .     S
Er15     Ti16    10.0   .     S
Er15     Er12    10.0   1_665     S
Ti16     V17    10.0   .     S
V17     V18    9.999   .     S
V17     V19    10.0   .     S
V18     V20    10.0   .     S
V18     Ti28    10.0   .     S
V19     V20    9.999   .     S
V20     Ti25    10.0   .     S
V21     V22    9.999   1_546     S
V21     V23    10.0   1_545     S
V22     V21    9.999   1_564     S
V22     V24    10.0   1_565     S
V22     Ti30    10.0   .     S
V23     V24    9.999   1_566     S
V23     V21    10.0   1_565     S
V24     V23    9.999   1_544     S
V24     V22    10.0   1_545     S
V24     Ti27    10.0   .     S
Ti25     Ti27    10.0   .     S
Ti25     Er26    10.0   .     S
Er26     Ti27    10.0   .     S
Er26     Er29    10.0   1_445     S
Ti28     Ti30    10.0   .     S
Ti28     Er29    10.0   .     S
Er29     Ti30    10.0   .     S
Er29     Er26    10.0   1_665     S
