data_phx
_audit_creation_date              2020-02-02
_audit_creation_method            'Pymatgen'
_symmetry_space_group_name_H-M    'P1'
_symmetry_Int_Tables_number       1
loop_
_symmetry_equiv_pos_as_xyz
  x,y,z
_cell_length_a                    18.01
_cell_length_b                    18.01
_cell_length_c                    56.0913
_cell_angle_alpha                 90.0
_cell_angle_beta                 90.0
_cell_angle_gamma                 120.0
loop_
_atom_site_label
_atom_site_type_symbol
_atom_site_fract_x
_atom_site_fract_y
_atom_site_fract_z
Er1     Er     0.0   0.0   0.9109
Er2     Er     0.0   0.0   0.7558
Er3     Er     0.0   0.0   0.4225
Er4     Er     0.0   0.0   0.5775
Er5     Er     0.0   0.0   0.0891
Er6     Er     0.0   0.0   0.2442
V7     V     0.0   0.5   0.1667
V8     V     0.5   0.5   0.8333
V9     V     0.5   0.0   0.5
loop_
_geom_bond_atom_site_label_1
_geom_bond_atom_site_label_2
_geom_bond_distance
_geom_bond_site_symmetry_2
_ccdc_geom_bond_type
Er1     V8    10.0   .     S
Er1     V8    10.0   1_445     S
Er1     Er5    10.0   1_556     S
Er2     V8    10.0   .     S
Er2     V8    10.0   1_445     S
Er2     Er4    10.0   .     S
Er3     V9    10.0   .     S
Er3     V9    10.0   1_455     S
Er3     Er6    10.0   .     S
Er4     V9    10.0   .     S
Er4     V9    10.0   1_455     S
Er5     V7    10.0   1_545     S
Er5     V7    10.0   .     S
Er5     Er1    10.0   1_554     S
Er6     V7    10.0   1_545     S
Er6     V7    10.0   .     S
V7     Er5    10.0   1_565     S
V7     Er6    10.0   1_565     S
V8     Er2    10.0   1_665     S
V8     Er1    10.0   1_665     S
V9     Er3    10.0   1_655     S
V9     Er4    10.0   1_655     S
