data_phxa
_audit_creation_date              2020-02-02
_audit_creation_method            'Pymatgen'
_symmetry_space_group_name_H-M    'P1'
_symmetry_Int_Tables_number       1
loop_
_symmetry_equiv_pos_as_xyz
  x,y,z
_cell_length_a                    38.4823
_cell_length_b                    38.4823
_cell_length_c                    134.8807
_cell_angle_alpha                 90.0
_cell_angle_beta                 90.0
_cell_angle_gamma                 120.0
loop_
_atom_site_label
_atom_site_type_symbol
_atom_site_fract_x
_atom_site_fract_y
_atom_site_fract_z
V1     V     0.0018   0.1308   0.7321
V2     V     0.9982   0.8692   0.7321
Ti3     Ti     0.0003   0.3702   0.7037
Ti4     Ti     0.9997   0.6298   0.7037
Er5     Er     0.0   0.0   0.8704
Er6     Er     0.0   0.0   0.7963
V7     V     0.1308   0.0018   0.9346
V8     V     0.8692   0.9982   0.9346
Ti9     Ti     0.3702   0.0003   0.9629
Ti10     Ti     0.6298   0.9997   0.9629
V11     V     0.129   0.9982   0.0654
V12     V     0.871   0.0018   0.0654
Ti13     Ti     0.3699   0.9997   0.0371
Ti14     Ti     0.6301   0.0003   0.0371
Er15     Er     0.0   0.0   0.2037
Er16     Er     0.0   0.0   0.1296
V17     V     0.129   0.1308   0.2679
V18     V     0.871   0.8692   0.2679
Ti19     Ti     0.6301   0.6298   0.2963
Ti20     Ti     0.3699   0.3702   0.2963
Ti21     Ti     0.3702   0.3699   0.3704
V22     V     0.8692   0.871   0.3987
V23     V     0.1308   0.129   0.3987
Ti24     Ti     0.6298   0.6301   0.3704
Er25     Er     0.0   0.0   0.5371
Er26     Er     0.0   0.0   0.4629
Ti27     Ti     0.9997   0.3699   0.6296
V28     V     0.9982   0.129   0.6013
V29     V     0.0018   0.871   0.6013
Ti30     Ti     0.0003   0.6301   0.6296
loop_
_geom_bond_atom_site_label_1
_geom_bond_atom_site_label_2
_geom_bond_distance
_geom_bond_site_symmetry_2
_ccdc_geom_bond_type
V1     V2    10.0   1_445     S
V1     Er6    10.0   .     S
V1     Ti3    10.0   .     S
V2     V1    10.0   1_665     S
V2     Er6    10.0   1_665     S
V2     Ti4    10.0   .     S
Ti3     Ti4    10.0   1_455     S
Ti3     Ti27    10.001   1_455     S
Ti4     Ti3    10.0   1_655     S
Ti4     Ti30    10.001   1_655     S
Er5     Er6    9.999   .     S
Er5     V8    10.0   1_445     S
Er5     V7    10.0   .     S
Er6     V2    10.0   1_445     S
V7     V8    10.0   1_445     S
V7     Ti9    10.0   .     S
V8     V7    10.0   1_665     S
V8     Er5    10.0   1_665     S
V8     Ti10    10.0   .     S
Ti9     Ti10    10.0   1_545     S
Ti9     Ti13    10.001   1_546     S
Ti10     Ti9    10.0   1_565     S
Ti10     Ti14    10.001   1_566     S
V11     Er16    10.0   1_565     S
V11     V12    10.0   1_465     S
V11     Ti13    10.0   .     S
V12     Er16    10.0   1_655     S
V12     V11    10.0   1_645     S
V12     Ti14    10.0   .     S
Ti13     Ti9    10.001   1_564     S
Ti13     Ti14    10.0   1_565     S
Ti14     Ti10    10.001   1_544     S
Ti14     Ti13    10.0   1_545     S
Er15     Er16    9.999   .     S
Er15     V18    10.0   1_445     S
Er15     V17    10.0   .     S
Er16     V11    10.0   1_545     S
Er16     V12    10.0   1_455     S
V17     V18    10.0   1_445     S
V17     Ti20    10.0   .     S
V18     V17    10.0   1_665     S
V18     Er15    10.0   1_665     S
V18     Ti19    10.0   .     S
Ti19     Ti20    10.0   .     S
Ti19     Ti24    10.001   .     S
Ti20     Ti21    10.001   .     S
Ti21     V23    10.0   .     S
Ti21     Ti24    10.0   .     S
V22     V23    10.0   1_665     S
V22     Er26    10.0   1_665     S
V22     Ti24    10.0   .     S
V23     V22    10.0   1_445     S
V23     Er26    10.0   .     S
Er25     Er26    9.999   .     S
Er25     V28    10.0   1_455     S
Er25     V29    10.0   1_545     S
Er26     V22    10.0   1_445     S
Ti27     V28    10.0   .     S
Ti27     Ti30    10.0   1_655     S
Ti27     Ti3    10.001   1_655     S
V28     Er25    10.0   1_655     S
V28     V29    10.0   1_645     S
V29     V28    10.0   1_465     S
V29     Er25    10.0   1_565     S
V29     Ti30    10.0   .     S
Ti30     Ti27    10.0   1_455     S
Ti30     Ti4    10.001   1_455     S
