data_popa
_audit_creation_date              2020-02-02
_audit_creation_method            'Pymatgen'
_symmetry_space_group_name_H-M    'P1'
_symmetry_Int_Tables_number       1
loop_
_symmetry_equiv_pos_as_xyz
  x,y,z
_cell_length_a                    71.2618
_cell_length_b                    71.2618
_cell_length_c                    71.2618
_cell_angle_alpha                 90.0
_cell_angle_beta                 90.0
_cell_angle_gamma                 90.0
loop_
_atom_site_label
_atom_site_type_symbol
_atom_site_fract_x
_atom_site_fract_y
_atom_site_fract_z
Ti1     Ti     0.4298   0.0702   0.75
Ti2     Ti     0.4298   0.9298   0.75
Ti3     Ti     0.5702   0.0702   0.75
Ti4     Ti     0.5702   0.9298   0.75
Ti5     Ti     0.0702   0.75   0.4298
Ti6     Ti     0.9298   0.75   0.4298
Ti7     Ti     0.0702   0.75   0.5702
Ti8     Ti     0.9298   0.75   0.5702
Ti9     Ti     0.9298   0.25   0.4298
Ti10     Ti     0.0702   0.25   0.4298
Ti11     Ti     0.0702   0.25   0.5702
Ti12     Ti     0.9298   0.25   0.5702
Ti13     Ti     0.4298   0.0702   0.25
Ti14     Ti     0.5702   0.0702   0.25
Ti15     Ti     0.4298   0.9298   0.25
Ti16     Ti     0.5702   0.9298   0.25
Ti17     Ti     0.25   0.4298   0.0702
Ti18     Ti     0.25   0.5702   0.0702
Ti19     Ti     0.25   0.4298   0.9298
Ti20     Ti     0.25   0.5702   0.9298
V21     V     0.1938   0.8631   0.7487
V22     V     0.1369   0.7487   0.8062
V23     V     0.2513   0.8062   0.8631
Er24     Er     0.25   0.6696   0.8304
Er25     Er     0.3304   0.8304   0.75
V26     V     0.2487   0.6369   0.6938
V27     V     0.3062   0.7513   0.6369
V28     V     0.3631   0.6938   0.7513
Er29     Er     0.1696   0.75   0.6696
Ce30     Ce     0.2509   0.0702   0.9299
Ce31     Ce     0.2509   0.0702   0.0701
Ce32     Ce     0.2509   0.9298   0.9299
Ce33     Ce     0.2509   0.9298   0.0701
Ce34     Ce     0.4298   0.7509   0.5701
Ce35     Ce     0.4298   0.7509   0.4299
Ce36     Ce     0.5702   0.7509   0.5701
Ce37     Ce     0.5702   0.7509   0.4299
Ce38     Ce     0.7491   0.0702   0.9299
Ce39     Ce     0.7491   0.0702   0.0701
Ce40     Ce     0.7491   0.9298   0.9299
Ce41     Ce     0.7491   0.9298   0.0701
Ce42     Ce     0.5701   0.4298   0.7509
Ce43     Ce     0.4299   0.4298   0.7509
Ce44     Ce     0.5701   0.5702   0.7509
Ce45     Ce     0.4299   0.5702   0.7509
Ce46     Ce     0.0702   0.9299   0.7491
Ce47     Ce     0.0702   0.0701   0.7491
Ce48     Ce     0.9298   0.9299   0.7491
Ce49     Ce     0.9298   0.0701   0.7491
Ce50     Ce     0.7509   0.5701   0.4298
Ce51     Ce     0.7509   0.4299   0.4298
Ce52     Ce     0.7509   0.5701   0.5702
Ce53     Ce     0.7509   0.4299   0.5702
Er54     Er     0.6696   0.8304   0.75
Er55     Er     0.75   0.6696   0.8304
V56     V     0.6369   0.6938   0.7513
V57     V     0.6938   0.7513   0.6369
V58     V     0.7513   0.6369   0.6938
V59     V     0.7487   0.8062   0.8631
V60     V     0.8631   0.7487   0.8062
V61     V     0.8062   0.8631   0.7487
Er62     Er     0.8304   0.75   0.6696
Ce63     Ce     0.9299   0.7491   0.0702
Ce64     Ce     0.0701   0.7491   0.0702
Ce65     Ce     0.9299   0.7491   0.9298
Ce66     Ce     0.0701   0.7491   0.9298
V67     V     0.8631   0.7487   0.1938
V68     V     0.7487   0.8062   0.1369
V69     V     0.8062   0.8631   0.2513
Er70     Er     0.6696   0.8304   0.25
Er71     Er     0.8304   0.75   0.3304
V72     V     0.6369   0.6938   0.2487
V73     V     0.7513   0.6369   0.3062
V74     V     0.6938   0.7513   0.3631
Er75     Er     0.75   0.6696   0.1696
Ce76     Ce     0.0702   0.9299   0.2509
Ce77     Ce     0.0702   0.0701   0.2509
Ce78     Ce     0.9298   0.9299   0.2509
Ce79     Ce     0.9298   0.0701   0.2509
Er80     Er     0.3304   0.1696   0.75
V81     V     0.2513   0.1938   0.8631
V82     V     0.1369   0.2513   0.8062
V83     V     0.1938   0.1369   0.7487
Er84     Er     0.1696   0.25   0.6696
V85     V     0.3062   0.2487   0.6369
V86     V     0.2487   0.3631   0.6938
V87     V     0.3631   0.3062   0.7513
Er88     Er     0.25   0.3304   0.8304
Ce89     Ce     0.5702   0.2491   0.5701
Ce90     Ce     0.5702   0.2491   0.4299
Ce91     Ce     0.4298   0.2491   0.5701
Ce92     Ce     0.4298   0.2491   0.4299
Er93     Er     0.75   0.3304   0.1696
V94     V     0.8631   0.2513   0.1938
V95     V     0.8062   0.1369   0.2513
V96     V     0.7487   0.1938   0.1369
Er97     Er     0.6696   0.1696   0.25
V98     V     0.6369   0.3062   0.2487
V99     V     0.6938   0.2487   0.3631
V100     V     0.7513   0.3631   0.3062
Er101     Er     0.8304   0.25   0.3304
Ce102     Ce     0.5701   0.5702   0.2491
Ce103     Ce     0.4299   0.5702   0.2491
Ce104     Ce     0.5701   0.4298   0.2491
Ce105     Ce     0.4299   0.4298   0.2491
V106     V     0.3062   0.2487   0.3631
V107     V     0.2487   0.3631   0.3062
V108     V     0.3631   0.3062   0.2487
Er109     Er     0.3304   0.1696   0.25
Er110     Er     0.1696   0.25   0.3304
V111     V     0.1369   0.2513   0.1938
V112     V     0.1938   0.1369   0.2513
V113     V     0.2513   0.1938   0.1369
Er114     Er     0.25   0.3304   0.1696
Er115     Er     0.1696   0.75   0.3304
V116     V     0.1938   0.8631   0.2513
V117     V     0.2513   0.8062   0.1369
V118     V     0.1369   0.7487   0.1938
Er119     Er     0.25   0.6696   0.1696
V120     V     0.2487   0.6369   0.3062
V121     V     0.3631   0.6938   0.2487
V122     V     0.3062   0.7513   0.3631
Er123     Er     0.3304   0.8304   0.25
Ce124     Ce     0.2491   0.5701   0.5702
Ce125     Ce     0.2491   0.4299   0.5702
Ce126     Ce     0.2491   0.5701   0.4298
Ce127     Ce     0.2491   0.4299   0.4298
V128     V     0.7487   0.1938   0.8631
V129     V     0.8062   0.1369   0.7487
V130     V     0.8631   0.2513   0.8062
Er131     Er     0.8304   0.25   0.6696
Er132     Er     0.75   0.3304   0.8304
V133     V     0.6938   0.2487   0.6369
V134     V     0.6369   0.3062   0.7513
V135     V     0.7513   0.3631   0.6938
Er136     Er     0.6696   0.1696   0.75
Ce137     Ce     0.9299   0.2509   0.0702
Ce138     Ce     0.0701   0.2509   0.0702
Ce139     Ce     0.9299   0.2509   0.9298
Ce140     Ce     0.0701   0.2509   0.9298
Ti141     Ti     0.75   0.4298   0.9298
Ti142     Ti     0.75   0.5702   0.0702
Ti143     Ti     0.75   0.4298   0.0702
Ti144     Ti     0.75   0.5702   0.9298
loop_
_geom_bond_atom_site_label_1
_geom_bond_atom_site_label_2
_geom_bond_distance
_geom_bond_site_symmetry_2
_ccdc_geom_bond_type
Ti1     Ti3    10.005   .     S
Ti1     Ti2    10.005   1_545     S
Ti1     Er80    10.016   .     S
Ti2     Ti1    10.005   1_565     S
Ti2     Ti4    10.005   .     S
Ti2     Er25    10.016   .     S
Ti3     Ti4    10.005   1_545     S
Ti3     Er136    10.016   .     S
Ti4     Ti3    10.005   1_565     S
Ti4     Er54    10.016   .     S
Ti5     Ti7    10.005   .     S
Ti5     Ti6    10.005   1_455     S
Ti5     Er115    10.016   .     S
Ti6     Ti5    10.005   1_655     S
Ti6     Ti8    10.005   .     S
Ti6     Er71    10.016   .     S
Ti7     Ti8    10.005   1_455     S
Ti7     Er29    10.016   .     S
Ti8     Ti7    10.005   1_655     S
Ti8     Er62    10.016   .     S
Ti9     Ti12    10.005   .     S
Ti9     Ti10    10.005   1_655     S
Ti9     Er101    10.016   .     S
Ti10     Ti11    10.005   .     S
Ti10     Ti9    10.005   1_455     S
Ti10     Er110    10.016   .     S
Ti11     Ti12    10.005   1_455     S
Ti11     Er84    10.016   .     S
Ti12     Ti11    10.005   1_655     S
Ti12     Er131    10.016   .     S
Ti13     Ti14    10.005   .     S
Ti13     Ti15    10.005   1_545     S
Ti13     Er109    10.016   .     S
Ti14     Ti16    10.005   1_545     S
Ti14     Er97    10.016   .     S
Ti15     Ti13    10.005   1_565     S
Ti15     Ti16    10.005   .     S
Ti15     Er123    10.016   .     S
Ti16     Ti14    10.005   1_565     S
Ti16     Er70    10.016   .     S
Ti17     Ti18    10.005   .     S
Ti17     Ti19    10.005   1_554     S
Ti17     Er114    10.016   .     S
Ti18     Ti20    10.005   1_554     S
Ti18     Er119    10.016   .     S
Ti19     Ti17    10.005   1_556     S
Ti19     Ti20    10.005   .     S
Ti19     Er88    10.016   .     S
Ti20     Ti18    10.005   1_556     S
Ti20     Er24    10.016   .     S
V21     Er25    10.009   .     S
V21     Ce46    10.012   .     S
V21     V23    9.982   .     S
V21     V22    9.982   .     S
V21     Er29    9.985   .     S
V22     Er29    10.009   .     S
V22     Ce66    10.012   .     S
V22     V23    9.982   .     S
V22     Er24    9.985   .     S
V23     Er24    10.009   .     S
V23     Ce32    10.012   .     S
V23     Er25    9.985   .     S
Er24     V26    10.009   .     S
Er24     V28    9.985   .     S
Er25     V28    10.009   .     S
Er25     V27    9.985   .     S
V26     Ce124    10.012   .     S
V26     V28    9.982   .     S
V26     V27    9.982   .     S
V26     Er29    9.985   .     S
V27     Er29    10.009   .     S
V27     Ce34    10.012   .     S
V27     V28    9.982   .     S
V28     Ce45    10.012   .     S
Ce30     Ce32    10.008   1_545     S
Ce30     V81    10.012   .     S
Ce30     Ce31    9.995   1_556     S
Ce31     Ce33    10.008   1_545     S
Ce31     V113    10.012   .     S
Ce31     Ce30    9.995   1_554     S
Ce32     Ce30    10.008   1_565     S
Ce32     Ce33    9.995   1_556     S
Ce33     Ce31    10.008   1_565     S
Ce33     V117    10.012   .     S
Ce33     Ce32    9.995   1_554     S
Ce34     Ce36    10.008   .     S
Ce34     Ce35    9.995   .     S
Ce35     Ce37    10.008   .     S
Ce35     V122    10.012   .     S
Ce36     V57    10.012   .     S
Ce36     Ce37    9.995   .     S
Ce37     V74    10.012   .     S
Ce38     Ce40    10.008   1_545     S
Ce38     V128    10.012   .     S
Ce38     Ce39    9.995   1_556     S
Ce39     Ce41    10.008   1_545     S
Ce39     V96    10.012   .     S
Ce39     Ce38    9.995   1_554     S
Ce40     Ce38    10.008   1_565     S
Ce40     V59    10.012   .     S
Ce40     Ce41    9.995   1_556     S
Ce41     Ce39    10.008   1_565     S
Ce41     V68    10.012   .     S
Ce41     Ce40    9.995   1_554     S
Ce42     Ce44    10.008   .     S
Ce42     V134    10.012   .     S
Ce42     Ce43    9.995   .     S
Ce43     Ce45    10.008   .     S
Ce43     V87    10.012   .     S
Ce44     V56    10.012   .     S
Ce44     Ce45    9.995   .     S
Ce46     Ce48    10.008   1_455     S
Ce46     Ce47    9.995   1_565     S
Ce47     Ce49    10.008   1_455     S
Ce47     V83    10.012   .     S
Ce47     Ce46    9.995   1_545     S
Ce48     Ce46    10.008   1_655     S
Ce48     V61    10.012   .     S
Ce48     Ce49    9.995   1_565     S
Ce49     Ce47    10.008   1_655     S
Ce49     V129    10.012   .     S
Ce49     Ce48    9.995   1_545     S
Ce50     Ce52    10.008   .     S
Ce50     V73    10.012   .     S
Ce50     Ce51    9.995   .     S
Ce51     Ce53    10.008   .     S
Ce51     V100    10.012   .     S
Ce52     V58    10.012   .     S
Ce52     Ce53    9.995   .     S
Ce53     V135    10.012   .     S
Er54     V56    10.009   .     S
Er54     V61    10.009   .     S
Er54     V57    9.985   .     S
Er54     V59    9.985   .     S
Er55     V59    10.009   .     S
Er55     V58    10.009   .     S
Er55     Ti144    10.016   .     S
Er55     V60    9.985   .     S
Er55     V56    9.985   .     S
V56     V57    9.982   .     S
V56     V58    9.982   .     S
V57     Er62    10.009   .     S
V57     V58    9.982   .     S
V58     Er62    9.985   .     S
V59     V60    9.982   .     S
V59     V61    9.982   .     S
V60     Er62    10.009   .     S
V60     Ce65    10.012   .     S
V60     V61    9.982   .     S
V61     Er62    9.985   .     S
Ce63     Ce65    10.008   1_554     S
Ce63     V67    10.012   .     S
Ce63     Ce64    9.995   1_655     S
Ce64     Ce66    10.008   1_554     S
Ce64     V118    10.012   .     S
Ce64     Ce63    9.995   1_455     S
Ce65     Ce63    10.008   1_556     S
Ce65     Ce66    9.995   1_655     S
Ce66     Ce64    10.008   1_556     S
Ce66     Ce65    9.995   1_455     S
V67     Er71    10.009   .     S
V67     V69    9.982   .     S
V67     V68    9.982   .     S
V67     Er75    9.985   .     S
V68     Er75    10.009   .     S
V68     V69    9.982   .     S
V68     Er70    9.985   .     S
V69     Er70    10.009   .     S
V69     Ce78    10.012   .     S
V69     Er71    9.985   .     S
Er70     V72    10.009   .     S
Er70     V74    9.985   .     S
Er71     V74    10.009   .     S
Er71     V73    9.985   .     S
V72     Ce102    10.012   .     S
V72     V74    9.982   .     S
V72     V73    9.982   .     S
V72     Er75    9.985   .     S
V73     Er75    10.009   .     S
V73     V74    9.982   .     S
Er75     Ti142    10.016   .     S
Ce76     Ce78    10.008   1_455     S
Ce76     V116    10.012   .     S
Ce76     Ce77    9.995   1_565     S
Ce77     Ce79    10.008   1_455     S
Ce77     V112    10.012   .     S
Ce77     Ce76    9.995   1_545     S
Ce78     Ce76    10.008   1_655     S
Ce78     Ce79    9.995   1_565     S
Ce79     Ce77    10.008   1_655     S
Ce79     V95    10.012   .     S
Ce79     Ce78    9.995   1_545     S
Er80     V83    10.009   .     S
Er80     V87    10.009   .     S
Er80     V81    9.985   .     S
Er80     V85    9.985   .     S
V81     Er88    10.009   .     S
V81     V82    9.982   .     S
V81     V83    9.982   .     S
V82     Er84    10.009   .     S
V82     Ce140    10.012   .     S
V82     V83    9.982   .     S
V82     Er88    9.985   .     S
V83     Er84    9.985   .     S
Er84     V85    10.009   .     S
Er84     V86    9.985   .     S
V85     Ce91    10.012   .     S
V85     V86    9.982   .     S
V85     V87    9.982   .     S
V86     Er88    10.009   .     S
V86     Ce125    10.012   .     S
V86     V87    9.982   .     S
V87     Er88    9.985   .     S
Ce89     Ce91    10.008   .     S
Ce89     V133    10.012   .     S
Ce89     Ce90    9.995   .     S
Ce90     Ce92    10.008   .     S
Ce90     V99    10.012   .     S
Ce91     Ce92    9.995   .     S
Ce92     V106    10.012   .     S
Er93     V96    10.009   .     S
Er93     V100    10.009   .     S
Er93     Ti143    10.016   .     S
Er93     V94    9.985   .     S
Er93     V98    9.985   .     S
V94     Er101    10.009   .     S
V94     Ce137    10.012   .     S
V94     V95    9.982   .     S
V94     V96    9.982   .     S
V95     Er97    10.009   .     S
V95     V96    9.982   .     S
V95     Er101    9.985   .     S
V96     Er97    9.985   .     S
Er97     V98    10.009   .     S
Er97     V99    9.985   .     S
V98     Ce104    10.012   .     S
V98     V99    9.982   .     S
V98     V100    9.982   .     S
V99     Er101    10.009   .     S
V99     V100    9.982   .     S
V100     Er101    9.985   .     S
Ce102     Ce104    10.008   .     S
Ce102     Ce103    9.995   .     S
Ce103     Ce105    10.008   .     S
Ce103     V121    10.012   .     S
Ce104     Ce105    9.995   .     S
Ce105     V108    10.012   .     S
V106     Er110    10.009   .     S
V106     V107    9.982   .     S
V106     V108    9.982   .     S
V106     Er109    9.985   .     S
V107     Er114    10.009   .     S
V107     Ce127    10.012   .     S
V107     V108    9.982   .     S
V107     Er110    9.985   .     S
V108     Er109    10.009   .     S
V108     Er114    9.985   .     S
Er109     V112    10.009   .     S
Er109     V113    9.985   .     S
Er110     V111    10.009   .     S
Er110     V112    9.985   .     S
V111     Ce138    10.012   .     S
V111     V112    9.982   .     S
V111     V113    9.982   .     S
V111     Er114    9.985   .     S
V112     V113    9.982   .     S
V113     Er114    10.009   .     S
Er115     V118    10.009   .     S
Er115     V122    10.009   .     S
Er115     V116    9.985   .     S
Er115     V120    9.985   .     S
V116     Er123    10.009   .     S
V116     V117    9.982   .     S
V116     V118    9.982   .     S
V117     Er119    10.009   .     S
V117     V118    9.982   .     S
V117     Er123    9.985   .     S
V118     Er119    9.985   .     S
Er119     V120    10.009   .     S
Er119     V121    9.985   .     S
V120     Ce126    10.012   .     S
V120     V121    9.982   .     S
V120     V122    9.982   .     S
V121     Er123    10.009   .     S
V121     V122    9.982   .     S
V122     Er123    9.985   .     S
Ce124     Ce126    10.008   .     S
Ce124     Ce125    9.995   .     S
Ce125     Ce127    10.008   .     S
Ce126     Ce127    9.995   .     S
V128     Er132    10.009   .     S
V128     V130    9.982   .     S
V128     V129    9.982   .     S
V128     Er136    9.985   .     S
V129     Er136    10.009   .     S
V129     V130    9.982   .     S
V129     Er131    9.985   .     S
V130     Er131    10.009   .     S
V130     Ce139    10.012   .     S
V130     Er132    9.985   .     S
Er131     V133    10.009   .     S
Er131     V135    9.985   .     S
Er132     V135    10.009   .     S
Er132     Ti141    10.016   .     S
Er132     V134    9.985   .     S
V133     V135    9.982   .     S
V133     V134    9.982   .     S
V133     Er136    9.985   .     S
V134     Er136    10.009   .     S
V134     V135    9.982   .     S
Ce137     Ce139    10.008   1_554     S
Ce137     Ce138    9.995   1_655     S
Ce138     Ce140    10.008   1_554     S
Ce138     Ce137    9.995   1_455     S
Ce139     Ce137    10.008   1_556     S
Ce139     Ce140    9.995   1_655     S
Ce140     Ce138    10.008   1_556     S
Ce140     Ce139    9.995   1_455     S
Ti141     Ti144    10.005   .     S
Ti141     Ti143    10.005   1_556     S
Ti142     Ti144    10.005   1_554     S
Ti142     Ti143    10.005   .     S
Ti143     Ti141    10.005   1_554     S
Ti144     Ti142    10.005   1_556     S
