data_poz
_audit_creation_date              2020-02-02
_audit_creation_method            'Pymatgen'
_symmetry_space_group_name_H-M    'P1'
_symmetry_Int_Tables_number       1
loop_
_symmetry_equiv_pos_as_xyz
  x,y,z
_cell_length_a                    67.1091
_cell_length_b                    67.1091
_cell_length_c                    94.0603
_cell_angle_alpha                 90.0
_cell_angle_beta                 90.0
_cell_angle_gamma                 90.0
loop_
_atom_site_label
_atom_site_type_symbol
_atom_site_fract_x
_atom_site_fract_y
_atom_site_fract_z
Ce1     Ce     0.0745   0.4255   0.5532
Ce2     Ce     0.4255   0.9255   0.5532
Ce3     Ce     0.9255   0.4255   0.5532
Ce4     Ce     0.4255   0.0745   0.5532
Ce5     Ce     0.5745   0.0745   0.9468
Ce6     Ce     0.0745   0.4255   0.9468
Ce7     Ce     0.4255   0.0745   0.9468
Ce8     Ce     0.0745   0.5745   0.9468
Ce9     Ce     0.9255   0.5745   0.5532
Ce10     Ce     0.5745   0.0745   0.5532
Ce11     Ce     0.0745   0.5745   0.5532
Ce12     Ce     0.4255   0.9255   0.9468
Ce13     Ce     0.9255   0.5745   0.9468
Ce14     Ce     0.5745   0.9255   0.9468
Ce15     Ce     0.9255   0.4255   0.9468
Ce16     Ce     0.5745   0.9255   0.5532
Ti17     Ti     0.7239   0.1707   0.7041
V18     V     0.8201   0.0745   0.6607
V19     V     0.9255   0.1799   0.6607
Ti20     Ti     0.8293   0.2761   0.7041
Ti21     Ti     0.6707   0.2239   0.7959
V22     V     0.6799   0.4255   0.8393
V23     V     0.5745   0.3201   0.8393
Ti24     Ti     0.7761   0.3293   0.7959
Er25     Er     0.9255   0.3225   0.63
Er26     Er     0.0745   0.3225   0.63
Er27     Er     0.5745   0.1775   0.87
Er28     Er     0.4255   0.1775   0.87
Ti29     Ti     0.1707   0.2761   0.7041
V30     V     0.1799   0.0745   0.6607
V31     V     0.0745   0.1799   0.6607
Ti32     Ti     0.2761   0.1707   0.7041
Ti33     Ti     0.2239   0.3293   0.7959
V34     V     0.4255   0.3201   0.8393
V35     V     0.3201   0.4255   0.8393
Ti36     Ti     0.3293   0.2239   0.7959
Er37     Er     0.3225   0.9255   0.63
Er38     Er     0.3225   0.0745   0.63
Er39     Er     0.1775   0.5745   0.87
Er40     Er     0.1775   0.4255   0.87
Ti41     Ti     0.1707   0.7239   0.7041
V42     V     0.0745   0.8201   0.6607
V43     V     0.1799   0.9255   0.6607
Ti44     Ti     0.2761   0.8293   0.7041
Ti45     Ti     0.2239   0.6707   0.7959
V46     V     0.4255   0.6799   0.8393
V47     V     0.3201   0.5745   0.8393
Ti48     Ti     0.3293   0.7761   0.7959
Er49     Er     0.9255   0.6775   0.63
Er50     Er     0.0745   0.6775   0.63
Er51     Er     0.8225   0.5745   0.87
Er52     Er     0.8225   0.4255   0.87
Er53     Er     0.5745   0.8225   0.87
Er54     Er     0.4255   0.8225   0.87
Er55     Er     0.6775   0.9255   0.63
Er56     Er     0.6775   0.0745   0.63
Ti57     Ti     0.8293   0.7239   0.7041
V58     V     0.8201   0.9255   0.6607
V59     V     0.9255   0.8201   0.6607
Ti60     Ti     0.7239   0.8293   0.7041
Ti61     Ti     0.7761   0.6707   0.7959
V62     V     0.5745   0.6799   0.8393
V63     V     0.6799   0.5745   0.8393
Ti64     Ti     0.6707   0.7761   0.7959
Ce65     Ce     0.9255   0.4255   0.4468
Ce66     Ce     0.4255   0.0745   0.4468
Ce67     Ce     0.0745   0.4255   0.4468
Ce68     Ce     0.4255   0.9255   0.4468
Ce69     Ce     0.0745   0.5745   0.4468
Ce70     Ce     0.5745   0.9255   0.4468
Ce71     Ce     0.9255   0.5745   0.4468
Ce72     Ce     0.5745   0.0745   0.4468
Ce73     Ce     0.4255   0.0745   0.0532
Ce74     Ce     0.0745   0.5745   0.0532
Ce75     Ce     0.5745   0.0745   0.0532
Ce76     Ce     0.0745   0.4255   0.0532
Ce77     Ce     0.5745   0.9255   0.0532
Ce78     Ce     0.9255   0.4255   0.0532
Ce79     Ce     0.4255   0.9255   0.0532
Ce80     Ce     0.9255   0.5745   0.0532
Er81     Er     0.5745   0.8225   0.13
Er82     Er     0.4255   0.8225   0.13
Er83     Er     0.8225   0.5745   0.13
Er84     Er     0.8225   0.4255   0.13
Er85     Er     0.5745   0.1775   0.13
Er86     Er     0.4255   0.1775   0.13
Er87     Er     0.1775   0.5745   0.13
Er88     Er     0.1775   0.4255   0.13
Ti89     Ti     0.7239   0.1707   0.2959
V90     V     0.8201   0.0745   0.3393
V91     V     0.9255   0.1799   0.3393
Ti92     Ti     0.8293   0.2761   0.2959
Ti93     Ti     0.6707   0.2239   0.2041
V94     V     0.6799   0.4255   0.1607
V95     V     0.5745   0.3201   0.1607
Ti96     Ti     0.7761   0.3293   0.2041
Er97     Er     0.6775   0.9255   0.37
Er98     Er     0.6775   0.0745   0.37
Ti99     Ti     0.6707   0.7761   0.2041
V100     V     0.6799   0.5745   0.1607
V101     V     0.5745   0.6799   0.1607
Ti102     Ti     0.7761   0.6707   0.2041
Ti103     Ti     0.7239   0.8293   0.2959
V104     V     0.9255   0.8201   0.3393
V105     V     0.8201   0.9255   0.3393
Ti106     Ti     0.8293   0.7239   0.2959
Er107     Er     0.9255   0.6775   0.37
Er108     Er     0.0745   0.6775   0.37
Ti109     Ti     0.1707   0.7239   0.2959
V110     V     0.0745   0.8201   0.3393
V111     V     0.1799   0.9255   0.3393
Ti112     Ti     0.2761   0.8293   0.2959
Ti113     Ti     0.2239   0.6707   0.2041
V114     V     0.4255   0.6799   0.1607
V115     V     0.3201   0.5745   0.1607
Ti116     Ti     0.3293   0.7761   0.2041
Er117     Er     0.3225   0.9255   0.37
Er118     Er     0.3225   0.0745   0.37
Er119     Er     0.9255   0.3225   0.37
Er120     Er     0.0745   0.3225   0.37
Ti121     Ti     0.3293   0.2239   0.2041
V122     V     0.3201   0.4255   0.1607
V123     V     0.4255   0.3201   0.1607
Ti124     Ti     0.2239   0.3293   0.2041
Ti125     Ti     0.2761   0.1707   0.2959
V126     V     0.0745   0.1799   0.3393
V127     V     0.1799   0.0745   0.3393
Ti128     Ti     0.1707   0.2761   0.2959
loop_
_geom_bond_atom_site_label_1
_geom_bond_atom_site_label_2
_geom_bond_distance
_geom_bond_site_symmetry_2
_ccdc_geom_bond_type
Ce1     Er26    10.0   .     S
Ce1     Ce67    10.0   .     S
Ce1     Ce3    10.001   1_455     S
Ce1     Ce11    10.001   .     S
Ce2     Er37    10.0   .     S
Ce2     Ce68    10.0   .     S
Ce2     Ce4    10.001   1_565     S
Ce2     Ce16    10.001   .     S
Ce3     Er25    10.0   .     S
Ce3     Ce65    10.0   .     S
Ce3     Ce1    10.001   1_655     S
Ce3     Ce9    10.001   .     S
Ce4     Er38    10.0   .     S
Ce4     Ce66    10.0   .     S
Ce4     Ce2    10.001   1_545     S
Ce4     Ce10    10.001   .     S
Ce5     Er27    10.0   .     S
Ce5     Ce75    10.0   1_556     S
Ce5     Ce14    10.001   1_545     S
Ce5     Ce7    10.001   .     S
Ce6     Er40    10.0   .     S
Ce6     Ce76    10.0   1_556     S
Ce6     Ce15    10.001   1_455     S
Ce6     Ce8    10.001   .     S
Ce7     Er28    10.0   .     S
Ce7     Ce73    10.0   1_556     S
Ce7     Ce12    10.001   1_545     S
Ce8     Er39    10.0   .     S
Ce8     Ce74    10.0   1_556     S
Ce8     Ce13    10.001   1_455     S
Ce9     Er49    10.0   .     S
Ce9     Ce71    10.0   .     S
Ce9     Ce11    10.001   1_655     S
Ce10     Er56    10.0   .     S
Ce10     Ce72    10.0   .     S
Ce10     Ce16    10.001   1_545     S
Ce11     Er50    10.0   .     S
Ce11     Ce69    10.0   .     S
Ce11     Ce9    10.001   1_455     S
Ce12     Er54    10.0   .     S
Ce12     Ce79    10.0   1_556     S
Ce12     Ce7    10.001   1_565     S
Ce12     Ce14    10.001   .     S
Ce13     Er51    10.0   .     S
Ce13     Ce80    10.0   1_556     S
Ce13     Ce8    10.001   1_655     S
Ce13     Ce15    10.001   .     S
Ce14     Er53    10.0   .     S
Ce14     Ce77    10.0   1_556     S
Ce14     Ce5    10.001   1_565     S
Ce15     Er52    10.0   .     S
Ce15     Ce78    10.0   1_556     S
Ce15     Ce6    10.001   1_655     S
Ce16     Er55    10.0   .     S
Ce16     Ce70    10.0   .     S
Ce16     Ce10    10.001   1_565     S
Ti17     Er56    10.0   .     S
Ti17     V18    10.0   .     S
Ti17     Ti21    10.0   .     S
Ti17     Ti20    10.0   .     S
V18     Er56    10.0   .     S
V18     V19    9.999   .     S
V18     V58    10.001   1_545     S
V19     Er25    10.0   .     S
V19     Ti20    10.0   .     S
V19     V31    10.001   1_655     S
Ti20     Er25    10.0   .     S
Ti20     Ti24    10.0   .     S
Ti21     Er27    10.0   .     S
Ti21     V23    10.0   .     S
Ti21     Ti24    10.0   .     S
V22     V23    9.999   .     S
V22     Er52    10.0   .     S
V22     Ti24    10.0   .     S
V22     V63    10.001   .     S
V23     Er27    10.0   .     S
V23     V34    10.001   .     S
Ti24     Er52    10.0   .     S
Er25     Er26    9.999   1_655     S
Er26     Er25    9.999   1_455     S
Er26     V31    10.0   .     S
Er26     Ti29    10.0   .     S
Er27     Er28    9.999   .     S
Er28     V34    10.0   .     S
Er28     Ti36    10.0   .     S
Ti29     V31    10.0   .     S
Ti29     Ti33    10.0   .     S
Ti29     Ti32    10.0   .     S
V30     V31    9.999   .     S
V30     Er38    10.0   .     S
V30     Ti32    10.0   .     S
V30     V43    10.001   1_545     S
V31     V19    10.001   1_455     S
Ti32     Er38    10.0   .     S
Ti32     Ti36    10.0   .     S
Ti33     Er40    10.0   .     S
Ti33     V35    10.0   .     S
Ti33     Ti36    10.0   .     S
V34     V35    9.999   .     S
V34     Ti36    10.0   .     S
V35     Er40    10.0   .     S
V35     V47    10.001   .     S
Er37     Er38    9.999   1_565     S
Er37     V43    10.0   .     S
Er37     Ti44    10.0   .     S
Er38     Er37    9.999   1_545     S
Er39     Er40    9.999   .     S
Er39     V47    10.0   .     S
Er39     Ti45    10.0   .     S
Ti41     Er50    10.0   .     S
Ti41     V42    10.0   .     S
Ti41     Ti45    10.0   .     S
Ti41     Ti44    10.0   .     S
V42     Er50    10.0   .     S
V42     V43    9.999   .     S
V42     V59    10.001   1_455     S
V43     Ti44    10.0   .     S
V43     V30    10.001   1_565     S
Ti44     Ti48    10.0   .     S
Ti45     V47    10.0   .     S
Ti45     Ti48    10.0   .     S
V46     V47    9.999   .     S
V46     Er54    10.0   .     S
V46     Ti48    10.0   .     S
V46     V62    10.001   .     S
Ti48     Er54    10.0   .     S
Er49     Er50    9.999   1_655     S
Er49     V59    10.0   .     S
Er49     Ti57    10.0   .     S
Er50     Er49    9.999   1_455     S
Er51     Er52    9.999   .     S
Er51     V63    10.0   .     S
Er51     Ti61    10.0   .     S
Er53     Er54    9.999   .     S
Er53     V62    10.0   .     S
Er53     Ti64    10.0   .     S
Er55     Er56    9.999   1_565     S
Er55     V58    10.0   .     S
Er55     Ti60    10.0   .     S
Er56     Er55    9.999   1_545     S
Ti57     V59    10.0   .     S
Ti57     Ti61    10.0   .     S
Ti57     Ti60    10.0   .     S
V58     V59    9.999   .     S
V58     Ti60    10.0   .     S
V58     V18    10.001   1_565     S
V59     V42    10.001   1_655     S
Ti60     Ti64    10.0   .     S
Ti61     V63    10.0   .     S
Ti61     Ti64    10.0   .     S
V62     V63    9.999   .     S
V62     Ti64    10.0   .     S
Ce65     Er119    10.0   .     S
Ce65     Ce67    10.001   1_655     S
Ce65     Ce71    10.001   .     S
Ce66     Er118    10.0   .     S
Ce66     Ce68    10.001   1_545     S
Ce66     Ce72    10.001   .     S
Ce67     Er120    10.0   .     S
Ce67     Ce65    10.001   1_455     S
Ce67     Ce69    10.001   .     S
Ce68     Er117    10.0   .     S
Ce68     Ce66    10.001   1_565     S
Ce68     Ce70    10.001   .     S
Ce69     Er108    10.0   .     S
Ce69     Ce71    10.001   1_455     S
Ce70     Er97    10.0   .     S
Ce70     Ce72    10.001   1_565     S
Ce71     Er107    10.0   .     S
Ce71     Ce69    10.001   1_655     S
Ce72     Er98    10.0   .     S
Ce72     Ce70    10.001   1_545     S
Ce73     Er86    10.0   .     S
Ce73     Ce7    10.0   1_554     S
Ce73     Ce79    10.001   1_545     S
Ce73     Ce75    10.001   .     S
Ce74     Er87    10.0   .     S
Ce74     Ce8    10.0   1_554     S
Ce74     Ce80    10.001   1_455     S
Ce74     Ce76    10.001   .     S
Ce75     Er85    10.0   .     S
Ce75     Ce5    10.0   1_554     S
Ce75     Ce77    10.001   1_545     S
Ce76     Er88    10.0   .     S
Ce76     Ce6    10.0   1_554     S
Ce76     Ce78    10.001   1_455     S
Ce77     Er81    10.0   .     S
Ce77     Ce14    10.0   1_554     S
Ce77     Ce75    10.001   1_565     S
Ce77     Ce79    10.001   .     S
Ce78     Er84    10.0   .     S
Ce78     Ce15    10.0   1_554     S
Ce78     Ce76    10.001   1_655     S
Ce78     Ce80    10.001   .     S
Ce79     Er82    10.0   .     S
Ce79     Ce12    10.0   1_554     S
Ce79     Ce73    10.001   1_565     S
Ce80     Er83    10.0   .     S
Ce80     Ce13    10.0   1_554     S
Ce80     Ce74    10.001   1_655     S
Er81     Er82    9.999   .     S
Er81     V101    10.0   .     S
Er81     Ti99    10.0   .     S
Er82     V114    10.0   .     S
Er82     Ti116    10.0   .     S
Er83     Er84    9.999   .     S
Er83     V100    10.0   .     S
Er83     Ti102    10.0   .     S
Er84     V94    10.0   .     S
Er84     Ti96    10.0   .     S
Er85     Er86    9.999   .     S
Er85     V95    10.0   .     S
Er85     Ti93    10.0   .     S
Er86     V123    10.0   .     S
Er86     Ti121    10.0   .     S
Er87     Er88    9.999   .     S
Er87     V115    10.0   .     S
Er87     Ti113    10.0   .     S
Er88     V122    10.0   .     S
Er88     Ti124    10.0   .     S
Ti89     Er98    10.0   .     S
Ti89     V90    10.0   .     S
Ti89     Ti93    10.0   .     S
Ti89     Ti92    10.0   .     S
V90     Er98    10.0   .     S
V90     V91    9.999   .     S
V90     V105    10.001   1_545     S
V91     Er119    10.0   .     S
V91     Ti92    10.0   .     S
V91     V126    10.001   1_655     S
Ti92     Er119    10.0   .     S
Ti92     Ti96    10.0   .     S
Ti93     V95    10.0   .     S
Ti93     Ti96    10.0   .     S
V94     V95    9.999   .     S
V94     Ti96    10.0   .     S
V94     V100    10.001   .     S
V95     V123    10.001   .     S
Er97     Er98    9.999   1_565     S
Er97     V105    10.0   .     S
Er97     Ti103    10.0   .     S
Er98     Er97    9.999   1_545     S
Ti99     V101    10.0   .     S
Ti99     Ti103    10.0   .     S
Ti99     Ti102    10.0   .     S
V100     V101    9.999   .     S
V100     Ti102    10.0   .     S
V101     V114    10.001   .     S
Ti102     Ti106    10.0   .     S
Ti103     V105    10.0   .     S
Ti103     Ti106    10.0   .     S
V104     V105    9.999   .     S
V104     Er107    10.0   .     S
V104     Ti106    10.0   .     S
V104     V110    10.001   1_655     S
V105     V90    10.001   1_565     S
Ti106     Er107    10.0   .     S
Er107     Er108    9.999   1_655     S
Er108     Er107    9.999   1_455     S
Er108     V110    10.0   .     S
Er108     Ti109    10.0   .     S
Ti109     V110    10.0   .     S
Ti109     Ti113    10.0   .     S
Ti109     Ti112    10.0   .     S
V110     V111    9.999   .     S
V110     V104    10.001   1_455     S
V111     Er117    10.0   .     S
V111     Ti112    10.0   .     S
V111     V127    10.001   1_565     S
Ti112     Er117    10.0   .     S
Ti112     Ti116    10.0   .     S
Ti113     V115    10.0   .     S
Ti113     Ti116    10.0   .     S
V114     V115    9.999   .     S
V114     Ti116    10.0   .     S
V115     V122    10.001   .     S
Er117     Er118    9.999   1_565     S
Er118     Er117    9.999   1_545     S
Er118     V127    10.0   .     S
Er118     Ti125    10.0   .     S
Er119     Er120    9.999   1_655     S
Er120     Er119    9.999   1_455     S
Er120     V126    10.0   .     S
Er120     Ti128    10.0   .     S
Ti121     V123    10.0   .     S
Ti121     Ti125    10.0   .     S
Ti121     Ti124    10.0   .     S
V122     V123    9.999   .     S
V122     Ti124    10.0   .     S
Ti124     Ti128    10.0   .     S
Ti125     V127    10.0   .     S
Ti125     Ti128    10.0   .     S
V126     V127    9.999   .     S
V126     Ti128    10.0   .     S
V126     V91    10.001   1_455     S
V127     V111    10.001   1_545     S
