data_pse
_audit_creation_date              2020-02-02
_audit_creation_method            'Pymatgen'
_symmetry_space_group_name_H-M    'P1'
_symmetry_Int_Tables_number       1
loop_
_symmetry_equiv_pos_as_xyz
  x,y,z
_cell_length_a                    47.5577
_cell_length_b                    47.5577
_cell_length_c                    28.5978
_cell_angle_alpha                 90.0
_cell_angle_beta                 90.0
_cell_angle_gamma                 90.0
loop_
_atom_site_label
_atom_site_type_symbol
_atom_site_fract_x
_atom_site_fract_y
_atom_site_fract_z
Ce1     Ce     0.115   0.8305   0.2209
Er2     Er     0.2721   0.874   0.0
Ce3     Ce     0.115   0.8305   0.7791
Ce4     Ce     0.3305   0.615   0.7209
Er5     Er     0.374   0.7721   0.5
Ce6     Ce     0.3305   0.615   0.2791
Ce7     Ce     0.885   0.1695   0.7791
Ce8     Ce     0.885   0.1695   0.2209
Er9     Er     0.7279   0.126   0.0
Ti10     Ti     0.6211   0.8789   0.75
S11     S     0.4137   0.9137   0.75
S12     S     0.5863   0.0863   0.75
Ti13     Ti     0.3789   0.1211   0.75
Ti14     Ti     0.6211   0.8789   0.25
S15     S     0.4137   0.9137   0.25
Ti16     Ti     0.3789   0.1211   0.25
S17     S     0.5863   0.0863   0.25
Ce18     Ce     0.6695   0.385   0.2791
Er19     Er     0.626   0.2279   0.5
Ce20     Ce     0.6695   0.385   0.7209
V21     V     0.1387   0.955   0.5
V22     V     0.8613   0.045   0.5
V23     V     0.545   0.3613   0.0
V24     V     0.455   0.6387   0.0
Ce25     Ce     0.8305   0.885   0.7209
Ce26     Ce     0.8305   0.885   0.2791
Er27     Er     0.874   0.7279   0.5
Ce28     Ce     0.615   0.6695   0.7791
Ce29     Ce     0.615   0.6695   0.2209
Er30     Er     0.7721   0.626   0.0
Ce31     Ce     0.1695   0.115   0.7209
Ce32     Ce     0.1695   0.115   0.2791
Er33     Er     0.126   0.2721   0.5
Ti34     Ti     0.8789   0.3789   0.75
Ti35     Ti     0.1211   0.6211   0.75
S36     S     0.9137   0.5863   0.75
S37     S     0.0863   0.4137   0.75
Ti38     Ti     0.8789   0.3789   0.25
Ti39     Ti     0.1211   0.6211   0.25
S40     S     0.9137   0.5863   0.25
S41     S     0.0863   0.4137   0.25
Ce42     Ce     0.385   0.3305   0.2209
Er43     Er     0.2279   0.374   0.0
Ce44     Ce     0.385   0.3305   0.7791
V45     V     0.955   0.8613   0.0
V46     V     0.6387   0.545   0.5
V47     V     0.3613   0.455   0.5
V48     V     0.045   0.1387   0.0
loop_
_geom_bond_atom_site_label_1
_geom_bond_atom_site_label_2
_geom_bond_distance
_geom_bond_site_symmetry_2
_ccdc_geom_bond_type
Ce1     V21    10.0   .     S
Ce1     Er2    10.0   .     S
Ce1     V45    10.0   1_455     S
Ce1     Ti39    10.0   .     S
Er2     S11    10.0   1_554     S
Er2     S15    10.0   .     S
Er2     Ce3    10.0   1_554     S
Ce3     V21    10.0   .     S
Ce3     Er2    10.0   1_556     S
Ce3     V45    10.0   1_456     S
Ce3     Ti35    10.0   .     S
Ce4     V24    10.0   1_556     S
Ce4     Er5    10.0   .     S
Ce4     V47    10.0   .     S
Ce4     Ti35    10.0   .     S
Er5     S11    10.0   .     S
Er5     S15    10.0   .     S
Er5     Ce6    10.0   .     S
Ce6     V24    10.0   .     S
Ce6     V47    10.0   .     S
Ce6     Ti39    10.0   .     S
Ce7     V22    10.0   .     S
Ce7     Er9    10.0   1_556     S
Ce7     V48    10.0   1_656     S
Ce7     Ti34    10.0   .     S
Ce8     V22    10.0   .     S
Ce8     Er9    10.0   .     S
Ce8     V48    10.0   1_655     S
Ce8     Ti38    10.0   .     S
Er9     S17    10.0   .     S
Er9     S12    10.0   1_554     S
Er9     Ce7    10.0   1_554     S
Ti10     S11    10.0   .     S
Ti10     S12    10.0   1_565     S
Ti10     Ce28    10.0   .     S
Ti10     Ce25    10.0   .     S
S11     Er2    10.0   1_556     S
S11     Ti13    10.0   1_565     S
S12     Er9    10.0   1_556     S
S12     Ti10    10.0   1_545     S
S12     Ti13    10.0   .     S
S12     Er19    10.0   .     S
Ti13     S11    10.0   1_545     S
Ti13     Ce44    10.0   .     S
Ti13     Ce31    10.0   .     S
Ti14     S17    10.0   1_565     S
Ti14     S15    10.0   .     S
Ti14     Ce29    10.0   .     S
Ti14     Ce26    10.0   .     S
S15     Ti16    10.0   1_565     S
Ti16     S15    10.0   1_545     S
Ti16     S17    10.0   .     S
Ti16     Ce42    10.0   .     S
Ti16     Ce32    10.0   .     S
S17     Ti14    10.0   1_545     S
S17     Er19    10.0   .     S
Ce18     V23    10.0   .     S
Ce18     Er19    10.0   .     S
Ce18     V46    10.0   .     S
Ce18     Ti38    10.0   .     S
Er19     Ce20    10.0   .     S
Ce20     V23    10.0   1_556     S
Ce20     V46    10.0   .     S
Ce20     Ti34    10.0   .     S
V21     Ce32    10.0   1_565     S
V21     Ce31    10.0   1_565     S
V22     Ce26    10.0   1_545     S
V22     Ce25    10.0   1_545     S
V23     Ce20    10.0   1_554     S
V23     Ce42    10.0   .     S
V23     Ce44    10.0   1_554     S
V24     Ce4    10.0   1_554     S
V24     Ce28    10.0   1_554     S
V24     Ce29    10.0   .     S
Ce25     V45    10.0   1_556     S
Ce25     Er27    10.0   .     S
Ce25     V22    10.0   1_565     S
Ce26     V45    10.0   .     S
Ce26     Er27    10.0   .     S
Ce26     V22    10.0   1_565     S
Er27     S36    10.0   .     S
Er27     S40    10.0   .     S
Ce28     V24    10.0   1_556     S
Ce28     V46    10.0   .     S
Ce28     Er30    10.0   1_556     S
Ce29     V46    10.0   .     S
Ce29     Er30    10.0   .     S
Er30     S40    10.0   .     S
Er30     S36    10.0   1_554     S
Er30     Ce28    10.0   1_554     S
Ce31     V48    10.0   1_556     S
Ce31     Er33    10.0   .     S
Ce31     V21    10.0   1_545     S
Ce32     V48    10.0   .     S
Ce32     Er33    10.0   .     S
Ce32     V21    10.0   1_545     S
Er33     S37    10.0   .     S
Er33     S41    10.0   .     S
Ti34     S37    10.0   1_655     S
Ti34     S36    10.0   .     S
Ti35     S37    10.0   .     S
Ti35     S36    10.0   1_455     S
S36     Er30    10.0   1_556     S
S36     Ti35    10.0   1_655     S
S37     Ti34    10.0   1_455     S
S37     Er43    10.0   1_556     S
Ti38     S41    10.0   1_655     S
Ti38     S40    10.0   .     S
Ti39     S41    10.0   .     S
Ti39     S40    10.0   1_455     S
S40     Ti39    10.0   1_655     S
S41     Ti38    10.0   1_455     S
S41     Er43    10.0   .     S
Ce42     V47    10.0   .     S
Ce42     Er43    10.0   .     S
Er43     S37    10.0   1_554     S
Er43     Ce44    10.0   1_554     S
Ce44     V47    10.0   .     S
Ce44     Er43    10.0   1_556     S
Ce44     V23    10.0   1_556     S
V45     Ce1    10.0   1_655     S
V45     Ce3    10.0   1_654     S
V45     Ce25    10.0   1_554     S
V48     Ce8    10.0   1_455     S
V48     Ce7    10.0   1_454     S
V48     Ce31    10.0   1_554     S
