data_psp
_audit_creation_date              2020-02-02
_audit_creation_method            'Pymatgen'
_symmetry_space_group_name_H-M    'P1'
_symmetry_Int_Tables_number       1
loop_
_symmetry_equiv_pos_as_xyz
  x,y,z
_cell_length_a                    14.0971
_cell_length_b                    14.0971
_cell_length_c                    28.5534
_cell_angle_alpha                 90.0
_cell_angle_beta                 90.0
_cell_angle_gamma                 90.0
loop_
_atom_site_label
_atom_site_type_symbol
_atom_site_fract_x
_atom_site_fract_y
_atom_site_fract_z
Er1     Er     0.0   0.5   0.5
V2     V     0.0   0.0   0.75
Ti3     Ti     0.5   0.5   0.75
Er4     Er     0.5   0.0   0.0
V5     V     0.0   0.0   0.25
Ti6     Ti     0.5   0.5   0.25
loop_
_geom_bond_atom_site_label_1
_geom_bond_atom_site_label_2
_geom_bond_distance
_geom_bond_site_symmetry_2
_ccdc_geom_bond_type
Er1     Ti3    10.032   1_455     S
Er1     Ti6    10.032   1_455     S
Er1     Ti6    10.032   .     S
Er1     Ti3    10.032   .     S
V2     Ti3    9.968   1_445     S
V2     Ti3    9.968   .     S
V2     Ti3    9.968   1_455     S
V2     Ti3    9.968   1_545     S
Ti3     V2    9.968   1_665     S
Ti3     V2    9.968   1_655     S
Ti3     V2    9.968   1_565     S
Ti3     Er1    10.032   1_655     S
Ti3     Er4    10.032   1_566     S
Ti3     Er4    10.032   1_556     S
Er4     Ti3    10.032   1_544     S
Er4     Ti3    10.032   1_554     S
Er4     Ti6    10.032   1_545     S
Er4     Ti6    10.032   .     S
V5     Ti6    9.968   1_445     S
V5     Ti6    9.968   .     S
V5     Ti6    9.968   1_545     S
V5     Ti6    9.968   1_455     S
Ti6     V5    9.968   1_665     S
Ti6     V5    9.968   1_565     S
Ti6     V5    9.968   1_655     S
Ti6     Er1    10.032   1_655     S
Ti6     Er4    10.032   1_565     S
