data_ptha
_audit_creation_date              2020-02-02
_audit_creation_method            'Pymatgen'
_symmetry_space_group_name_H-M    'P1'
_symmetry_Int_Tables_number       1
loop_
_symmetry_equiv_pos_as_xyz
  x,y,z
_cell_length_a                    36.3265
_cell_length_b                    36.3265
_cell_length_c                    83.7019
_cell_angle_alpha                 90.0
_cell_angle_beta                 90.0
_cell_angle_gamma                 120.0
loop_
_atom_site_label
_atom_site_type_symbol
_atom_site_fract_x
_atom_site_fract_y
_atom_site_fract_z
V1     V     0.8876   0.0411   0.1244
V2     V     0.1124   0.9589   0.1244
V3     V     0.8465   0.9589   0.8756
V4     V     0.1535   0.0411   0.8756
Er5     Er     0.6431   0.0117   0.0596
Er6     Er     0.6314   0.9883   0.9404
Er7     Er     0.3569   0.9883   0.0596
Er8     Er     0.3686   0.0117   0.9404
V9     V     0.9589   0.8465   0.7911
V10     V     0.0411   0.1535   0.7911
Er11     Er     0.0117   0.3686   0.7262
Er12     Er     0.9883   0.6314   0.7262
V13     V     0.0411   0.8876   0.5422
V14     V     0.9589   0.1124   0.5422
Er15     Er     0.9883   0.3569   0.6071
Er16     Er     0.0117   0.6431   0.6071
V17     V     0.8465   0.8876   0.4578
V18     V     0.1535   0.1124   0.4578
Er19     Er     0.3686   0.3569   0.3929
Er20     Er     0.6314   0.6431   0.3929
V21     V     0.8876   0.8465   0.2089
V22     V     0.1124   0.1535   0.2089
Er23     Er     0.3569   0.3686   0.2738
Er24     Er     0.6431   0.6314   0.2738
loop_
_geom_bond_atom_site_label_1
_geom_bond_atom_site_label_2
_geom_bond_distance
_geom_bond_site_symmetry_2
_ccdc_geom_bond_type
V1     Er5    10.0   .     S
V1     V2    10.0   1_645     S
V1     V22    10.0   1_655     S
V1     V21    10.001   1_545     S
V2     Er7    10.0   .     S
V2     V1    10.0   1_465     S
V2     V21    10.0   1_455     S
V2     V22    10.001   1_565     S
V3     Er6    10.0   .     S
V3     V9    10.0   .     S
V3     V10    10.001   1_665     S
V3     V4    10.0   1_665     S
V4     V3    10.0   1_445     S
V4     V9    10.001   1_445     S
V4     Er8    10.0   .     S
V4     V10    10.0   .     S
Er5     Er6    10.0   1_544     S
Er5     Er7    10.0   1_545     S
Er6     Er5    10.0   1_566     S
Er6     Er8    10.0   1_565     S
Er7     Er8    10.0   1_564     S
Er7     Er5    10.0   1_565     S
Er8     Er7    10.0   1_546     S
Er8     Er6    10.0   1_545     S
V9     V4    10.001   1_665     S
V9     Er12    10.0   .     S
V9     V10    10.0   1_665     S
V10     V3    10.001   1_445     S
V10     Er11    10.0   .     S
V10     V9    10.0   1_445     S
Er11     Er12    10.0   1_455     S
Er11     Er15    10.0   1_455     S
Er12     Er11    10.0   1_655     S
Er12     Er16    10.0   1_655     S
V13     Er16    10.0   .     S
V13     V18    10.0   1_565     S
V13     V14    10.0   1_465     S
V13     V17    10.001   1_455     S
V14     Er15    10.0   .     S
V14     V17    10.0   1_545     S
V14     V18    10.001   1_655     S
V14     V13    10.0   1_645     S
Er15     Er11    10.0   1_655     S
Er15     Er16    10.0   1_655     S
Er16     Er12    10.0   1_455     S
Er16     Er15    10.0   1_455     S
V17     V14    10.0   1_565     S
V17     V13    10.001   1_655     S
V17     Er20    10.0   .     S
V17     V18    10.0   1_665     S
V18     V13    10.0   1_545     S
V18     V14    10.001   1_455     S
V18     Er19    10.0   .     S
V18     V17    10.0   1_445     S
Er19     Er20    10.0   .     S
Er19     Er23    10.0   .     S
Er20     Er24    10.0   .     S
V21     Er24    10.0   .     S
V21     V2    10.0   1_655     S
V21     V22    10.0   1_665     S
V21     V1    10.001   1_565     S
V22     Er23    10.0   .     S
V22     V1    10.0   1_455     S
V22     V2    10.001   1_545     S
V22     V21    10.0   1_445     S
Er23     Er24    10.0   .     S
