data_ptia
_audit_creation_date              2020-02-02
_audit_creation_method            'Pymatgen'
_symmetry_space_group_name_H-M    'P1'
_symmetry_Int_Tables_number       1
loop_
_symmetry_equiv_pos_as_xyz
  x,y,z
_cell_length_a                    109.5615
_cell_length_b                    69.9313
_cell_length_c                    34.6134
_cell_angle_alpha                 90.0
_cell_angle_beta                 90.0
_cell_angle_gamma                 90.0
loop_
_atom_site_label
_atom_site_type_symbol
_atom_site_fract_x
_atom_site_fract_y
_atom_site_fract_z
Ce1     Ce     0.2152   0.3215   0.8435
Ce2     Ce     0.2848   0.3215   0.6565
Ce3     Ce     0.2848   0.1785   0.6565
Ce4     Ce     0.2152   0.1785   0.8435
V5     V     0.6059   0.0165   0.3596
Er6     Er     0.6705   0.9305   0.4663
V7     V     0.6059   0.9835   0.6404
Er8     Er     0.6705   0.0695   0.5337
V9     V     0.3941   0.0165   0.3596
Er10     Er     0.3295   0.9305   0.4663
V11     V     0.3941   0.9835   0.6404
Er12     Er     0.3295   0.0695   0.5337
Ti13     Ti     0.5456   0.0032   0.1443
Ti14     Ti     0.4544   0.0032   0.1443
Ti15     Ti     0.5456   0.9968   0.8557
Ti16     Ti     0.4544   0.9968   0.8557
Ce17     Ce     0.2152   0.8215   0.1565
Ce18     Ce     0.2848   0.8215   0.3435
Ce19     Ce     0.2848   0.6785   0.3435
Ce20     Ce     0.2152   0.6785   0.1565
V21     V     0.6059   0.4835   0.3596
Er22     Er     0.6705   0.5695   0.4663
V23     V     0.6059   0.5165   0.6404
Er24     Er     0.6705   0.4305   0.5337
V25     V     0.3941   0.4835   0.3596
Er26     Er     0.3295   0.5695   0.4663
V27     V     0.3941   0.5165   0.6404
Er28     Er     0.3295   0.4305   0.5337
Ti29     Ti     0.5456   0.4968   0.1443
Ti30     Ti     0.4544   0.4968   0.1443
Ti31     Ti     0.5456   0.5032   0.8557
Ti32     Ti     0.4544   0.5032   0.8557
Ce33     Ce     0.7152   0.6785   0.3435
Ce34     Ce     0.7848   0.6785   0.1565
Ce35     Ce     0.7152   0.8215   0.3435
Ce36     Ce     0.7848   0.8215   0.1565
V37     V     0.8941   0.4835   0.1404
Er38     Er     0.8295   0.5695   0.0337
V39     V     0.8941   0.5165   0.8596
Er40     Er     0.8295   0.4305   0.9663
V41     V     0.1059   0.4835   0.1404
Er42     Er     0.1705   0.5695   0.0337
V43     V     0.1059   0.5165   0.8596
Er44     Er     0.1705   0.4305   0.9663
Ti45     Ti     0.9544   0.4968   0.3557
Ti46     Ti     0.0456   0.4968   0.3557
Ti47     Ti     0.9544   0.5032   0.6443
Ti48     Ti     0.0456   0.5032   0.6443
Ce49     Ce     0.7152   0.1785   0.6565
Ce50     Ce     0.7848   0.1785   0.8435
Ce51     Ce     0.7152   0.3215   0.6565
Ce52     Ce     0.7848   0.3215   0.8435
V53     V     0.8941   0.0165   0.1404
Er54     Er     0.8295   0.9305   0.0337
V55     V     0.8941   0.9835   0.8596
Er56     Er     0.8295   0.0695   0.9663
V57     V     0.1059   0.0165   0.1404
Er58     Er     0.1705   0.9305   0.0337
V59     V     0.1059   0.9835   0.8596
Er60     Er     0.1705   0.0695   0.9663
Ti61     Ti     0.9544   0.0032   0.3557
Ti62     Ti     0.0456   0.0032   0.3557
Ti63     Ti     0.9544   0.9968   0.6443
Ti64     Ti     0.0456   0.9968   0.6443
loop_
_geom_bond_atom_site_label_1
_geom_bond_atom_site_label_2
_geom_bond_distance
_geom_bond_site_symmetry_2
_ccdc_geom_bond_type
Ce1     Ce2    10.001   .     S
Ce1     Ce4    10.004   .     S
Ce1     Er44    10.008   .     S
Ce2     Ce3    10.004   .     S
Ce2     Er28    10.008   .     S
Ce3     Ce4    10.001   .     S
Ce3     Er12    10.008   .     S
Ce4     Er60    10.008   .     S
V5     Er6    9.992   1_545     S
V5     Er8    10.0   .     S
V5     V7    9.992   1_545     S
V5     Ti13    10.003   .     S
Er6     V5    9.992   1_565     S
Er6     Er8    9.999   1_565     S
Er6     V7    10.0   .     S
Er6     Ce35    10.008   .     S
V7     V5    9.992   1_565     S
V7     Er8    9.992   1_565     S
V7     Ti15    10.003   .     S
Er8     Er6    9.999   1_545     S
Er8     V7    9.992   1_545     S
Er8     Ce49    10.008   .     S
V9     Er10    9.992   1_545     S
V9     Er12    10.0   .     S
V9     V11    9.992   1_545     S
V9     Ti14    10.003   .     S
Er10     V9    9.992   1_565     S
Er10     Er12    9.999   1_565     S
Er10     V11    10.0   .     S
Er10     Ce18    10.008   .     S
V11     V9    9.992   1_565     S
V11     Er12    9.992   1_565     S
V11     Ti16    10.003   .     S
Er12     Er10    9.999   1_545     S
Er12     V11    9.992   1_545     S
Ti13     Ti14    9.999   .     S
Ti13     Ti15    9.999   1_544     S
Ti14     Ti16    9.999   1_544     S
Ti15     Ti16    9.999   .     S
Ti15     Ti13    9.999   1_566     S
Ti16     Ti14    9.999   1_566     S
Ce17     Ce18    10.001   .     S
Ce17     Ce20    10.004   .     S
Ce17     Er58    10.008   .     S
Ce18     Ce19    10.004   .     S
Ce19     Ce20    10.001   .     S
Ce19     Er26    10.008   .     S
Ce20     Er42    10.008   .     S
V21     Er22    9.992   .     S
V21     Er24    10.0   .     S
V21     V23    9.992   .     S
V21     Ti29    10.003   .     S
Er22     Er24    9.999   .     S
Er22     V23    10.0   .     S
Er22     Ce33    10.008   .     S
V23     Er24    9.992   .     S
V23     Ti31    10.003   .     S
Er24     Ce51    10.008   .     S
V25     Er26    9.992   .     S
V25     Er28    10.0   .     S
V25     V27    9.992   .     S
V25     Ti30    10.003   .     S
Er26     V27    10.0   .     S
Er26     Er28    9.999   .     S
V27     Er28    9.992   .     S
V27     Ti32    10.003   .     S
Ti29     Ti30    9.999   .     S
Ti29     Ti31    9.999   1_554     S
Ti30     Ti32    9.999   1_554     S
Ti31     Ti32    9.999   .     S
Ti31     Ti29    9.999   1_556     S
Ti32     Ti30    9.999   1_556     S
Ce33     Ce34    10.001   .     S
Ce33     Ce35    10.004   .     S
Ce34     Ce36    10.004   .     S
Ce34     Er38    10.008   .     S
Ce35     Ce36    10.001   .     S
Ce36     Er54    10.008   .     S
V37     Er38    9.992   .     S
V37     Er40    10.0   1_554     S
V37     V39    9.992   1_554     S
V37     Ti45    10.003   .     S
Er38     Er40    9.999   1_554     S
Er38     V39    10.0   1_554     S
V39     V37    9.992   1_556     S
V39     Er38    10.0   1_556     S
V39     Er40    9.992   .     S
V39     Ti47    10.003   .     S
Er40     Er38    9.999   1_556     S
Er40     V37    10.0   1_556     S
Er40     Ce52    10.008   .     S
V41     Er42    9.992   .     S
V41     Er44    10.0   1_554     S
V41     V43    9.992   1_554     S
V41     Ti46    10.003   .     S
Er42     Er44    9.999   1_554     S
Er42     V43    10.0   1_554     S
V43     V41    9.992   1_556     S
V43     Er42    10.0   1_556     S
V43     Er44    9.992   .     S
V43     Ti48    10.003   .     S
Er44     V41    10.0   1_556     S
Er44     Er42    9.999   1_556     S
Ti45     Ti46    9.999   1_655     S
Ti45     Ti47    9.999   .     S
Ti46     Ti45    9.999   1_455     S
Ti46     Ti48    9.999   .     S
Ti47     Ti48    9.999   1_655     S
Ti48     Ti47    9.999   1_455     S
Ce49     Ce50    10.001   .     S
Ce49     Ce51    10.004   .     S
Ce50     Ce52    10.004   .     S
Ce50     Er56    10.008   .     S
Ce51     Ce52    10.001   .     S
V53     Er54    9.992   1_545     S
V53     Er56    10.0   1_554     S
V53     V55    9.992   1_544     S
V53     Ti61    10.003   .     S
Er54     V53    9.992   1_565     S
Er54     Er56    9.999   1_564     S
Er54     V55    10.0   1_554     S
V55     V53    9.992   1_566     S
V55     Er54    10.0   1_556     S
V55     Er56    9.992   1_565     S
V55     Ti63    10.003   .     S
Er56     Er54    9.999   1_546     S
Er56     V53    10.0   1_556     S
Er56     V55    9.992   1_545     S
V57     Er58    9.992   1_545     S
V57     Er60    10.0   1_554     S
V57     V59    9.992   1_544     S
V57     Ti62    10.003   .     S
Er58     V57    9.992   1_565     S
Er58     Er60    9.999   1_564     S
Er58     V59    10.0   1_554     S
V59     V57    9.992   1_566     S
V59     Er58    10.0   1_556     S
V59     Er60    9.992   1_565     S
V59     Ti64    10.003   .     S
Er60     V57    10.0   1_556     S
Er60     Er58    9.999   1_546     S
Er60     V59    9.992   1_545     S
Ti61     Ti62    9.999   1_655     S
Ti61     Ti63    9.999   1_545     S
Ti62     Ti61    9.999   1_455     S
Ti62     Ti64    9.999   1_545     S
Ti63     Ti64    9.999   1_655     S
Ti63     Ti61    9.999   1_565     S
Ti64     Ti63    9.999   1_455     S
Ti64     Ti62    9.999   1_565     S
