data_ptr
_audit_creation_date              2020-02-02
_audit_creation_method            'Pymatgen'
_symmetry_space_group_name_H-M    'P1'
_symmetry_Int_Tables_number       1
loop_
_symmetry_equiv_pos_as_xyz
  x,y,z
_cell_length_a                    49.2866
_cell_length_b                    49.2866
_cell_length_c                    35.4041
_cell_angle_alpha                 90.0
_cell_angle_beta                 90.0
_cell_angle_gamma                 120.0
loop_
_atom_site_label
_atom_site_type_symbol
_atom_site_fract_x
_atom_site_fract_y
_atom_site_fract_z
Er1     Er     0.508   0.0161   0.8025
Er2     Er     0.492   0.9839   0.1975
V3     V     0.3556   0.0   0.0
V4     V     0.6444   0.0   0.0
Er5     Er     0.8253   0.6506   0.8641
Er6     Er     0.8414   0.6828   0.4692
V7     V     0.6889   0.6667   0.6667
V8     V     0.9777   0.6667   0.6667
Er9     Er     0.1747   0.3494   0.1359
Er10     Er     0.1586   0.3172   0.5308
V11     V     0.0223   0.3333   0.3333
V12     V     0.3111   0.3333   0.3333
Er13     Er     0.8253   0.1747   0.8641
Er14     Er     0.8414   0.1586   0.4692
V15     V     0.6889   0.0223   0.6667
V16     V     0.9777   0.3111   0.6667
Er17     Er     0.492   0.508   0.1975
Er18     Er     0.508   0.492   0.8025
V19     V     0.6444   0.6444   0.0
V20     V     0.3556   0.3556   0.0
Er21     Er     0.6506   0.8253   0.1359
Er22     Er     0.6828   0.8414   0.5308
V23     V     0.6667   0.6889   0.3333
V24     V     0.6667   0.9777   0.3333
Er25     Er     0.9839   0.492   0.8025
V26     V     0.0   0.6444   0.0
Er27     Er     0.0161   0.508   0.1975
V28     V     0.0   0.3556   0.0
Er29     Er     0.1747   0.8253   0.1359
Er30     Er     0.1586   0.8414   0.5308
V31     V     0.0223   0.6889   0.3333
V32     V     0.3111   0.9777   0.3333
Er33     Er     0.3494   0.1747   0.8641
Er34     Er     0.3172   0.1586   0.4692
V35     V     0.3333   0.0223   0.6667
V36     V     0.3333   0.3111   0.6667
loop_
_geom_bond_atom_site_label_1
_geom_bond_atom_site_label_2
_geom_bond_distance
_geom_bond_site_symmetry_2
_ccdc_geom_bond_type
Er1     V3    10.0   1_556     S
Er1     V4    10.0   1_556     S
Er1     V35    10.0   .     S
Er1     V15    10.0   .     S
Er2     V4    10.0   1_565     S
Er2     V3    10.0   1_565     S
Er2     V32    10.0   .     S
Er2     V24    10.0   .     S
V3     Er1    10.0   1_554     S
V3     Er2    10.0   1_545     S
V3     Er29    10.0   1_545     S
V3     Er33    10.0   1_554     S
V4     Er1    10.0   1_554     S
V4     Er2    10.0   1_545     S
V4     Er13    10.0   1_554     S
V4     Er21    10.0   1_545     S
Er5     V7    10.0   .     S
Er5     V19    10.0   1_556     S
Er5     V8    10.0   .     S
Er5     V26    10.0   1_656     S
Er6     V7    10.0   .     S
Er6     V23    10.0   .     S
Er6     V8    10.0   .     S
Er6     V31    10.0   1_655     S
V7     Er18    10.0   .     S
V7     Er22    10.0   .     S
V8     Er25    10.0   .     S
V8     Er30    10.0   1_655     S
Er9     V11    10.0   .     S
Er9     V28    10.0   .     S
Er9     V12    10.0   .     S
Er9     V20    10.0   .     S
Er10     V11    10.0   .     S
Er10     V12    10.0   .     S
Er10     V36    10.0   .     S
Er10     V16    10.0   1_455     S
V11     Er14    10.0   1_455     S
V11     Er27    10.0   .     S
V12     Er17    10.0   .     S
V12     Er34    10.0   .     S
Er13     V15    10.0   .     S
Er13     V16    10.0   .     S
Er13     V28    10.0   1_656     S
Er13     V4    10.0   1_556     S
Er14     V16    10.0   .     S
Er14     V15    10.0   .     S
Er14     V11    10.0   1_655     S
Er14     V24    10.0   1_545     S
V15     Er22    10.0   1_545     S
V16     Er10    10.0   1_655     S
V16     Er25    10.0   .     S
Er17     V19    10.0   .     S
Er17     V20    10.0   .     S
Er17     V23    10.0   .     S
Er18     V20    10.0   1_556     S
Er18     V19    10.0   1_556     S
Er18     V36    10.0   .     S
V19     Er5    10.0   1_554     S
V19     Er18    10.0   1_554     S
V19     Er21    10.0   .     S
V20     Er18    10.0   1_554     S
V20     Er33    10.0   1_554     S
Er21     V23    10.0   .     S
Er21     V24    10.0   .     S
Er21     V4    10.0   1_565     S
Er22     V23    10.0   .     S
Er22     V24    10.0   .     S
Er22     V15    10.0   1_565     S
V24     Er14    10.0   1_565     S
Er25     V26    10.0   1_656     S
Er25     V28    10.0   1_656     S
V26     Er5    10.0   1_454     S
V26     Er25    10.0   1_454     S
V26     Er27    10.0   .     S
V26     Er29    10.0   .     S
Er27     V28    10.0   .     S
Er27     V31    10.0   .     S
V28     Er13    10.0   1_454     S
V28     Er25    10.0   1_454     S
Er29     V31    10.0   .     S
Er29     V32    10.0   .     S
Er29     V3    10.0   1_565     S
Er30     V32    10.0   .     S
Er30     V31    10.0   .     S
Er30     V8    10.0   1_455     S
Er30     V35    10.0   1_565     S
V31     Er6    10.0   1_455     S
V32     Er34    10.0   1_565     S
Er33     V35    10.0   .     S
Er33     V3    10.0   1_556     S
Er33     V36    10.0   .     S
Er33     V20    10.0   1_556     S
Er34     V35    10.0   .     S
Er34     V36    10.0   .     S
Er34     V32    10.0   1_545     S
V35     Er30    10.0   1_545     S
