data_pyd
_audit_creation_date              2020-02-02
_audit_creation_method            'Pymatgen'
_symmetry_space_group_name_H-M    'P1'
_symmetry_Int_Tables_number       1
loop_
_symmetry_equiv_pos_as_xyz
  x,y,z
_cell_length_a                    77.2809
_cell_length_b                    77.2809
_cell_length_c                    77.2809
_cell_angle_alpha                 90.0
_cell_angle_beta                 90.0
_cell_angle_gamma                 90.0
loop_
_atom_site_label
_atom_site_type_symbol
_atom_site_fract_x
_atom_site_fract_y
_atom_site_fract_z
V1     V     0.5001   0.5914   0.5001
V2     V     0.5001   0.5001   0.5914
V3     V     0.5914   0.5001   0.5001
V4     V     0.4999   0.4086   0.4999
V5     V     0.4999   0.4999   0.4086
V6     V     0.4086   0.4999   0.4999
V7     V     0.4999   0.7501   0.8414
V8     V     0.5001   0.7499   0.6586
V9     V     0.5914   0.7499   0.7499
V10     V     0.4999   0.8414   0.7501
V11     V     0.5001   0.6586   0.7499
V12     V     0.4086   0.7501   0.7501
V13     V     0.7501   0.8414   0.4999
V14     V     0.7499   0.6586   0.5001
V15     V     0.8414   0.7501   0.4999
V16     V     0.6586   0.7499   0.5001
V17     V     0.7499   0.7499   0.5914
V18     V     0.7501   0.7501   0.4086
V19     V     0.8414   0.4999   0.7501
V20     V     0.7501   0.4999   0.8414
V21     V     0.7499   0.5914   0.7499
V22     V     0.7499   0.5001   0.6586
V23     V     0.6586   0.5001   0.7499
V24     V     0.7501   0.4086   0.7501
V25     V     0.9999   0.8414   0.2501
V26     V     0.0001   0.6586   0.2499
V27     V     0.9086   0.7501   0.2501
V28     V     0.9999   0.7501   0.3414
V29     V     0.0914   0.7499   0.2499
V30     V     0.0001   0.7499   0.1586
V31     V     0.8414   0.9999   0.2501
V32     V     0.7501   0.9999   0.3414
V33     V     0.6586   0.0001   0.2499
V34     V     0.7499   0.0001   0.1586
V35     V     0.7499   0.0914   0.2499
V36     V     0.7501   0.9086   0.2501
Er37     Er     0.947   0.947   0.303
Er38     Er     0.803   0.947   0.447
Er39     Er     0.053   0.553   0.197
Er40     Er     0.553   0.053   0.197
V41     V     0.0001   0.0001   0.5914
V42     V     0.0001   0.0914   0.5001
V43     V     0.0914   0.0001   0.5001
V44     V     0.9086   0.9999   0.4999
V45     V     0.9999   0.9086   0.4999
V46     V     0.9999   0.9999   0.4086
Er47     Er     0.053   0.053   0.697
Er48     Er     0.947   0.803   0.447
Er49     Er     0.803   0.803   0.303
V50     V     0.5914   0.0001   0.0001
V51     V     0.5001   0.0001   0.0914
V52     V     0.5001   0.0914   0.0001
V53     V     0.4999   0.9999   0.9086
V54     V     0.4999   0.9086   0.9999
V55     V     0.4086   0.9999   0.9999
Er56     Er     0.697   0.053   0.053
V57     V     0.0001   0.5914   0.0001
V58     V     0.0914   0.5001   0.0001
V59     V     0.0001   0.5001   0.0914
V60     V     0.9999   0.4999   0.9086
V61     V     0.9086   0.4999   0.9999
V62     V     0.9999   0.4086   0.9999
V63     V     0.2499   0.5914   0.2499
V64     V     0.3414   0.4999   0.2501
V65     V     0.1586   0.5001   0.2499
V66     V     0.2499   0.5001   0.1586
V67     V     0.2501   0.4999   0.3414
V68     V     0.2501   0.4086   0.2501
Er69     Er     0.303   0.447   0.447
Er70     Er     0.447   0.447   0.303
Er71     Er     0.197   0.697   0.197
V72     V     0.2501   0.8414   0.9999
V73     V     0.2499   0.6586   0.0001
V74     V     0.3414   0.7501   0.9999
V75     V     0.2499   0.7499   0.0914
V76     V     0.1586   0.7499   0.0001
V77     V     0.2501   0.7501   0.9086
V78     V     0.1586   0.0001   0.7499
V79     V     0.2499   0.0001   0.6586
V80     V     0.3414   0.9999   0.7501
V81     V     0.2501   0.9999   0.8414
V82     V     0.2499   0.0914   0.7499
V83     V     0.2501   0.9086   0.7501
Er84     Er     0.447   0.947   0.803
Er85     Er     0.303   0.947   0.947
Er86     Er     0.447   0.803   0.947
V87     V     0.2499   0.1586   0.5001
V88     V     0.3414   0.2501   0.4999
V89     V     0.2499   0.2499   0.5914
V90     V     0.2501   0.3414   0.4999
V91     V     0.1586   0.2499   0.5001
V92     V     0.2501   0.2501   0.4086
Er93     Er     0.447   0.303   0.447
Er94     Er     0.197   0.197   0.697
Er95     Er     0.197   0.053   0.553
Er96     Er     0.197   0.553   0.053
V97     V     0.5914   0.2499   0.2499
V98     V     0.4999   0.2501   0.3414
V99     V     0.4086   0.2501   0.2501
V100     V     0.4999   0.3414   0.2501
V101     V     0.5001   0.2499   0.1586
V102     V     0.5001   0.1586   0.2499
Er103     Er     0.697   0.197   0.197
Er104     Er     0.303   0.303   0.303
V105     V     0.6586   0.2499   0.0001
V106     V     0.8414   0.2501   0.9999
V107     V     0.7501   0.3414   0.9999
V108     V     0.7499   0.2499   0.0914
V109     V     0.7499   0.1586   0.0001
V110     V     0.7501   0.2501   0.9086
V111     V     0.0001   0.2499   0.6586
V112     V     0.9999   0.2501   0.8414
V113     V     0.9999   0.3414   0.7501
V114     V     0.0914   0.2499   0.7499
V115     V     0.9086   0.2501   0.7501
V116     V     0.0001   0.1586   0.7499
Er117     Er     0.947   0.303   0.947
Er118     Er     0.803   0.447   0.947
Er119     Er     0.053   0.197   0.553
Er120     Er     0.553   0.197   0.053
Er121     Er     0.947   0.447   0.803
Er122     Er     0.303   0.803   0.803
Er123     Er     0.803   0.303   0.803
Er124     Er     0.053   0.697   0.053
Er125     Er     0.697   0.553   0.553
Er126     Er     0.697   0.697   0.697
Er127     Er     0.553   0.553   0.697
Er128     Er     0.553   0.697   0.553
loop_
_geom_bond_atom_site_label_1
_geom_bond_atom_site_label_2
_geom_bond_distance
_geom_bond_site_symmetry_2
_ccdc_geom_bond_type
V1     V6    9.997   .     S
V1     V5    9.997   .     S
V1     Er128    10.003   .     S
V2     V6    9.997   .     S
V2     V4    9.997   .     S
V2     Er127    10.003   .     S
V3     V5    9.997   .     S
V3     V4    9.997   .     S
V3     Er125    10.003   .     S
V4     Er93    10.003   .     S
V5     Er70    10.003   .     S
V6     Er69    10.003   .     S
V7     V9    9.997   .     S
V7     V11    9.997   .     S
V7     Er86    10.003   .     S
V8     V12    9.997   .     S
V8     V10    9.997   .     S
V8     Er128    10.003   .     S
V9     V10    9.997   .     S
V9     Er126    10.003   .     S
V10     Er84    10.003   .     S
V11     V12    9.997   .     S
V11     Er127    10.003   .     S
V12     Er122    10.003   .     S
V13     V16    9.997   .     S
V13     V17    9.997   .     S
V13     Er38    10.003   .     S
V14     V18    9.997   .     S
V14     V15    9.997   .     S
V14     Er125    10.003   .     S
V15     V17    9.997   .     S
V15     Er48    10.003   .     S
V16     V18    9.997   .     S
V16     Er128    10.003   .     S
V17     Er126    10.003   .     S
V18     Er49    10.003   .     S
V19     V22    9.997   .     S
V19     V21    9.997   .     S
V19     Er121    10.003   .     S
V20     V21    9.997   .     S
V20     V23    9.997   .     S
V20     Er118    10.003   .     S
V21     Er126    10.003   .     S
V22     V24    9.997   .     S
V22     Er125    10.003   .     S
V23     V24    9.997   .     S
V23     Er127    10.003   .     S
V24     Er123    10.003   .     S
V25     V30    9.997   1_655     S
V25     V29    9.997   1_655     S
V25     Er37    10.003   .     S
V26     V27    9.997   1_455     S
V26     V28    9.997   1_455     S
V26     Er39    10.003   .     S
V27     V26    9.997   1_655     S
V27     V30    9.997   1_655     S
V27     Er49    10.003   .     S
V28     V26    9.997   1_655     S
V28     V29    9.997   1_655     S
V28     Er48    10.003   .     S
V29     V25    9.997   1_455     S
V29     V28    9.997   1_455     S
V29     Er71    10.003   .     S
V30     V27    9.997   1_455     S
V30     V25    9.997   1_455     S
V30     Er124    10.003   .     S
V31     V34    9.997   1_565     S
V31     V35    9.997   1_565     S
V31     Er37    10.003   .     S
V32     V35    9.997   1_565     S
V32     V33    9.997   1_565     S
V32     Er38    10.003   .     S
V33     V36    9.997   1_545     S
V33     V32    9.997   1_545     S
V33     Er40    10.003   .     S
V34     V31    9.997   1_545     S
V34     V36    9.997   1_545     S
V34     Er56    10.003   .     S
V35     V31    9.997   1_545     S
V35     V32    9.997   1_545     S
V35     Er103    10.003   .     S
V36     V34    9.997   1_565     S
V36     V33    9.997   1_565     S
V36     Er49    10.003   .     S
Er37     V46    10.003   .     S
Er38     V44    10.003   .     S
Er39     V59    10.003   .     S
Er39     V65    10.003   .     S
Er40     V51    10.003   .     S
Er40     V102    10.003   .     S
V41     V44    9.997   1_445     S
V41     V45    9.997   1_445     S
V41     Er47    10.003   .     S
V42     V46    9.997   1_445     S
V42     V44    9.997   1_445     S
V42     Er119    10.003   .     S
V43     V45    9.997   1_445     S
V43     V46    9.997   1_445     S
V43     Er95    10.003   .     S
V44     V42    9.997   1_665     S
V44     V41    9.997   1_665     S
V45     V41    9.997   1_665     S
V45     V43    9.997   1_665     S
V45     Er48    10.003   .     S
V46     V42    9.997   1_665     S
V46     V43    9.997   1_665     S
Er47     V78    10.003   .     S
Er47     V116    10.003   .     S
V50     V53    9.997   1_544     S
V50     V54    9.997   1_544     S
V50     Er56    10.003   .     S
V51     V54    9.997   1_544     S
V51     V55    9.997   1_544     S
V52     V53    9.997   1_544     S
V52     V55    9.997   1_544     S
V52     Er120    10.003   .     S
V53     V50    9.997   1_566     S
V53     V52    9.997   1_566     S
V53     Er84    10.003   .     S
V54     V50    9.997   1_566     S
V54     V51    9.997   1_566     S
V54     Er86    10.003   .     S
V55     V52    9.997   1_566     S
V55     V51    9.997   1_566     S
V55     Er85    10.003   .     S
Er56     V109    10.003   .     S
V57     V60    9.997   1_454     S
V57     V61    9.997   1_454     S
V57     Er124    10.003   .     S
V58     V60    9.997   1_454     S
V58     V62    9.997   1_454     S
V58     Er96    10.003   .     S
V59     V61    9.997   1_454     S
V59     V62    9.997   1_454     S
V60     V57    9.997   1_656     S
V60     V58    9.997   1_656     S
V60     Er121    10.003   .     S
V61     V57    9.997   1_656     S
V61     V59    9.997   1_656     S
V61     Er118    10.003   .     S
V62     V59    9.997   1_656     S
V62     V58    9.997   1_656     S
V62     Er117    10.003   .     S
V63     V64    9.997   .     S
V63     V67    9.997   .     S
V63     Er71    10.003   .     S
V64     V66    9.997   .     S
V64     Er70    10.003   .     S
V65     V68    9.997   .     S
V65     V67    9.997   .     S
V66     V68    9.997   .     S
V66     Er96    10.003   .     S
V67     Er69    10.003   .     S
V68     Er104    10.003   .     S
Er69     V90    10.003   .     S
Er70     V100    10.003   .     S
Er71     V75    10.003   .     S
V72     V76    9.997   1_556     S
V72     V75    9.997   1_556     S
V72     Er85    10.003   .     S
V73     V74    9.997   1_554     S
V73     V77    9.997   1_554     S
V73     Er96    10.003   .     S
V74     V75    9.997   1_556     S
V74     V73    9.997   1_556     S
V74     Er86    10.003   .     S
V75     V74    9.997   1_554     S
V75     V72    9.997   1_554     S
V76     V72    9.997   1_554     S
V76     V77    9.997   1_554     S
V76     Er124    10.003   .     S
V77     V76    9.997   1_556     S
V77     V73    9.997   1_556     S
V77     Er122    10.003   .     S
V78     V83    9.997   1_545     S
V78     V81    9.997   1_545     S
V79     V83    9.997   1_545     S
V79     V80    9.997   1_545     S
V79     Er95    10.003   .     S
V80     V79    9.997   1_565     S
V80     V82    9.997   1_565     S
V80     Er84    10.003   .     S
V81     V78    9.997   1_565     S
V81     V82    9.997   1_565     S
V81     Er85    10.003   .     S
V82     V80    9.997   1_545     S
V82     V81    9.997   1_545     S
V82     Er94    10.003   .     S
V83     V78    9.997   1_565     S
V83     V79    9.997   1_565     S
V83     Er122    10.003   .     S
V87     V88    9.997   .     S
V87     V92    9.997   .     S
V87     Er95    10.003   .     S
V88     V89    9.997   .     S
V88     Er93    10.003   .     S
V89     V90    9.997   .     S
V89     Er94    10.003   .     S
V90     V91    9.997   .     S
V91     V92    9.997   .     S
V91     Er119    10.003   .     S
V92     Er104    10.003   .     S
Er93     V98    10.003   .     S
Er94     V114    10.003   .     S
V97     V98    9.997   .     S
V97     V100    9.997   .     S
V97     Er103    10.003   .     S
V98     V102    9.997   .     S
V99     V101    9.997   .     S
V99     V102    9.997   .     S
V99     Er104    10.003   .     S
V100     V101    9.997   .     S
V101     Er120    10.003   .     S
Er103     V108    10.003   .     S
V105     V107    9.997   1_554     S
V105     V110    9.997   1_554     S
V105     Er120    10.003   .     S
V106     V108    9.997   1_556     S
V106     V109    9.997   1_556     S
V106     Er117    10.003   .     S
V107     V105    9.997   1_556     S
V107     V108    9.997   1_556     S
V107     Er118    10.003   .     S
V108     V106    9.997   1_554     S
V108     V107    9.997   1_554     S
V109     V106    9.997   1_554     S
V109     V110    9.997   1_554     S
V110     V105    9.997   1_556     S
V110     V109    9.997   1_556     S
V110     Er123    10.003   .     S
V111     V115    9.997   1_455     S
V111     V113    9.997   1_455     S
V111     Er119    10.003   .     S
V112     V116    9.997   1_655     S
V112     V114    9.997   1_655     S
V112     Er117    10.003   .     S
V113     V114    9.997   1_655     S
V113     V111    9.997   1_655     S
V113     Er121    10.003   .     S
V114     V112    9.997   1_455     S
V114     V113    9.997   1_455     S
V115     V111    9.997   1_655     S
V115     V116    9.997   1_655     S
V115     Er123    10.003   .     S
V116     V115    9.997   1_455     S
V116     V112    9.997   1_455     S
