data_pzh
_audit_creation_date              2020-02-02
_audit_creation_method            'Pymatgen'
_symmetry_space_group_name_H-M    'P1'
_symmetry_Int_Tables_number       1
loop_
_symmetry_equiv_pos_as_xyz
  x,y,z
_cell_length_a                    54.1495
_cell_length_b                    54.1495
_cell_length_c                    54.1495
_cell_angle_alpha                 90.0
_cell_angle_beta                 90.0
_cell_angle_gamma                 90.0
loop_
_atom_site_label
_atom_site_type_symbol
_atom_site_fract_x
_atom_site_fract_y
_atom_site_fract_z
Er1     Er     0.683   0.1229   0.1229
Er2     Er     0.1229   0.317   0.1229
Er3     Er     0.1229   0.683   0.1229
Er4     Er     0.317   0.1229   0.1229
Er5     Er     0.1229   0.1229   0.683
Er6     Er     0.1229   0.1229   0.317
Er7     Er     0.1229   0.8771   0.317
Ti8     Ti     0.2288   0.0   0.2288
V9     V     0.3594   0.0   0.3594
Er10     Er     0.317   0.8771   0.1229
Er11     Er     0.683   0.8771   0.1229
Er12     Er     0.8771   0.1229   0.317
Ti13     Ti     0.7712   0.0   0.2288
V14     V     0.6406   0.0   0.3594
Er15     Er     0.8771   0.8771   0.317
Ti16     Ti     0.0   0.7712   0.2288
V17     V     0.0   0.6406   0.3594
Er18     Er     0.8771   0.683   0.1229
Er19     Er     0.317   0.1229   0.8771
Er20     Er     0.1229   0.683   0.8771
Er21     Er     0.683   0.1229   0.8771
Ti22     Ti     0.2288   0.2288   0.0
V23     V     0.3594   0.3594   0.0
Er24     Er     0.1229   0.317   0.8771
Ti25     Ti     0.2288   0.7712   0.0
V26     V     0.3594   0.6406   0.0
Er27     Er     0.317   0.8771   0.8771
Ti28     Ti     0.2288   0.0   0.7712
V29     V     0.3594   0.0   0.6406
Er30     Er     0.1229   0.8771   0.683
Er31     Er     0.683   0.8771   0.8771
Ti32     Ti     0.7712   0.7712   0.0
V33     V     0.6406   0.6406   0.0
Er34     Er     0.8771   0.683   0.8771
Ti35     Ti     0.0   0.7712   0.7712
V36     V     0.0   0.6406   0.6406
Er37     Er     0.8771   0.8771   0.683
Ti38     Ti     0.7712   0.0   0.7712
V39     V     0.6406   0.0   0.6406
Er40     Er     0.8771   0.1229   0.683
Ti41     Ti     0.0   0.2288   0.7712
V42     V     0.0   0.3594   0.6406
Er43     Er     0.8771   0.317   0.8771
Ti44     Ti     0.7712   0.2288   0.0
V45     V     0.6406   0.3594   0.0
Er46     Er     0.8771   0.317   0.1229
Ti47     Ti     0.0   0.2288   0.2288
V48     V     0.0   0.3594   0.3594
Er49     Er     0.183   0.3771   0.3771
Er50     Er     0.183   0.3771   0.6229
Er51     Er     0.3771   0.183   0.6229
V52     V     0.1406   0.1406   0.5
Ti53     Ti     0.2712   0.2712   0.5
Er54     Er     0.3771   0.183   0.3771
Er55     Er     0.6229   0.183   0.3771
Er56     Er     0.6229   0.3771   0.183
V57     V     0.5   0.1406   0.1406
Ti58     Ti     0.5   0.2712   0.2712
Er59     Er     0.3771   0.3771   0.183
Er60     Er     0.183   0.6229   0.3771
Er61     Er     0.3771   0.6229   0.183
V62     V     0.1406   0.5   0.1406
Ti63     Ti     0.2712   0.5   0.2712
Er64     Er     0.6229   0.183   0.6229
Er65     Er     0.817   0.3771   0.6229
Ti66     Ti     0.7288   0.2712   0.5
V67     V     0.8594   0.1406   0.5
Er68     Er     0.817   0.3771   0.3771
Er69     Er     0.817   0.6229   0.3771
Ti70     Ti     0.7288   0.5   0.2712
V71     V     0.8594   0.5   0.1406
Er72     Er     0.6229   0.6229   0.183
Er73     Er     0.183   0.6229   0.6229
Er74     Er     0.6229   0.817   0.3771
Ti75     Ti     0.5   0.7288   0.2712
V76     V     0.5   0.8594   0.1406
Er77     Er     0.3771   0.817   0.3771
Er78     Er     0.3771   0.817   0.6229
Ti79     Ti     0.2712   0.7288   0.5
V80     V     0.1406   0.8594   0.5
Er81     Er     0.3771   0.6229   0.817
Ti82     Ti     0.2712   0.5   0.7288
V83     V     0.1406   0.5   0.8594
Er84     Er     0.3771   0.3771   0.817
Er85     Er     0.6229   0.3771   0.817
Ti86     Ti     0.5   0.2712   0.7288
V87     V     0.5   0.1406   0.8594
Er88     Er     0.6229   0.817   0.6229
Ti89     Ti     0.7288   0.7288   0.5
V90     V     0.8594   0.8594   0.5
Er91     Er     0.817   0.6229   0.6229
Ti92     Ti     0.7288   0.5   0.7288
V93     V     0.8594   0.5   0.8594
Er94     Er     0.6229   0.6229   0.817
Ti95     Ti     0.5   0.7288   0.7288
V96     V     0.5   0.8594   0.8594
loop_
_geom_bond_atom_site_label_1
_geom_bond_atom_site_label_2
_geom_bond_distance
_geom_bond_site_symmetry_2
_ccdc_geom_bond_type
Er1     Ti44    10.0   .     S
Er1     Ti13    10.0   .     S
Er1     V57    10.0   .     S
Er2     Ti22    10.0   .     S
Er2     Ti47    10.0   .     S
Er2     V62    10.0   .     S
Er3     Ti16    10.0   .     S
Er3     Ti25    10.0   .     S
Er3     V62    10.0   .     S
Er4     Ti8    10.0   .     S
Er4     Ti22    10.0   .     S
Er4     V57    10.0   .     S
Er5     Ti28    10.0   .     S
Er5     Ti41    10.0   .     S
Er5     V52    10.0   .     S
Er6     Ti47    10.0   .     S
Er6     Ti8    10.0   .     S
Er6     V52    10.0   .     S
Er7     Ti8    10.0   1_565     S
Er7     Ti16    10.0   .     S
Er7     V80    10.0   .     S
Ti8     Er7    10.0   1_545     S
Ti8     V9    10.0   .     S
Ti8     Er10    10.0   1_545     S
V9     Er77    10.0   1_545     S
V9     Er54    10.0   .     S
Er10     Ti25    10.0   .     S
Er10     Ti8    10.0   1_565     S
Er10     V76    10.0   .     S
Er11     Ti13    10.0   1_565     S
Er11     Ti32    10.0   .     S
Er11     V76    10.0   .     S
Er12     Ti13    10.0   .     S
Er12     Ti47    10.0   1_655     S
Er12     V67    10.0   .     S
Ti13     Er11    10.0   1_545     S
Ti13     V14    10.0   .     S
Ti13     Er15    10.0   1_545     S
V14     Er74    10.0   1_545     S
V14     Er55    10.0   .     S
Er15     Ti16    10.0   1_655     S
Er15     Ti13    10.0   1_565     S
Er15     V90    10.0   .     S
Ti16     Er15    10.0   1_455     S
Ti16     V17    10.0   .     S
Ti16     Er18    10.0   1_455     S
V17     Er69    10.0   1_455     S
V17     Er60    10.0   .     S
Er18     Ti32    10.0   .     S
Er18     Ti16    10.0   1_655     S
Er18     V71    10.0   .     S
Er19     Ti22    10.0   1_556     S
Er19     Ti28    10.0   .     S
Er19     V87    10.0   .     S
Er20     Ti25    10.0   1_556     S
Er20     Ti35    10.0   .     S
Er20     V83    10.0   .     S
Er21     Ti38    10.0   .     S
Er21     Ti44    10.0   1_556     S
Er21     V87    10.0   .     S
Ti22     Er19    10.0   1_554     S
Ti22     V23    10.0   .     S
Ti22     Er24    10.0   1_554     S
V23     Er84    10.0   1_554     S
V23     Er59    10.0   .     S
Er24     Ti41    10.0   .     S
Er24     Ti22    10.0   1_556     S
Er24     V83    10.0   .     S
Ti25     Er20    10.0   1_554     S
Ti25     V26    10.0   .     S
Ti25     Er27    10.0   1_554     S
V26     Er81    10.0   1_554     S
V26     Er61    10.0   .     S
Er27     Ti28    10.0   1_565     S
Er27     Ti25    10.0   1_556     S
Er27     V96    10.0   .     S
Ti28     Er27    10.0   1_545     S
Ti28     V29    10.0   .     S
Ti28     Er30    10.0   1_545     S
V29     Er78    10.0   1_545     S
V29     Er51    10.0   .     S
Er30     Ti35    10.0   .     S
Er30     Ti28    10.0   1_565     S
Er30     V80    10.0   .     S
Er31     Ti32    10.0   1_556     S
Er31     Ti38    10.0   1_565     S
Er31     V96    10.0   .     S
Ti32     Er31    10.0   1_554     S
Ti32     V33    10.0   .     S
Ti32     Er34    10.0   1_554     S
V33     Er94    10.0   1_554     S
V33     Er72    10.0   .     S
Er34     Ti35    10.0   1_655     S
Er34     Ti32    10.0   1_556     S
Er34     V93    10.0   .     S
Ti35     Er34    10.0   1_455     S
Ti35     V36    10.0   .     S
Ti35     Er37    10.0   1_455     S
V36     Er91    10.0   1_455     S
V36     Er73    10.0   .     S
Er37     Ti38    10.0   1_565     S
Er37     Ti35    10.0   1_655     S
Er37     V90    10.0   .     S
Ti38     Er31    10.0   1_545     S
Ti38     Er37    10.0   1_545     S
Ti38     V39    10.0   .     S
Ti38     Er40    10.0   .     S
V39     Er88    10.0   1_545     S
V39     Er64    10.0   .     S
Er40     Ti41    10.0   1_655     S
Er40     V67    10.0   .     S
Ti41     Er40    10.0   1_455     S
Ti41     V42    10.0   .     S
Ti41     Er43    10.0   1_455     S
V42     Er65    10.0   1_455     S
V42     Er50    10.0   .     S
Er43     Ti41    10.0   1_655     S
Er43     Ti44    10.0   1_556     S
Er43     V93    10.0   .     S
Ti44     Er21    10.0   1_554     S
Ti44     Er43    10.0   1_554     S
Ti44     V45    10.0   .     S
Ti44     Er46    10.0   .     S
V45     Er85    10.0   1_554     S
V45     Er56    10.0   .     S
Er46     Ti47    10.0   1_655     S
Er46     V71    10.0   .     S
Ti47     Er12    10.0   1_455     S
Ti47     Er46    10.0   1_455     S
Ti47     V48    10.0   .     S
V48     Er68    10.0   1_455     S
V48     Er49    10.0   .     S
Er49     Ti53    10.0   .     S
Er49     Ti63    10.0   .     S
Er50     Ti82    10.0   .     S
Er50     Ti53    10.0   .     S
Er51     Ti86    10.0   .     S
Er51     Ti53    10.0   .     S
V52     Ti53    10.0   .     S
Ti53     Er54    10.0   .     S
Er54     Ti58    10.0   .     S
Er55     Ti66    10.0   .     S
Er55     Ti58    10.0   .     S
Er56     Ti70    10.0   .     S
Er56     Ti58    10.0   .     S
V57     Ti58    10.0   .     S
Ti58     Er59    10.0   .     S
Er59     Ti63    10.0   .     S
Er60     Ti79    10.0   .     S
Er60     Ti63    10.0   .     S
Er61     Ti75    10.0   .     S
Er61     Ti63    10.0   .     S
V62     Ti63    10.0   .     S
Er64     Ti66    10.0   .     S
Er64     Ti86    10.0   .     S
Er65     V42    10.0   1_655     S
Er65     Ti92    10.0   .     S
Er65     Ti66    10.0   .     S
Ti66     V67    10.0   .     S
Ti66     Er68    10.0   .     S
Er68     V48    10.0   1_655     S
Er68     Ti70    10.0   .     S
Er69     V17    10.0   1_655     S
Er69     Ti89    10.0   .     S
Er69     Ti70    10.0   .     S
Ti70     V71    10.0   .     S
Ti70     Er72    10.0   .     S
Er72     Ti75    10.0   .     S
Er73     Ti79    10.0   .     S
Er73     Ti82    10.0   .     S
Er74     V14    10.0   1_565     S
Er74     Ti89    10.0   .     S
Er74     Ti75    10.0   .     S
Ti75     V76    10.0   .     S
Ti75     Er77    10.0   .     S
Er77     V9    10.0   1_565     S
Er77     Ti79    10.0   .     S
Er78     V29    10.0   1_565     S
Er78     Ti95    10.0   .     S
Er78     Ti79    10.0   .     S
Ti79     V80    10.0   .     S
Er81     V26    10.0   1_556     S
Er81     Ti95    10.0   .     S
Er81     Ti82    10.0   .     S
Ti82     V83    10.0   .     S
Ti82     Er84    10.0   .     S
Er84     V23    10.0   1_556     S
Er84     Ti86    10.0   .     S
Er85     V45    10.0   1_556     S
Er85     Ti92    10.0   .     S
Er85     Ti86    10.0   .     S
Ti86     V87    10.0   .     S
Er88     V39    10.0   1_565     S
Er88     Ti89    10.0   .     S
Er88     Ti95    10.0   .     S
Ti89     V90    10.0   .     S
Ti89     Er91    10.0   .     S
Er91     V36    10.0   1_655     S
Er91     Ti92    10.0   .     S
Ti92     V93    10.0   .     S
Ti92     Er94    10.0   .     S
Er94     V33    10.0   1_556     S
Er94     Ti95    10.0   .     S
Ti95     V96    10.0   .     S
