data_qdle
_audit_creation_date              2020-02-02
_audit_creation_method            'Pymatgen'
_symmetry_space_group_name_H-M    'P1'
_symmetry_Int_Tables_number       1
loop_
_symmetry_equiv_pos_as_xyz
  x,y,z
_cell_length_a                    16.329
_cell_length_b                    16.329
_cell_length_c                    69.2903
_cell_angle_alpha                 90.0
_cell_angle_beta                 90.0
_cell_angle_gamma                 120.0
loop_
_atom_site_label
_atom_site_type_symbol
_atom_site_fract_x
_atom_site_fract_y
_atom_site_fract_z
Ti1     Ti     0.5   0.5   0.4167
Ti2     Ti     0.0   0.5   0.5833
Er3     Er     0.0   0.0   0.5
Ti4     Ti     0.0   0.5   0.75
Er5     Er     0.0   0.0   0.8333
Ti6     Ti     0.5   0.0   0.9167
Ti7     Ti     0.5   0.5   0.25
V8     V     0.0   0.0   0.3333
Er9     Er     0.0   0.0   0.1667
Ti10     Ti     0.5   0.0   0.0833
V11     V     0.0   0.0   0.0
V12     V     0.0   0.0   0.6667
loop_
_geom_bond_atom_site_label_1
_geom_bond_atom_site_label_2
_geom_bond_distance
_geom_bond_site_symmetry_2
_ccdc_geom_bond_type
Ti1     V8    10.0   1_665     S
Ti1     V8    10.0   .     S
Ti1     Er3    10.0   1_665     S
Ti1     Er3    10.0   .     S
Ti2     V12    10.0   1_565     S
Ti2     V12    10.0   .     S
Ti2     Er3    10.0   .     S
Ti2     Er3    10.0   1_565     S
Er3     Ti1    10.0   1_445     S
Er3     Ti2    10.0   1_545     S
Ti4     V12    10.0   1_565     S
Ti4     V12    10.0   .     S
Ti4     Er5    10.0   1_565     S
Ti4     Er5    10.0   .     S
Er5     Ti4    10.0   1_545     S
Er5     Ti6    10.0   .     S
Er5     Ti6    10.0   1_455     S
Ti6     Er5    10.0   1_655     S
Ti6     V11    10.0   1_556     S
Ti6     V11    10.0   1_656     S
Ti7     V8    10.0   1_665     S
Ti7     V8    10.0   .     S
Ti7     Er9    10.0   .     S
Ti7     Er9    10.0   1_665     S
V8     Ti1    10.0   1_445     S
V8     Ti7    10.0   1_445     S
Er9     Ti7    10.0   1_445     S
Er9     Ti10    10.0   .     S
Er9     Ti10    10.0   1_455     S
Ti10     V11    10.0   .     S
Ti10     V11    10.0   1_655     S
Ti10     Er9    10.0   1_655     S
V11     Ti6    10.0   1_554     S
V11     Ti6    10.0   1_454     S
V11     Ti10    10.0   1_455     S
V12     Ti2    10.0   1_545     S
V12     Ti4    10.0   1_545     S
