data_qnb
_audit_creation_date              2020-02-02
_audit_creation_method            'Pymatgen'
_symmetry_space_group_name_H-M    'P1'
_symmetry_Int_Tables_number       1
loop_
_symmetry_equiv_pos_as_xyz
  x,y,z
_cell_length_a                    28.7441
_cell_length_b                    28.7441
_cell_length_c                    31.7817
_cell_angle_alpha                 90.0
_cell_angle_beta                 90.0
_cell_angle_gamma                 120.0
loop_
_atom_site_label
_atom_site_type_symbol
_atom_site_fract_x
_atom_site_fract_y
_atom_site_fract_z
V1     V     0.6667   0.3333   0.6962
V2     V     0.3333   0.6667   0.1962
V3     V     0.3333   0.6667   0.6962
Ti4     Ti     0.0   0.6945   0.6965
Ti5     Ti     0.6945   0.0   0.6965
Er6     Er     0.7868   0.7868   0.5
Ti7     Ti     0.3055   0.3055   0.6965
Er8     Er     0.2132   0.0   0.5
Er9     Er     0.0   0.2132   0.5
Ti10     Ti     0.6945   0.6945   0.1965
Ti11     Ti     0.0   0.3055   0.1965
Ti12     Ti     0.3055   0.0   0.1965
Er13     Er     0.2132   0.2132   0.0
Er14     Er     0.0   0.7868   0.0
Er15     Er     0.7868   0.0   0.0
V16     V     0.6667   0.3333   0.1962
loop_
_geom_bond_atom_site_label_1
_geom_bond_atom_site_label_2
_geom_bond_distance
_geom_bond_site_symmetry_2
_ccdc_geom_bond_type
V1     Ti7    10.006   .     S
V1     Ti4    10.006   1_655     S
V1     Ti5    10.006   .     S
V2     Ti10    10.006   .     S
V2     Ti12    10.006   1_565     S
V2     Ti11    10.006   .     S
V3     Ti5    10.006   1_565     S
V3     Ti4    10.006   .     S
V3     Ti7    10.006   .     S
Ti4     V1    10.006   1_455     S
Ti4     Er8    9.992   1_565     S
Ti4     Er6    9.992   1_455     S
Ti4     Er14    10.004   1_556     S
Ti5     V3    10.006   1_545     S
Ti5     Er9    9.992   1_655     S
Ti5     Er6    9.992   1_545     S
Ti5     Er15    10.004   1_556     S
Er6     Ti4    9.992   1_655     S
Er6     Ti5    9.992   1_565     S
Er6     Ti10    10.004   .     S
Ti7     Er8    9.992   .     S
Ti7     Er9    9.992   .     S
Ti7     Er13    10.004   1_556     S
Er8     Ti4    9.992   1_545     S
Er8     Ti12    10.004   .     S
Er9     Ti5    9.992   1_455     S
Er9     Ti11    10.004   .     S
Ti10     Er15    9.992   1_565     S
Ti10     Er14    9.992   1_655     S
Ti10     V16    10.006   .     S
Ti11     Er13    9.992   .     S
Ti11     Er15    9.992   1_455     S
Ti11     V16    10.006   1_455     S
Ti12     V2    10.006   1_545     S
Ti12     Er13    9.992   .     S
Ti12     Er14    9.992   1_545     S
Ti12     V16    10.006   .     S
Er13     Ti7    10.004   1_554     S
Er14     Ti10    9.992   1_455     S
Er14     Ti12    9.992   1_565     S
Er14     Ti4    10.004   1_554     S
Er15     Ti10    9.992   1_545     S
Er15     Ti11    9.992   1_655     S
Er15     Ti5    10.004   1_554     S
V16     Ti11    10.006   1_655     S
