data_qnd
_audit_creation_date              2020-02-02
_audit_creation_method            'Pymatgen'
_symmetry_space_group_name_H-M    'P1'
_symmetry_Int_Tables_number       1
loop_
_symmetry_equiv_pos_as_xyz
  x,y,z
_cell_length_a                    44.2133
_cell_length_b                    44.2133
_cell_length_c                    16.6682
_cell_angle_alpha                 90.0
_cell_angle_beta                 90.0
_cell_angle_gamma                 120.0
loop_
_atom_site_label
_atom_site_type_symbol
_atom_site_fract_x
_atom_site_fract_y
_atom_site_fract_z
V1     V     0.2748   0.3332   0.25
V2     V     0.0584   0.3332   0.25
Ti3     Ti     0.2028   0.4055   0.75
V4     V     0.2748   0.9416   0.25
V5     V     0.0584   0.7252   0.25
V6     V     0.6668   0.9416   0.25
V7     V     0.6668   0.7252   0.25
Er8     Er     0.3333   0.6667   0.75
Ti9     Ti     0.5945   0.7972   0.75
Ti10     Ti     0.2028   0.7972   0.75
V11     V     0.3332   0.2748   0.75
V12     V     0.3332   0.0584   0.75
Ti13     Ti     0.4055   0.2028   0.25
V14     V     0.9416   0.6668   0.75
V15     V     0.7252   0.6668   0.75
V16     V     0.7252   0.0584   0.75
V17     V     0.9416   0.2748   0.75
Er18     Er     0.6667   0.3333   0.25
Ti19     Ti     0.7972   0.5945   0.25
Ti20     Ti     0.7972   0.2028   0.25
loop_
_geom_bond_atom_site_label_1
_geom_bond_atom_site_label_2
_geom_bond_distance
_geom_bond_site_symmetry_2
_ccdc_geom_bond_type
V1     Ti3    10.0   .     S
V1     Ti3    10.0   1_554     S
V1     Ti13    10.0   .     S
V2     Ti3    10.0   1_554     S
V2     Ti3    10.0   .     S
V2     Ti20    10.0   1_455     S
Ti3     V17    10.0   1_455     S
Ti3     V2    10.0   1_556     S
Ti3     V11    10.0   .     S
Ti3     V1    10.0   1_556     S
Ti3     Er8    10.0   .     S
V4     Ti10    10.0   1_554     S
V4     Ti10    10.0   .     S
V4     Ti13    10.0   1_565     S
V5     Ti10    10.0   .     S
V5     Ti10    10.0   1_554     S
V5     Ti19    10.0   1_455     S
V6     Ti9    10.0   .     S
V6     Ti9    10.0   1_554     S
V6     Ti20    10.0   1_565     S
V7     Ti9    10.0   1_554     S
V7     Ti9    10.0   .     S
V7     Ti19    10.0   .     S
Er8     Ti10    10.0   .     S
Er8     Ti9    10.0   .     S
Ti9     V15    10.0   .     S
Ti9     V7    10.0   1_556     S
Ti9     V16    10.0   1_565     S
Ti9     V6    10.0   1_556     S
Ti10     V12    10.0   1_565     S
Ti10     V4    10.0   1_556     S
Ti10     V14    10.0   1_455     S
Ti10     V5    10.0   1_556     S
V11     Ti13    10.0   .     S
V11     Ti13    10.0   1_556     S
V12     Ti10    10.0   1_545     S
V12     Ti13    10.0   1_556     S
V12     Ti13    10.0   .     S
Ti13     V11    10.0   1_554     S
Ti13     V4    10.0   1_545     S
Ti13     V12    10.0   1_554     S
Ti13     Er18    10.0   .     S
V14     Ti10    10.0   1_655     S
V14     Ti19    10.0   .     S
V14     Ti19    10.0   1_556     S
V15     Ti19    10.0   1_556     S
V15     Ti19    10.0   .     S
V16     Ti9    10.0   1_545     S
V16     Ti20    10.0   .     S
V16     Ti20    10.0   1_556     S
V17     Ti3    10.0   1_655     S
V17     Ti20    10.0   1_556     S
V17     Ti20    10.0   .     S
Er18     Ti20    10.0   .     S
Er18     Ti19    10.0   .     S
Ti19     V15    10.0   1_554     S
Ti19     V5    10.0   1_655     S
Ti19     V14    10.0   1_554     S
Ti20     V6    10.0   1_545     S
Ti20     V16    10.0   1_554     S
Ti20     V2    10.0   1_655     S
Ti20     V17    10.0   1_554     S
