data_qnda
_audit_creation_date              2020-02-02
_audit_creation_method            'Pymatgen'
_symmetry_space_group_name_H-M    'P1'
_symmetry_Int_Tables_number       1
loop_
_symmetry_equiv_pos_as_xyz
  x,y,z
_cell_length_a                    96.1137
_cell_length_b                    96.1137
_cell_length_c                    43.0888
_cell_angle_alpha                 90.0
_cell_angle_beta                 90.0
_cell_angle_gamma                 120.0
loop_
_atom_site_label
_atom_site_type_symbol
_atom_site_fract_x
_atom_site_fract_y
_atom_site_fract_z
Ti1     Ti     0.2986   0.5972   0.25
Ti2     Ti     0.2986   0.7014   0.25
Ti3     Ti     0.4028   0.7014   0.25
H4     H     0.4768   0.2384   0.75
V5     V     0.3148   0.8948   0.866
V6     V     0.3148   0.8948   0.634
Er7     Er     0.36   0.9985   0.75
V8     V     0.1052   0.6852   0.866
V9     V     0.1052   0.6852   0.634
Er10     Er     0.0015   0.64   0.75
Ce11     Ce     0.293   0.8817   0.25
S12     S     0.2811   0.8228   0.0519
S13     S     0.2811   0.8228   0.4481
Ce14     Ce     0.1183   0.707   0.25
S15     S     0.1772   0.7189   0.0519
S16     S     0.1772   0.7189   0.4481
V17     V     0.42   0.1052   0.134
V18     V     0.42   0.1052   0.366
Er19     Er     0.3615   0.0015   0.25
V20     V     0.42   0.3148   0.366
V21     V     0.42   0.3148   0.134
Er22     Er     0.3615   0.36   0.25
Ce23     Ce     0.4113   0.293   0.75
S24     S     0.4582   0.2811   0.5519
S25     S     0.4582   0.2811   0.9481
Ce26     Ce     0.4113   0.1183   0.75
S27     S     0.4582   0.1772   0.5519
S28     S     0.4582   0.1772   0.9481
V29     V     0.1052   0.42   0.866
V30     V     0.1052   0.42   0.634
Er31     Er     0.0015   0.3615   0.75
V32     V     0.3148   0.42   0.866
V33     V     0.3148   0.42   0.634
Er34     Er     0.36   0.3615   0.75
Ce35     Ce     0.1183   0.4113   0.25
S36     S     0.1772   0.4582   0.0519
S37     S     0.1772   0.4582   0.4481
Ce38     Ce     0.293   0.4113   0.25
S39     S     0.2811   0.4582   0.0519
S40     S     0.2811   0.4582   0.4481
V41     V     0.8948   0.3148   0.134
V42     V     0.8948   0.3148   0.366
Er43     Er     0.9985   0.36   0.25
V44     V     0.6852   0.1052   0.366
V45     V     0.6852   0.1052   0.134
Er46     Er     0.64   0.0015   0.25
Ce47     Ce     0.8817   0.293   0.75
S48     S     0.8228   0.2811   0.5519
S49     S     0.8228   0.2811   0.9481
Ce50     Ce     0.707   0.1183   0.75
S51     S     0.7189   0.1772   0.5519
S52     S     0.7189   0.1772   0.9481
V53     V     0.8948   0.58   0.366
V54     V     0.8948   0.58   0.134
Er55     Er     0.9985   0.6385   0.25
V56     V     0.6852   0.58   0.134
V57     V     0.6852   0.58   0.366
Er58     Er     0.64   0.6385   0.25
Ce59     Ce     0.8817   0.5887   0.75
S60     S     0.8228   0.5418   0.5519
S61     S     0.8228   0.5418   0.9481
Ce62     Ce     0.707   0.5887   0.75
S63     S     0.7189   0.5418   0.5519
S64     S     0.7189   0.5418   0.9481
V65     V     0.58   0.8948   0.866
V66     V     0.58   0.8948   0.634
Er67     Er     0.6385   0.9985   0.75
V68     V     0.58   0.6852   0.866
V69     V     0.58   0.6852   0.634
Er70     Er     0.6385   0.64   0.75
Ce71     Ce     0.5887   0.8817   0.25
S72     S     0.5418   0.8228   0.0519
S73     S     0.5418   0.8228   0.4481
Ce74     Ce     0.5887   0.707   0.25
S75     S     0.5418   0.7189   0.0519
S76     S     0.5418   0.7189   0.4481
H77     H     0.7616   0.5232   0.75
H78     H     0.7616   0.2384   0.75
H79     H     0.2384   0.7616   0.25
H80     H     0.2384   0.4768   0.25
H81     H     0.5232   0.7616   0.25
Ti82     Ti     0.5972   0.2986   0.75
Ti83     Ti     0.7014   0.2986   0.75
Ti84     Ti     0.7014   0.4028   0.75
loop_
_geom_bond_atom_site_label_1
_geom_bond_atom_site_label_2
_geom_bond_distance
_geom_bond_site_symmetry_2
_ccdc_geom_bond_type
Ti1     Ti3    10.008   .     S
Ti1     Ti2    10.008   .     S
Ti1     H80    10.023   .     S
Ti2     Ti3    10.008   .     S
Ti2     H79    10.023   .     S
Ti3     H81    10.023   .     S
H4     Ce23    10.011   .     S
H4     S25    10.009   .     S
H4     S24    10.009   .     S
H4     Ce26    10.011   .     S
H4     S28    10.009   .     S
H4     S27    10.009   .     S
H4     Ti82    10.023   .     S
V5     V6    9.996   .     S
V5     Er7    9.999   .     S
V5     S12    10.003   1_556     S
V6     Er7    9.999   .     S
V6     S13    10.003   .     S
Er7     Ce26    10.006   1_565     S
V8     V9    9.996   .     S
V8     Er10    9.999   .     S
V8     S15    10.003   1_556     S
V9     Er10    9.999   .     S
V9     S16    10.003   .     S
Er10     Ce59    10.006   1_455     S
Ce11     H79    10.011   .     S
Ce11     S13    9.982   .     S
Ce11     S12    9.982   .     S
Ce11     Er19    10.006   1_565     S
S12     H79    10.009   .     S
S12     S15    9.986   .     S
S12     V5    10.003   1_554     S
S13     H79    10.009   .     S
S13     S16    9.986   .     S
Ce14     H79    10.011   .     S
Ce14     S15    9.982   .     S
Ce14     S16    9.982   .     S
Ce14     Er55    10.006   1_455     S
S15     H79    10.009   .     S
S15     V8    10.003   1_554     S
S16     H79    10.009   .     S
V17     V18    9.996   .     S
V17     Er19    9.999   .     S
V17     S28    10.003   1_554     S
V18     Er19    9.999   .     S
V18     S27    10.003   .     S
Er19     Ce11    10.006   1_545     S
V20     V21    9.996   .     S
V20     Er22    9.999   .     S
V20     S24    10.003   .     S
V21     Er22    9.999   .     S
V21     S25    10.003   1_554     S
Er22     Ce38    10.006   .     S
Ce23     S25    9.982   .     S
Ce23     S24    9.982   .     S
Ce23     Er34    10.006   .     S
S24     S27    9.986   .     S
S25     S28    9.986   .     S
S25     V21    10.003   1_556     S
Ce26     Er7    10.006   1_545     S
Ce26     S28    9.982   .     S
Ce26     S27    9.982   .     S
S28     V17    10.003   1_556     S
V29     V30    9.996   .     S
V29     Er31    9.999   .     S
V29     S36    10.003   1_556     S
V30     Er31    9.999   .     S
V30     S37    10.003   .     S
Er31     Ce47    10.006   1_455     S
V32     V33    9.996   .     S
V32     Er34    9.999   .     S
V32     S39    10.003   1_556     S
V33     Er34    9.999   .     S
V33     S40    10.003   .     S
Ce35     H80    10.011   .     S
Ce35     S37    9.982   .     S
Ce35     S36    9.982   .     S
Ce35     Er43    10.006   1_455     S
S36     H80    10.009   .     S
S36     S39    9.986   .     S
S36     V29    10.003   1_554     S
S37     H80    10.009   .     S
S37     S40    9.986   .     S
Ce38     H80    10.011   .     S
Ce38     S39    9.982   .     S
Ce38     S40    9.982   .     S
S39     H80    10.009   .     S
S39     V32    10.003   1_554     S
S40     H80    10.009   .     S
V41     V42    9.996   .     S
V41     Er43    9.999   .     S
V41     S49    10.003   1_554     S
V42     Er43    9.999   .     S
V42     S48    10.003   .     S
Er43     Ce35    10.006   1_655     S
V44     V45    9.996   .     S
V44     Er46    9.999   .     S
V44     S51    10.003   .     S
V45     Er46    9.999   .     S
V45     S52    10.003   1_554     S
Er46     Ce71    10.006   1_545     S
Ce47     H78    10.011   .     S
Ce47     Er31    10.006   1_655     S
Ce47     S49    9.982   .     S
Ce47     S48    9.982   .     S
S48     H78    10.009   .     S
S48     S51    9.986   .     S
S49     H78    10.009   .     S
S49     S52    9.986   .     S
S49     V41    10.003   1_556     S
Ce50     H78    10.011   .     S
Ce50     S52    9.982   .     S
Ce50     S51    9.982   .     S
Ce50     Er67    10.006   1_545     S
S51     H78    10.009   .     S
S52     H78    10.009   .     S
S52     V45    10.003   1_556     S
V53     V54    9.996   .     S
V53     Er55    9.999   .     S
V53     S60    10.003   .     S
V54     Er55    9.999   .     S
V54     S61    10.003   1_554     S
Er55     Ce14    10.006   1_655     S
V56     V57    9.996   .     S
V56     Er58    9.999   .     S
V56     S64    10.003   1_554     S
V57     Er58    9.999   .     S
V57     S63    10.003   .     S
Er58     Ce74    10.006   .     S
Ce59     H77    10.011   .     S
Ce59     Er10    10.006   1_655     S
Ce59     S61    9.982   .     S
Ce59     S60    9.982   .     S
S60     H77    10.009   .     S
S60     S63    9.986   .     S
S61     H77    10.009   .     S
S61     S64    9.986   .     S
S61     V54    10.003   1_556     S
Ce62     H77    10.011   .     S
Ce62     S64    9.982   .     S
Ce62     S63    9.982   .     S
Ce62     Er70    10.006   .     S
S63     H77    10.009   .     S
S64     H77    10.009   .     S
S64     V56    10.003   1_556     S
V65     V66    9.996   .     S
V65     Er67    9.999   .     S
V65     S72    10.003   1_556     S
V66     Er67    9.999   .     S
V66     S73    10.003   .     S
Er67     Ce50    10.006   1_565     S
V68     V69    9.996   .     S
V68     Er70    9.999   .     S
V68     S75    10.003   1_556     S
V69     Er70    9.999   .     S
V69     S76    10.003   .     S
Ce71     H81    10.011   .     S
Ce71     Er46    10.006   1_565     S
Ce71     S72    9.982   .     S
Ce71     S73    9.982   .     S
S72     H81    10.009   .     S
S72     S75    9.986   .     S
S72     V65    10.003   1_554     S
S73     H81    10.009   .     S
S73     S76    9.986   .     S
Ce74     H81    10.011   .     S
Ce74     S76    9.982   .     S
Ce74     S75    9.982   .     S
S75     H81    10.009   .     S
S75     V68    10.003   1_554     S
S76     H81    10.009   .     S
H77     Ti84    10.023   .     S
H78     Ti83    10.023   .     S
Ti82     Ti84    10.008   .     S
Ti82     Ti83    10.008   .     S
Ti83     Ti84    10.008   .     S
