data_qne
_audit_creation_date              2020-02-02
_audit_creation_method            'Pymatgen'
_symmetry_space_group_name_H-M    'P1'
_symmetry_Int_Tables_number       1
loop_
_symmetry_equiv_pos_as_xyz
  x,y,z
_cell_length_a                    23.7045
_cell_length_b                    50.5674
_cell_length_c                    27.7255
_cell_angle_alpha                 90.0
_cell_angle_beta                 90.0
_cell_angle_gamma                 90.0
loop_
_atom_site_label
_atom_site_type_symbol
_atom_site_fract_x
_atom_site_fract_y
_atom_site_fract_z
V1     V     0.1972   0.1752   0.0
V2     V     0.8029   0.1752   0.0
Er3     Er     0.0   0.2594   0.7209
Er4     Er     0.0   0.2594   0.2791
V5     V     0.3028   0.3248   0.5
V6     V     0.6972   0.3248   0.5
Er7     Er     0.5   0.2406   0.2209
Er8     Er     0.5   0.2406   0.7791
V9     V     0.8029   0.8248   0.0
V10     V     0.1972   0.8248   0.0
Er11     Er     0.0   0.7406   0.7209
Er12     Er     0.0   0.7406   0.2791
V13     V     0.6972   0.6752   0.5
V14     V     0.3028   0.6752   0.5
Er15     Er     0.5   0.7594   0.2209
Er16     Er     0.5   0.7594   0.7791
Ti17     Ti     0.5   0.5   0.5
Ti18     Ti     0.0   0.0   0.0
loop_
_geom_bond_atom_site_label_1
_geom_bond_atom_site_label_2
_geom_bond_distance
_geom_bond_site_symmetry_2
_ccdc_geom_bond_type
V1     Ti18    10.016   .     S
V1     Er3    9.992   1_554     S
V1     Er4    9.992   .     S
V1     Er8    10.0   1_554     S
V1     Er7    10.0   .     S
V2     Ti18    10.016   1_655     S
V2     Er3    9.992   1_654     S
V2     Er4    9.992   1_655     S
V2     Er8    10.0   1_554     S
V2     Er7    10.0   .     S
Er3     V2    9.992   1_456     S
Er3     V1    9.992   1_556     S
Er3     V6    10.0   1_455     S
Er3     V5    10.0   .     S
Er4     V2    9.992   1_455     S
Er4     V6    10.0   1_455     S
Er4     V5    10.0   .     S
V5     Ti17    10.016   .     S
V5     Er7    9.992   .     S
V5     Er8    9.992   .     S
V6     Ti17    10.016   .     S
V6     Er4    10.0   1_655     S
V6     Er3    10.0   1_655     S
V6     Er7    9.992   .     S
V6     Er8    9.992   .     S
Er8     V2    10.0   1_556     S
Er8     V1    10.0   1_556     S
V9     Ti18    10.016   1_665     S
V9     Er11    9.992   1_654     S
V9     Er12    9.992   1_655     S
V9     Er16    10.0   1_554     S
V9     Er15    10.0   .     S
V10     Ti18    10.016   1_565     S
V10     Er11    9.992   1_554     S
V10     Er12    9.992   .     S
V10     Er16    10.0   1_554     S
V10     Er15    10.0   .     S
Er11     V10    9.992   1_556     S
Er11     V9    9.992   1_456     S
Er11     V13    10.0   1_455     S
Er11     V14    10.0   .     S
Er12     V9    9.992   1_455     S
Er12     V13    10.0   1_455     S
Er12     V14    10.0   .     S
V13     Ti17    10.016   .     S
V13     Er11    10.0   1_655     S
V13     Er12    10.0   1_655     S
V13     Er15    9.992   .     S
V13     Er16    9.992   .     S
V14     Ti17    10.016   .     S
V14     Er15    9.992   .     S
V14     Er16    9.992   .     S
Er16     V10    10.0   1_556     S
Er16     V9    10.0   1_556     S
Ti18     V2    10.016   1_455     S
Ti18     V10    10.016   1_545     S
Ti18     V9    10.016   1_445     S
