data_qnea
_audit_creation_date              2020-02-02
_audit_creation_method            'Pymatgen'
_symmetry_space_group_name_H-M    'P1'
_symmetry_Int_Tables_number       1
loop_
_symmetry_equiv_pos_as_xyz
  x,y,z
_cell_length_a                    66.087
_cell_length_b                    108.7375
_cell_length_c                    58.1417
_cell_angle_alpha                 90.0
_cell_angle_beta                 90.0
_cell_angle_gamma                 90.0
loop_
_atom_site_label
_atom_site_type_symbol
_atom_site_fract_x
_atom_site_fract_y
_atom_site_fract_z
Ti1     Ti     0.5   0.546   0.586
Ti2     Ti     0.5   0.546   0.414
Ti3     Ti     0.5   0.454   0.414
Ti4     Ti     0.5   0.454   0.586
Er5     Er     0.801   0.2477   0.9141
Er6     Er     0.801   0.2477   0.0859
V7     V     0.6688   0.2924   0.914
V8     V     0.6688   0.2924   0.086
H9     H     0.0   0.1245   0.8238
S10     S     0.0756   0.2007   0.8669
Ce11     Ce     0.0756   0.1717   0.7038
S12     S     0.9244   0.2007   0.8669
Ce13     Ce     0.9244   0.1717   0.7038
H14     H     0.0   0.1245   0.1762
S15     S     0.0756   0.2007   0.1331
Ce16     Ce     0.0756   0.1717   0.2962
S17     S     0.9244   0.2007   0.1331
Ce18     Ce     0.9244   0.1717   0.2962
Er19     Er     0.1989   0.2477   0.9141
Er20     Er     0.1989   0.2477   0.0859
V21     V     0.3312   0.2924   0.914
V22     V     0.3312   0.2924   0.086
Er23     Er     0.699   0.2523   0.5859
Er24     Er     0.699   0.2523   0.4141
V25     V     0.8312   0.2076   0.586
V26     V     0.8312   0.2076   0.414
H27     H     0.5   0.3755   0.3238
S28     S     0.4244   0.2993   0.3669
Ce29     Ce     0.4244   0.3283   0.2038
S30     S     0.5756   0.2993   0.3669
Ce31     Ce     0.5756   0.3283   0.2038
H32     H     0.5   0.3755   0.6762
S33     S     0.4244   0.2993   0.6331
Ce34     Ce     0.4244   0.3283   0.7962
S35     S     0.5756   0.2993   0.6331
Ce36     Ce     0.5756   0.3283   0.7962
Er37     Er     0.301   0.2523   0.5859
Er38     Er     0.301   0.2523   0.4141
V39     V     0.1688   0.2076   0.586
V40     V     0.1688   0.2076   0.414
Er41     Er     0.699   0.7477   0.5859
Er42     Er     0.699   0.7477   0.4141
V43     V     0.8312   0.7924   0.586
V44     V     0.8312   0.7924   0.414
H45     H     0.5   0.6245   0.3238
S46     S     0.4244   0.7007   0.3669
Ce47     Ce     0.4244   0.6717   0.2038
S48     S     0.5756   0.7007   0.3669
Ce49     Ce     0.5756   0.6717   0.2038
H50     H     0.5   0.6245   0.6762
S51     S     0.4244   0.7007   0.6331
Ce52     Ce     0.4244   0.6717   0.7962
S53     S     0.5756   0.7007   0.6331
Ce54     Ce     0.5756   0.6717   0.7962
Er55     Er     0.301   0.7477   0.5859
Er56     Er     0.301   0.7477   0.4141
V57     V     0.1688   0.7924   0.586
V58     V     0.1688   0.7924   0.414
Er59     Er     0.801   0.7523   0.9141
Er60     Er     0.801   0.7523   0.0859
V61     V     0.6688   0.7076   0.914
V62     V     0.6688   0.7076   0.086
H63     H     0.0   0.8755   0.8238
S64     S     0.0756   0.7993   0.8669
Ce65     Ce     0.0756   0.8283   0.7038
S66     S     0.9244   0.7993   0.8669
Ce67     Ce     0.9244   0.8283   0.7038
H68     H     0.0   0.8755   0.1762
S69     S     0.0756   0.7993   0.1331
Ce70     Ce     0.0756   0.8283   0.2962
S71     S     0.9244   0.7993   0.1331
Ce72     Ce     0.9244   0.8283   0.2962
Er73     Er     0.1989   0.7523   0.9141
Er74     Er     0.1989   0.7523   0.0859
V75     V     0.3312   0.7076   0.914
V76     V     0.3312   0.7076   0.086
Ti77     Ti     0.0   0.954   0.086
Ti78     Ti     0.0   0.954   0.914
Ti79     Ti     0.0   0.046   0.086
Ti80     Ti     0.0   0.046   0.914
loop_
_geom_bond_atom_site_label_1
_geom_bond_atom_site_label_2
_geom_bond_distance
_geom_bond_site_symmetry_2
_ccdc_geom_bond_type
Ti1     Ti2    10.004   .     S
Ti1     Ti4    10.01   .     S
Ti1     H50    10.014   .     S
Ti2     Ti3    10.01   .     S
Ti2     H45    10.014   .     S
Ti3     Ti4    10.004   .     S
Ti3     H27    10.014   .     S
Ti4     H32    10.014   .     S
Er5     Er6    9.993   1_556     S
Er5     V7    10.001   .     S
Er5     S12    10.001   .     S
Er6     Er5    9.993   1_554     S
Er6     V8    10.001   .     S
Er6     S17    10.001   .     S
V7     V8    10.0   1_556     S
V7     Ce36    10.004   .     S
V8     V7    10.0   1_554     S
V8     Ce31    10.004   .     S
H9     Ce13    10.001   1_455     S
H9     S12    9.996   1_455     S
H9     Ce11    10.001   .     S
H9     S10    9.996   .     S
H9     Ti80    10.014   .     S
S10     Ce11    9.993   .     S
S10     S12    9.996   1_455     S
S10     Er19    10.001   .     S
Ce11     Ce13    9.994   1_455     S
Ce11     V39    10.004   .     S
S12     H9    9.996   1_655     S
S12     Ce13    9.993   .     S
S12     S10    9.996   1_655     S
Ce13     H9    10.001   1_655     S
Ce13     Ce11    9.994   1_655     S
Ce13     V25    10.004   .     S
H14     Ce16    10.001   .     S
H14     S15    9.996   .     S
H14     Ce18    10.001   1_455     S
H14     S17    9.996   1_455     S
H14     Ti79    10.014   .     S
S15     Ce16    9.993   .     S
S15     S17    9.996   1_455     S
S15     Er20    10.001   .     S
Ce16     Ce18    9.994   1_455     S
Ce16     V40    10.004   .     S
S17     H14    9.996   1_655     S
S17     Ce18    9.993   .     S
S17     S15    9.996   1_655     S
Ce18     H14    10.001   1_655     S
Ce18     Ce16    9.994   1_655     S
Ce18     V26    10.004   .     S
Er19     Er20    9.993   1_556     S
Er19     V21    10.001   .     S
Er20     Er19    9.993   1_554     S
Er20     V22    10.001   .     S
V21     V22    10.0   1_556     S
V21     Ce34    10.004   .     S
V22     V21    10.0   1_554     S
V22     Ce29    10.004   .     S
Er23     Er24    9.993   .     S
Er23     V25    10.001   .     S
Er23     S35    10.001   .     S
Er24     V26    10.001   .     S
Er24     S30    10.001   .     S
V25     V26    10.0   .     S
H27     Ce31    10.001   .     S
H27     S30    9.996   .     S
H27     Ce29    10.001   .     S
H27     S28    9.996   .     S
S28     Ce29    9.993   .     S
S28     S30    9.996   .     S
S28     Er38    10.001   .     S
Ce29     Ce31    9.994   .     S
S30     Ce31    9.993   .     S
H32     Ce34    10.001   .     S
H32     S33    9.996   .     S
H32     Ce36    10.001   .     S
H32     S35    9.996   .     S
S33     Ce34    9.993   .     S
S33     S35    9.996   .     S
S33     Er37    10.001   .     S
Ce34     Ce36    9.994   .     S
S35     Ce36    9.993   .     S
Er37     Er38    9.993   .     S
Er37     V39    10.001   .     S
Er38     V40    10.001   .     S
V39     V40    10.0   .     S
Er41     Er42    9.993   .     S
Er41     V43    10.001   .     S
Er41     S53    10.001   .     S
Er42     V44    10.001   .     S
Er42     S48    10.001   .     S
V43     V44    10.0   .     S
V43     Ce67    10.004   .     S
V44     Ce72    10.004   .     S
H45     Ce47    10.001   .     S
H45     S46    9.996   .     S
H45     Ce49    10.001   .     S
H45     S48    9.996   .     S
S46     Ce47    9.993   .     S
S46     S48    9.996   .     S
S46     Er56    10.001   .     S
Ce47     Ce49    9.994   .     S
Ce47     V76    10.004   .     S
S48     Ce49    9.993   .     S
Ce49     V62    10.004   .     S
H50     Ce54    10.001   .     S
H50     S53    9.996   .     S
H50     Ce52    10.001   .     S
H50     S51    9.996   .     S
S51     Ce52    9.993   .     S
S51     S53    9.996   .     S
S51     Er55    10.001   .     S
Ce52     Ce54    9.994   .     S
Ce52     V75    10.004   .     S
S53     Ce54    9.993   .     S
Ce54     V61    10.004   .     S
Er55     Er56    9.993   .     S
Er55     V57    10.001   .     S
Er56     V58    10.001   .     S
V57     V58    10.0   .     S
V57     Ce65    10.004   .     S
V58     Ce70    10.004   .     S
Er59     Er60    9.993   1_556     S
Er59     V61    10.001   .     S
Er59     S66    10.001   .     S
Er60     Er59    9.993   1_554     S
Er60     V62    10.001   .     S
Er60     S71    10.001   .     S
V61     V62    10.0   1_556     S
V62     V61    10.0   1_554     S
H63     Ce65    10.001   .     S
H63     S64    9.996   .     S
H63     Ce67    10.001   1_455     S
H63     S66    9.996   1_455     S
H63     Ti78    10.014   .     S
S64     Ce65    9.993   .     S
S64     S66    9.996   1_455     S
S64     Er73    10.001   .     S
Ce65     Ce67    9.994   1_455     S
S66     H63    9.996   1_655     S
S66     Ce67    9.993   .     S
S66     S64    9.996   1_655     S
Ce67     H63    10.001   1_655     S
Ce67     Ce65    9.994   1_655     S
H68     Ce72    10.001   1_455     S
H68     S71    9.996   1_455     S
H68     Ce70    10.001   .     S
H68     S69    9.996   .     S
H68     Ti77    10.014   .     S
S69     Ce70    9.993   .     S
S69     S71    9.996   1_455     S
S69     Er74    10.001   .     S
Ce70     Ce72    9.994   1_455     S
S71     H68    9.996   1_655     S
S71     Ce72    9.993   .     S
S71     S69    9.996   1_655     S
Ce72     H68    10.001   1_655     S
Ce72     Ce70    9.994   1_655     S
Er73     Er74    9.993   1_556     S
Er73     V75    10.001   .     S
Er74     Er73    9.993   1_554     S
Er74     V76    10.001   .     S
V75     V76    10.0   1_556     S
V76     V75    10.0   1_554     S
Ti77     Ti78    10.004   1_554     S
Ti77     Ti79    10.01   1_565     S
Ti78     Ti77    10.004   1_556     S
Ti78     Ti80    10.01   1_565     S
Ti79     Ti80    10.004   1_554     S
Ti79     Ti77    10.01   1_545     S
Ti80     Ti79    10.004   1_556     S
Ti80     Ti78    10.01   1_545     S
