data_qom
_audit_creation_date              2020-02-02
_audit_creation_method            'Pymatgen'
_symmetry_space_group_name_H-M    'P1'
_symmetry_Int_Tables_number       1
loop_
_symmetry_equiv_pos_as_xyz
  x,y,z
_cell_length_a                    34.6408
_cell_length_b                    34.6408
_cell_length_c                    28.2846
_cell_angle_alpha                 90.0
_cell_angle_beta                 90.0
_cell_angle_gamma                 120.0
loop_
_atom_site_label
_atom_site_type_symbol
_atom_site_fract_x
_atom_site_fract_y
_atom_site_fract_z
V1     V     0.0   0.0   0.25
Er2     Er     0.3333   0.6667   0.25
Ti3     Ti     0.7222   0.6111   0.0833
S4     S     0.1667   0.8333   0.25
Ti5     Ti     0.3889   0.1111   0.0833
Ti6     Ti     0.8889   0.6111   0.4167
Ce7     Ce     0.6667   0.3333   0.25
S8     S     0.6667   0.8333   0.25
Ti9     Ti     0.7222   0.1111   0.4167
Ti10     Ti     0.3889   0.2778   0.4167
S11     S     0.1667   0.3333   0.25
Ti12     Ti     0.8889   0.2778   0.0833
V13     V     0.0   0.0   0.75
S14     S     0.3333   0.1667   0.75
Ti15     Ti     0.2778   0.3889   0.9167
Ti16     Ti     0.1111   0.3889   0.5833
S17     S     0.8333   0.1667   0.75
Ti18     Ti     0.1111   0.7222   0.9167
Ce19     Ce     0.3333   0.6667   0.75
S20     S     0.8333   0.6667   0.75
Ti21     Ti     0.6111   0.7222   0.5833
Ti22     Ti     0.6111   0.8889   0.9167
Ti23     Ti     0.2778   0.8889   0.5833
Er24     Er     0.6667   0.3333   0.75
loop_
_geom_bond_atom_site_label_1
_geom_bond_atom_site_label_2
_geom_bond_distance
_geom_bond_site_symmetry_2
_ccdc_geom_bond_type
V1     S4    10.0   1_545     S
V1     S11    10.0   .     S
V1     S8    10.0   1_445     S
Er2     S4    10.0   .     S
Er2     S8    10.0   .     S
Er2     S11    10.0   .     S
Ti3     S8    10.0   .     S
Ti3     Ce7    10.0   .     S
Ti3     S20    10.0   1_554     S
S4     V1    10.0   1_565     S
S4     Ti5    10.0   1_565     S
S4     Ti6    10.0   1_455     S
S4     Ti23    10.0   .     S
S4     Ti18    10.0   1_554     S
Ti5     S4    10.0   1_545     S
Ti5     Ce7    10.0   .     S
Ti5     S14    10.0   1_554     S
Ti6     S4    10.0   1_655     S
Ti6     Ce7    10.0   .     S
Ti6     S20    10.0   .     S
Ce7     Ti12    10.0   .     S
Ce7     Ti9    10.0   .     S
Ce7     Ti10    10.0   .     S
S8     V1    10.0   1_665     S
S8     Ti9    10.0   1_565     S
S8     Ti22    10.0   1_554     S
S8     Ti21    10.0   .     S
Ti9     S8    10.0   1_545     S
Ti9     S17    10.0   .     S
Ti10     S11    10.0   .     S
Ti10     S14    10.0   .     S
S11     Ti12    10.0   1_455     S
S11     Ti15    10.0   1_554     S
S11     Ti16    10.0   .     S
Ti12     S11    10.0   1_655     S
Ti12     S17    10.0   1_554     S
V13     S14    10.0   .     S
V13     S17    10.0   1_455     S
V13     S20    10.0   1_445     S
S14     Ti15    10.0   .     S
S14     Ti23    10.0   1_545     S
S14     Ti5    10.0   1_556     S
S14     Er24    10.0   .     S
Ti15     S11    10.0   1_556     S
Ti15     Ce19    10.0   .     S
Ti16     Ce19    10.0   .     S
Ti16     S17    10.0   1_455     S
S17     V13    10.0   1_655     S
S17     Ti22    10.0   1_545     S
S17     Ti16    10.0   1_655     S
S17     Ti12    10.0   1_556     S
S17     Er24    10.0   .     S
Ti18     S4    10.0   1_556     S
Ti18     S20    10.0   1_455     S
Ti18     Ce19    10.0   .     S
Ce19     Ti23    10.0   .     S
Ce19     Ti22    10.0   .     S
Ce19     Ti21    10.0   .     S
S20     V13    10.0   1_665     S
S20     Ti18    10.0   1_655     S
S20     Ti21    10.0   .     S
S20     Ti3    10.0   1_556     S
S20     Er24    10.0   .     S
Ti22     S8    10.0   1_556     S
Ti22     S17    10.0   1_565     S
Ti23     S14    10.0   1_565     S
