data_qsl
_audit_creation_date              2020-02-02
_audit_creation_method            'Pymatgen'
_symmetry_space_group_name_H-M    'P1'
_symmetry_Int_Tables_number       1
loop_
_symmetry_equiv_pos_as_xyz
  x,y,z
_cell_length_a                    36.0845
_cell_length_b                    62.5965
_cell_length_c                    19.5569
_cell_angle_alpha                 90.0
_cell_angle_beta                 90.0
_cell_angle_gamma                 90.0
loop_
_atom_site_label
_atom_site_type_symbol
_atom_site_fract_x
_atom_site_fract_y
_atom_site_fract_z
Ce1     Ce     0.5   0.9368   0.25
Er2     Er     0.5   0.9034   0.75
V3     V     0.6553   0.7818   0.5834
V4     V     0.3447   0.7818   0.9166
Ti5     Ti     0.6051   0.7985   0.0833
Ti6     Ti     0.3949   0.7985   0.4167
Ce7     Ce     0.0   0.5632   0.75
Er8     Er     0.0   0.5966   0.25
V9     V     0.1553   0.7182   0.4166
V10     V     0.8447   0.7182   0.0834
Ti11     Ti     0.1051   0.7015   0.9167
Ti12     Ti     0.8949   0.7015   0.5833
Ce13     Ce     0.5   0.0632   0.75
Er14     Er     0.5   0.0966   0.25
V15     V     0.3447   0.2182   0.4166
V16     V     0.6553   0.2182   0.0833
Ti17     Ti     0.6051   0.2015   0.5833
Ti18     Ti     0.3949   0.2015   0.9167
Ce19     Ce     0.0   0.4368   0.25
Er20     Er     0.0   0.4034   0.75
V21     V     0.8447   0.2818   0.5834
V22     V     0.1553   0.2818   0.9166
Ti23     Ti     0.8949   0.2985   0.0833
Ti24     Ti     0.1051   0.2985   0.4167
loop_
_geom_bond_atom_site_label_1
_geom_bond_atom_site_label_2
_geom_bond_distance
_geom_bond_site_symmetry_2
_ccdc_geom_bond_type
Ce1     Er2    10.0   1_554     S
Ce1     Ti6    10.0   .     S
Ce1     Ti5    10.0   .     S
Ce1     Er2    10.0   .     S
Ce1     Er14    10.0   1_565     S
Er2     Ti5    10.0   1_556     S
Er2     Ce1    10.0   1_556     S
Er2     Ti6    10.0   .     S
Er2     V3    10.0   .     S
Er2     V4    10.0   .     S
Er2     Ce13    10.0   1_565     S
V3     Ti12    10.0   .     S
V3     Ti5    10.0   1_556     S
V3     Ti6    10.0   .     S
V3     Ti5    10.0   .     S
V4     Ti11    10.0   .     S
V4     Ti6    10.0   .     S
V4     Ti5    10.0   1_556     S
V4     Ti6    10.0   1_556     S
Ti5     Er2    10.0   1_554     S
Ti5     V3    10.0   1_554     S
Ti5     V4    10.0   1_554     S
Ti5     Ti6    10.0   .     S
Ti5     V10    10.0   .     S
Ti6     V4    10.0   1_554     S
Ti6     V9    10.0   .     S
Ce7     Ti11    10.0   .     S
Ce7     Ti12    10.0   1_455     S
Ce7     Er8    10.0   .     S
Ce7     Er8    10.0   1_556     S
Ce7     Er20    10.0   .     S
Er8     Ti12    10.0   1_455     S
Er8     Ti11    10.0   1_554     S
Er8     Ce7    10.0   1_554     S
Er8     V9    10.0   .     S
Er8     V10    10.0   1_455     S
Er8     Ce19    10.0   .     S
V9     Ti11    10.0   1_554     S
V9     Ti12    10.0   1_455     S
V9     Ti11    10.0   .     S
V10     Ti12    10.0   .     S
V10     Ti11    10.0   1_654     S
V10     Er8    10.0   1_655     S
V10     Ti12    10.0   1_554     S
Ti11     Er8    10.0   1_556     S
Ti11     V9    10.0   1_556     S
Ti11     V10    10.0   1_456     S
Ti11     Ti12    10.0   1_455     S
Ti12     Ce7    10.0   1_655     S
Ti12     Er8    10.0   1_655     S
Ti12     V9    10.0   1_655     S
Ti12     Ti11    10.0   1_655     S
Ti12     V10    10.0   1_556     S
Ce13     Er14    10.0   1_556     S
Ce13     Ti17    10.0   .     S
Ce13     Ti18    10.0   .     S
Ce13     Er14    10.0   .     S
Ce13     Er2    10.0   1_545     S
Er14     Ti18    10.0   1_554     S
Er14     Ce13    10.0   1_554     S
Er14     Ti17    10.0   .     S
Er14     V15    10.0   .     S
Er14     V16    10.0   .     S
Er14     Ce1    10.0   1_545     S
V15     Ti24    10.0   .     S
V15     Ti18    10.0   1_554     S
V15     Ti17    10.0   .     S
V15     Ti18    10.0   .     S
V16     Ti23    10.0   .     S
V16     Ti17    10.0   .     S
V16     Ti18    10.0   1_554     S
V16     Ti17    10.0   1_554     S
Ti17     Ti18    10.0   .     S
Ti17     V16    10.0   1_556     S
Ti17     V21    10.0   .     S
Ti18     Er14    10.0   1_556     S
Ti18     V15    10.0   1_556     S
Ti18     V16    10.0   1_556     S
Ti18     V22    10.0   .     S
Ce19     Er20    10.0   1_554     S
Ce19     Ti24    10.0   .     S
Ce19     Ti23    10.0   1_455     S
Ce19     Er20    10.0   .     S
Er20     Ti23    10.0   1_456     S
Er20     Ce19    10.0   1_556     S
Er20     Ti24    10.0   .     S
Er20     V21    10.0   1_455     S
Er20     V22    10.0   .     S
V21     Ti23    10.0   1_556     S
V21     Ti24    10.0   1_655     S
V21     Er20    10.0   1_655     S
V21     Ti23    10.0   .     S
V22     Ti24    10.0   .     S
V22     Ti23    10.0   1_456     S
V22     Ti24    10.0   1_556     S
Ti23     Er20    10.0   1_654     S
Ti23     Ce19    10.0   1_655     S
Ti23     V21    10.0   1_554     S
Ti23     V22    10.0   1_654     S
Ti23     Ti24    10.0   1_655     S
Ti24     V21    10.0   1_455     S
Ti24     Ti23    10.0   1_455     S
Ti24     V22    10.0   1_554     S
