data_qtzt
_audit_creation_date              2020-02-02
_audit_creation_method            'Pymatgen'
_symmetry_space_group_name_H-M    'P1'
_symmetry_Int_Tables_number       1
loop_
_symmetry_equiv_pos_as_xyz
  x,y,z
_cell_length_a                    67.9076
_cell_length_b                    67.9076
_cell_length_c                    92.181
_cell_angle_alpha                 90.0
_cell_angle_beta                 90.0
_cell_angle_gamma                 120.0
loop_
_atom_site_label
_atom_site_type_symbol
_atom_site_fract_x
_atom_site_fract_y
_atom_site_fract_z
Ce1     Ce     0.7904   0.8504   0.753
Be2     Be     0.7238   0.9315   0.707
He3     He     0.7593   0.831   0.6464
Ce4     Ce     0.8504   0.7904   0.5803
Be5     Be     0.9315   0.7238   0.6264
He6     He     0.831   0.7593   0.6869
Ce7     Ce     0.9401   0.1496   0.247
Be8     Be     0.7923   0.0685   0.293
He9     He     0.9283   0.169   0.3536
Ce10     Ce     0.0599   0.2096   0.4197
Be11     Be     0.2077   0.2762   0.3736
He12     He     0.0717   0.2407   0.3131
Ce13     Ce     0.0599   0.8504   0.247
Be14     Be     0.2077   0.9315   0.293
He15     He     0.0717   0.831   0.3536
Ce16     Ce     0.9401   0.7904   0.4197
Be17     Be     0.7923   0.7238   0.3736
He18     He     0.9283   0.7593   0.3131
Ce19     Ce     0.2096   0.0599   0.9137
Be20     Be     0.2762   0.2077   0.9597
He21     He     0.2407   0.0717   0.0202
Ce22     Ce     0.1496   0.9401   0.0863
Be23     Be     0.0685   0.7923   0.0403
He24     He     0.169   0.9283   0.9798
Li25     Li     0.028   0.8094   0.142
Li26     Li     0.972   0.1906   0.142
Li27     Li     0.1906   0.972   0.1913
Li28     Li     0.8094   0.028   0.1913
F29     F     0.7935   0.616   0.2777
F30     F     0.616   0.7935   0.0556
F31     F     0.2065   0.384   0.2777
F32     F     0.384   0.2065   0.0556
H33     H     0.6611   0.8819   0.1944
H34     H     0.1181   0.3389   0.139
V35     V     0.2593   0.4657   0.183
C36     C     0.3913   0.5935   0.1319
V37     V     0.5343   0.7407   0.1504
C38     C     0.4065   0.6087   0.2014
N39     N     0.3325   0.5132   0.997
Ti40     Ti     0.691   0.6317   0.9531
S41     S     0.5788   0.6584   0.9937
Er42     Er     0.5535   0.5002   0.9971
O43     O     0.4718   0.6477   0.0369
N44     N     0.6675   0.4868   0.997
Ti45     Ti     0.309   0.3683   0.9531
S46     S     0.4212   0.3416   0.9937
Er47     Er     0.4465   0.4998   0.9971
O48     O     0.5282   0.3523   0.0369
H49     H     0.8819   0.6611   0.139
H50     H     0.3389   0.1181   0.1944
V51     V     0.7407   0.5343   0.183
C52     C     0.6087   0.4065   0.1319
V53     V     0.4657   0.2593   0.1504
C54     C     0.5935   0.3913   0.2014
N55     N     0.5132   0.3325   0.3363
Ti56     Ti     0.6317   0.691   0.3802
S57     S     0.6584   0.5788   0.3396
Er58     Er     0.5002   0.5535   0.3362
O59     O     0.6477   0.4718   0.2964
N60     N     0.4868   0.6675   0.3363
Ti61     Ti     0.3683   0.309   0.3802
S62     S     0.3416   0.4212   0.3396
Er63     Er     0.4998   0.4465   0.3362
O64     O     0.3523   0.5282   0.2964
B65     B     0.5254   0.7562   0.2439
B66     B     0.2438   0.4746   0.0895
B67     B     0.7562   0.5254   0.0895
B68     B     0.4746   0.2438   0.2439
Li69     Li     0.7813   0.8094   0.858
Li70     Li     0.2187   0.1906   0.858
Li71     Li     0.7813   0.972   0.8087
Li72     Li     0.2187   0.028   0.8087
F73     F     0.8225   0.616   0.7223
F74     F     0.1775   0.384   0.7223
F75     F     0.8225   0.2065   0.9444
F76     F     0.1775   0.7935   0.9444
N77     N     0.1806   0.5132   0.003
Ti78     Ti     0.9407   0.6317   0.0469
S79     S     0.0795   0.6584   0.0063
Er80     Er     0.9466   0.5002   0.0029
O81     O     0.176   0.6477   0.9631
N82     N     0.8194   0.4868   0.003
Ti83     Ti     0.0593   0.3683   0.0469
S84     S     0.9205   0.3416   0.0063
Er85     Er     0.0534   0.4998   0.0029
O86     O     0.824   0.3523   0.9631
H87     H     0.2208   0.8819   0.8056
H88     H     0.2208   0.3389   0.861
V89     V     0.2064   0.4657   0.817
C90     C     0.2022   0.5935   0.8681
V91     V     0.2064   0.7407   0.8496
C92     C     0.2022   0.6087   0.7986
H93     H     0.7792   0.1181   0.8056
H94     H     0.7792   0.6611   0.861
V95     V     0.7936   0.5343   0.817
C96     C     0.7978   0.4065   0.8681
V97     V     0.7936   0.2593   0.8496
C98     C     0.7978   0.3913   0.7986
N99     N     0.1806   0.6675   0.6637
Ti100     Ti     0.9407   0.309   0.6198
S101     S     0.0795   0.4212   0.6604
Er102     Er     0.9466   0.4465   0.6638
O103     O     0.176   0.5282   0.7036
N104     N     0.8194   0.3325   0.6637
Ti105     Ti     0.0593   0.691   0.6198
S106     S     0.9205   0.5788   0.6604
Er107     Er     0.0534   0.5535   0.6638
O108     O     0.824   0.4718   0.7036
B109     B     0.7691   0.2438   0.7561
B110     B     0.2309   0.7562   0.7561
B111     B     0.2309   0.4746   0.9105
B112     B     0.7691   0.5254   0.9105
Ce113     Ce     0.7904   0.9401   0.9137
Be114     Be     0.7238   0.7923   0.9597
He115     He     0.7593   0.9283   0.0202
Ce116     Ce     0.8504   0.0599   0.0863
Be117     Be     0.9315   0.2077   0.0403
He118     He     0.831   0.0717   0.9798
Li119     Li     0.028   0.2187   0.5246
Li120     Li     0.972   0.7813   0.5246
Li121     Li     0.1906   0.2187   0.4754
Li122     Li     0.8094   0.7813   0.4754
F123     F     0.616   0.8225   0.611
F124     F     0.7935   0.1775   0.389
F125     F     0.384   0.1775   0.611
F126     F     0.2065   0.8225   0.389
H127     H     0.1181   0.7792   0.5277
H128     H     0.6611   0.7792   0.4723
V129     V     0.2593   0.7936   0.4837
C130     C     0.3913   0.7978   0.5347
V131     V     0.5343   0.7936   0.5163
C132     C     0.4065   0.7978   0.4653
N133     N     0.6675   0.1806   0.6696
Ti134     Ti     0.309   0.9407   0.7135
S135     S     0.4212   0.0795   0.6729
Er136     Er     0.4465   0.9466   0.6696
O137     O     0.5282   0.176   0.6297
N138     N     0.3325   0.8194   0.6696
Ti139     Ti     0.691   0.0593   0.7135
S140     S     0.5788   0.9205   0.6729
Er141     Er     0.5535   0.0534   0.6696
O142     O     0.4718   0.824   0.6297
H143     H     0.8819   0.2208   0.5277
H144     H     0.3389   0.2208   0.4723
V145     V     0.4657   0.2064   0.5163
C146     C     0.5935   0.2022   0.4653
V147     V     0.7407   0.2064   0.4837
C148     C     0.6087   0.2022   0.5347
N149     N     0.5132   0.1806   0.3304
Ti150     Ti     0.6317   0.9407   0.2865
S151     S     0.6584   0.0795   0.3271
Er152     Er     0.5002   0.9466   0.3304
O153     O     0.6477   0.176   0.3703
N154     N     0.4868   0.8194   0.3304
Ti155     Ti     0.3683   0.0593   0.2865
S156     S     0.3416   0.9205   0.3271
Er157     Er     0.4998   0.0534   0.3304
O158     O     0.3523   0.824   0.3703
B159     B     0.5254   0.7691   0.4228
B160     B     0.2438   0.7691   0.5772
B161     B     0.4746   0.2309   0.4228
B162     B     0.7562   0.2309   0.5772
Ce163     Ce     0.2096   0.1496   0.753
Be164     Be     0.2762   0.0685   0.707
He165     He     0.2407   0.169   0.6464
Ce166     Ce     0.1496   0.2096   0.5803
Be167     Be     0.0685   0.2762   0.6264
He168     He     0.169   0.2407   0.6869
loop_
_geom_bond_atom_site_label_1
_geom_bond_atom_site_label_2
_geom_bond_distance
_geom_bond_site_symmetry_2
_ccdc_geom_bond_type
Ce1     He3    9.999   .     S
Ce1     He6    10.0   .     S
Ce1     Li69    10.001   .     S
Ce1     Li71    10.0   .     S
Be2     He3    10.0   .     S
Be2     Li71    10.0   .     S
Be2     S140    10.0   .     S
Be2     Ti139    10.0   1_565     S
He3     Ce4    10.0   .     S
He3     F123    10.0   .     S
Ce4     He6    9.999   .     S
Ce4     Li122    10.001   .     S
Ce4     Li120    10.0   .     S
Be5     He6    10.0   .     S
Be5     S106    10.0   .     S
Be5     Ti105    10.0   1_655     S
Be5     Li120    10.0   .     S
He6     F73    10.0   .     S
Ce7     He9    9.999   .     S
Ce7     He12    10.0   1_655     S
Ce7     Li26    10.001   .     S
Ce7     Li28    10.0   .     S
Be8     He9    10.0   .     S
Be8     Li28    10.0   .     S
Be8     S151    10.0   .     S
Be8     Ti150    10.0   1_545     S
He9     Ce10    10.0   1_655     S
He9     F124    10.0   .     S
Ce10     He12    9.999   .     S
Ce10     He9    10.0   1_455     S
Ce10     Li119    10.001   .     S
Ce10     Li121    10.0   .     S
Be11     He12    10.0   .     S
Be11     S62    10.0   .     S
Be11     Ti61    10.0   .     S
Be11     Li121    10.0   .     S
He12     Ce7    10.0   1_455     S
He12     F31    10.0   .     S
Ce13     He15    9.999   .     S
Ce13     He18    10.0   1_455     S
Ce13     Li25    10.001   .     S
Ce13     Li27    10.0   .     S
Be14     He15    10.0   .     S
Be14     Li27    10.0   .     S
Be14     S156    10.0   .     S
Be14     Ti155    10.0   1_565     S
He15     Ce16    10.0   1_455     S
He15     F126    10.0   .     S
Ce16     He18    9.999   .     S
Ce16     He15    10.0   1_655     S
Ce16     Li120    10.001   .     S
Ce16     Li122    10.0   .     S
Be17     He18    10.0   .     S
Be17     S57    10.0   .     S
Be17     Ti56    10.0   .     S
Be17     Li122    10.0   .     S
He18     Ce13    10.0   1_655     S
He18     F29    10.0   .     S
Ce19     He21    9.999   1_556     S
Ce19     He24    10.0   1_545     S
Ce19     Li72    10.001   .     S
Ce19     Li70    10.0   .     S
Be20     He21    10.0   1_556     S
Be20     S46    10.0   .     S
Be20     Ti45    10.0   .     S
Be20     Li70    10.0   .     S
He21     Ce19    9.999   1_554     S
He21     Be20    10.0   1_554     S
He21     Ce22    10.0   1_545     S
He21     F32    10.0   .     S
Ce22     He24    9.999   1_554     S
Ce22     He21    10.0   1_565     S
Ce22     Li27    10.001   .     S
Ce22     Li25    10.0   .     S
Be23     He24    10.0   1_554     S
Be23     Li25    10.0   .     S
Be23     S79    10.0   .     S
Be23     Ti78    10.0   1_455     S
He24     Ce19    10.0   1_565     S
He24     Ce22    9.999   1_556     S
He24     Be23    10.0   1_556     S
He24     F76    10.0   .     S
Li25     H49    10.0   1_455     S
Li26     Be117    10.0   .     S
Li26     Ce116    10.0   .     S
Li26     H34    10.0   1_655     S
Li27     H50    10.0   1_565     S
Li28     H33    10.0   1_545     S
Li28     Ce116    10.001   .     S
F29     O59    10.0   .     S
F29     S57    10.0   .     S
F29     V51    10.0   .     S
F30     O43    10.0   .     S
F30     S41    10.0   1_554     S
F30     V37    10.0   .     S
F30     He115    10.0   .     S
F31     O64    10.0   .     S
F31     S62    10.0   .     S
F31     V35    10.0   .     S
F32     O48    10.0   .     S
F32     S46    10.0   1_554     S
F32     V53    10.0   .     S
H33     Li28    10.0   1_565     S
H33     V37    10.0   .     S
H33     B65    10.0   .     S
H33     Ti150    10.0   .     S
H34     Li26    10.0   1_455     S
H34     V35    10.0   .     S
H34     B66    10.0   .     S
H34     Ti83    10.0   .     S
V35     C38    10.0   .     S
V35     C36    10.0   .     S
C36     B66    10.0   .     S
C36     V37    10.0   .     S
C36     O43    10.0   .     S
V37     C38    10.0   .     S
C38     B65    10.0   .     S
C38     O64    10.0   .     S
N39     B66    10.0   1_556     S
N39     B111    10.0   .     S
N39     O43    10.0   1_556     S
N39     Ti45    10.0   .     S
Ti40     Be114    10.0   .     S
Ti40     N44    10.0   .     S
Ti40     Er42    10.0   .     S
Ti40     H94    10.0   .     S
S41     F30    10.0   1_556     S
S41     Be114    10.0   .     S
S41     Er47    10.0   .     S
S41     Er42    10.0   .     S
Er42     S46    10.0   .     S
Er42     O48    10.0   1_556     S
O43     Er47    10.0   1_554     S
O43     N39    10.0   1_554     S
N44     B67    10.0   1_556     S
N44     B112    10.0   .     S
N44     O48    10.0   1_556     S
Ti45     Er47    10.0   .     S
Ti45     H88    10.0   .     S
S46     F32    10.0   1_556     S
S46     Er47    10.0   .     S
Er47     O43    10.0   1_556     S
O48     Er42    10.0   1_554     S
O48     N44    10.0   1_554     S
O48     C52    10.0   .     S
H49     Li25    10.0   1_655     S
H49     V51    10.0   .     S
H49     B67    10.0   .     S
H49     Ti78    10.0   .     S
H50     Li27    10.0   1_545     S
H50     V53    10.0   .     S
H50     B68    10.0   .     S
H50     Ti155    10.0   .     S
V51     C54    10.0   .     S
V51     C52    10.0   .     S
C52     B67    10.0   .     S
C52     V53    10.0   .     S
V53     C54    10.0   .     S
C54     B68    10.0   .     S
C54     O59    10.0   .     S
N55     B68    10.0   .     S
N55     B161    10.0   .     S
N55     O59    10.0   .     S
N55     Ti61    10.0   .     S
Ti56     N60    10.0   .     S
Ti56     Er58    10.0   .     S
Ti56     H128    10.0   .     S
S57     Er63    10.0   .     S
S57     Er58    10.0   .     S
Er58     S62    10.0   .     S
Er58     O64    10.0   .     S
O59     Er63    10.0   .     S
N60     B65    10.0   .     S
N60     B159    10.0   .     S
N60     O64    10.0   .     S
Ti61     Er63    10.0   .     S
Ti61     H144    10.0   .     S
S62     Er63    10.0   .     S
B65     N154    10.0   .     S
B66     N39    10.0   1_554     S
B66     N77    10.0   .     S
B67     N44    10.0   1_554     S
B67     N82    10.0   .     S
B68     N149    10.0   .     S
Li69     Be114    10.0   .     S
Li69     Ce113    10.0   .     S
Li69     H94    10.0   .     S
Li70     H88    10.0   .     S
Li70     Ce163    10.001   .     S
Li71     H93    10.0   1_565     S
Li71     Ce113    10.001   .     S
Li72     Be164    10.0   .     S
Li72     Ce163    10.0   .     S
Li72     H87    10.0   1_545     S
F73     O108    10.0   .     S
F73     S106    10.0   .     S
F73     V95    10.0   .     S
F74     O103    10.0   .     S
F74     S101    10.0   .     S
F74     V89    10.0   .     S
F74     He168    10.0   .     S
F75     O86    10.0   .     S
F75     S84    10.0   1_556     S
F75     V97    10.0   .     S
F75     He118    10.0   .     S
F76     O81    10.0   .     S
F76     S79    10.0   1_556     S
F76     V91    10.0   .     S
N77     B111    10.0   1_554     S
N77     O81    10.0   1_554     S
N77     Ti83    10.0   .     S
Ti78     Be23    10.0   1_655     S
Ti78     N82    10.0   .     S
Ti78     Er80    10.0   .     S
S79     F76    10.0   1_554     S
S79     Er85    10.0   .     S
S79     Er80    10.0   1_455     S
Er80     S79    10.0   1_655     S
Er80     S84    10.0   .     S
Er80     O86    10.0   1_554     S
O81     Er85    10.0   1_556     S
O81     N77    10.0   1_556     S
O81     C90    10.0   .     S
N82     B112    10.0   1_554     S
N82     O86    10.0   1_554     S
Ti83     Be117    10.0   1_455     S
Ti83     Er85    10.0   .     S
S84     F75    10.0   1_554     S
S84     Be117    10.0   .     S
S84     Er85    10.0   1_655     S
Er85     O81    10.0   1_554     S
Er85     S84    10.0   1_455     S
O86     Er80    10.0   1_556     S
O86     N82    10.0   1_556     S
O86     C96    10.0   .     S
H87     Li72    10.0   1_565     S
H87     V91    10.0   .     S
H87     B110    10.0   .     S
H87     Ti134    10.0   .     S
H88     V89    10.0   .     S
H88     B111    10.0   .     S
V89     C92    10.0   .     S
V89     C90    10.0   .     S
C90     B111    10.0   .     S
C90     V91    10.0   .     S
V91     C92    10.0   .     S
C92     B110    10.0   .     S
C92     O103    10.0   .     S
H93     Li71    10.0   1_545     S
H93     V97    10.0   .     S
H93     B109    10.0   .     S
H93     Ti139    10.0   .     S
H94     V95    10.0   .     S
H94     B112    10.0   .     S
V95     C98    10.0   .     S
V95     C96    10.0   .     S
C96     B112    10.0   .     S
C96     V97    10.0   .     S
V97     C98    10.0   .     S
C98     B109    10.0   .     S
C98     O108    10.0   .     S
N99     B110    10.0   .     S
N99     B160    10.0   .     S
N99     O103    10.0   .     S
N99     Ti105    10.0   .     S
Ti100     Be167    10.0   1_655     S
Ti100     N104    10.0   .     S
Ti100     Er102    10.0   .     S
Ti100     H143    10.0   .     S
S101     Be167    10.0   .     S
S101     Er107    10.0   .     S
S101     Er102    10.0   1_455     S
Er102     S101    10.0   1_655     S
Er102     S106    10.0   .     S
Er102     O108    10.0   .     S
O103     Er107    10.0   .     S
N104     B109    10.0   .     S
N104     B162    10.0   .     S
N104     O108    10.0   .     S
Ti105     Be5    10.0   1_455     S
Ti105     Er107    10.0   .     S
Ti105     H127    10.0   .     S
S106     Er107    10.0   1_655     S
Er107     S106    10.0   1_455     S
B109     N133    10.0   .     S
B110     N138    10.0   .     S
B111     N77    10.0   1_556     S
B112     N82    10.0   1_556     S
Ce113     He115    9.999   1_556     S
Ce113     He118    10.0   1_565     S
Be114     He115    10.0   1_556     S
He115     Ce113    9.999   1_554     S
He115     Be114    10.0   1_554     S
He115     Ce116    10.0   1_565     S
Ce116     He118    9.999   1_554     S
Ce116     He115    10.0   1_545     S
Be117     Ti83    10.0   1_655     S
Be117     He118    10.0   1_554     S
He118     Ce113    10.0   1_545     S
He118     Ce116    9.999   1_556     S
He118     Be117    10.0   1_556     S
Li119     Be167    10.0   .     S
Li119     Ce166    10.0   .     S
Li119     H143    10.0   1_455     S
Li120     H127    10.0   1_655     S
Li121     H144    10.0   .     S
Li121     Ce166    10.001   .     S
Li122     H128    10.0   .     S
F123     O142    10.0   .     S
F123     S140    10.0   .     S
F123     V131    10.0   .     S
F124     O153    10.0   .     S
F124     S151    10.0   .     S
F124     V147    10.0   .     S
F125     O137    10.0   .     S
F125     S135    10.0   .     S
F125     V145    10.0   .     S
F125     He165    10.0   .     S
F126     O158    10.0   .     S
F126     S156    10.0   .     S
F126     V129    10.0   .     S
H127     Li120    10.0   1_455     S
H127     V129    10.0   .     S
H127     B160    10.0   .     S
H128     V131    10.0   .     S
H128     B159    10.0   .     S
V129     C132    10.0   .     S
V129     C130    10.0   .     S
C130     B160    10.0   .     S
C130     V131    10.0   .     S
C130     O142    10.0   .     S
V131     C132    10.0   .     S
C132     B159    10.0   .     S
C132     O158    10.0   .     S
N133     B162    10.0   .     S
N133     O137    10.0   .     S
N133     Ti139    10.0   .     S
Ti134     Be164    10.0   1_565     S
Ti134     N138    10.0   .     S
Ti134     Er136    10.0   .     S
S135     Be164    10.0   .     S
S135     Er141    10.0   .     S
S135     Er136    10.0   1_545     S
Er136     S135    10.0   1_565     S
Er136     S140    10.0   .     S
Er136     O142    10.0   .     S
O137     Er141    10.0   .     S
O137     C148    10.0   .     S
N138     B160    10.0   .     S
N138     O142    10.0   .     S
Ti139     Be2    10.0   1_545     S
Ti139     Er141    10.0   .     S
S140     Er141    10.0   1_565     S
Er141     S140    10.0   1_545     S
H143     Li119    10.0   1_655     S
H143     V147    10.0   .     S
H143     B162    10.0   .     S
H144     V145    10.0   .     S
H144     B161    10.0   .     S
V145     C148    10.0   .     S
V145     C146    10.0   .     S
C146     B161    10.0   .     S
C146     V147    10.0   .     S
C146     O153    10.0   .     S
V147     C148    10.0   .     S
C148     B162    10.0   .     S
N149     B161    10.0   .     S
N149     O153    10.0   .     S
N149     Ti155    10.0   .     S
Ti150     Be8    10.0   1_565     S
Ti150     N154    10.0   .     S
Ti150     Er152    10.0   .     S
S151     Er157    10.0   .     S
S151     Er152    10.0   1_545     S
Er152     S151    10.0   1_565     S
Er152     S156    10.0   .     S
Er152     O158    10.0   .     S
O153     Er157    10.0   .     S
N154     B159    10.0   .     S
N154     O158    10.0   .     S
Ti155     Be14    10.0   1_545     S
Ti155     Er157    10.0   .     S
S156     Er157    10.0   1_565     S
Er157     S156    10.0   1_545     S
Ce163     He165    9.999   .     S
Ce163     He168    10.0   .     S
Be164     Ti134    10.0   1_545     S
Be164     He165    10.0   .     S
He165     Ce166    10.0   .     S
Ce166     He168    9.999   .     S
Be167     Ti100    10.0   1_455     S
Be167     He168    10.0   .     S
