data_qza
_audit_creation_date              2020-02-02
_audit_creation_method            'Pymatgen'
_symmetry_space_group_name_H-M    'P1'
_symmetry_Int_Tables_number       1
loop_
_symmetry_equiv_pos_as_xyz
  x,y,z
_cell_length_a                    23.0875
_cell_length_b                    23.0875
_cell_length_c                    38.7517
_cell_angle_alpha                 90.0
_cell_angle_beta                 90.0
_cell_angle_gamma                 120.0
loop_
_atom_site_label
_atom_site_type_symbol
_atom_site_fract_x
_atom_site_fract_y
_atom_site_fract_z
Er1     Er     0.5   0.0   0.0
V2     V     0.2501   0.625   0.8333
V3     V     0.7499   0.375   0.8333
Er4     Er     0.0   0.5   0.3333
V5     V     0.625   0.375   0.1667
V6     V     0.375   0.625   0.1667
Er7     Er     0.5   0.5   0.6667
V8     V     0.625   0.2501   0.5
V9     V     0.375   0.7499   0.5
loop_
_geom_bond_atom_site_label_1
_geom_bond_atom_site_label_2
_geom_bond_distance
_geom_bond_site_symmetry_2
_ccdc_geom_bond_type
Er1     V3    10.0   1_554     S
Er1     V2    10.0   1_544     S
Er1     V5    10.0   .     S
Er1     V6    10.0   1_545     S
V2     Er1    10.0   1_566     S
V2     Er7    10.0   .     S
V2     V3    10.0   1_455     S
V3     Er1    10.0   1_556     S
V3     Er7    10.0   .     S
V3     V2    10.0   1_655     S
Er4     V9    10.0   .     S
Er4     V6    10.0   .     S
Er4     V5    10.0   1_455     S
Er4     V8    10.0   1_455     S
V5     Er4    10.0   1_655     S
V5     V6    10.0   .     S
V6     Er1    10.0   1_565     S
Er7     V9    10.0   .     S
Er7     V8    10.0   .     S
V8     Er4    10.0   1_655     S
V8     V9    10.0   1_545     S
V9     V8    10.0   1_565     S
