data_qzd
_audit_creation_date              2020-02-02
_audit_creation_method            'Pymatgen'
_symmetry_space_group_name_H-M    'P1'
_symmetry_Int_Tables_number       1
loop_
_symmetry_equiv_pos_as_xyz
  x,y,z
_cell_length_a                    20.0
_cell_length_b                    20.0
_cell_length_c                    30.0
_cell_angle_alpha                 90.0
_cell_angle_beta                 90.0
_cell_angle_gamma                 120.0
loop_
_atom_site_label
_atom_site_type_symbol
_atom_site_fract_x
_atom_site_fract_y
_atom_site_fract_z
V1     V     0.0   0.0   0.3333
V2     V     0.0   0.5   0.3333
V3     V     0.5   0.0   0.3333
V4     V     0.5   0.5   0.3333
V5     V     0.0   0.0   0.0
V6     V     0.0   0.5   0.0
V7     V     0.5   0.0   0.0
V8     V     0.5   0.5   0.0
V9     V     0.0   0.0   0.6667
V10     V     0.0   0.5   0.6667
V11     V     0.5   0.0   0.6667
V12     V     0.5   0.5   0.6667
loop_
_geom_bond_atom_site_label_1
_geom_bond_atom_site_label_2
_geom_bond_distance
_geom_bond_site_symmetry_2
_ccdc_geom_bond_type
V1     V5    10.0   .     S
V1     V4    10.0   .     S
V1     V4    10.0   1_445     S
V1     V9    10.0   .     S
V2     V6    10.0   .     S
V2     V3    10.0   1_565     S
V2     V3    10.0   1_455     S
V2     V10    10.0   .     S
V3     V7    10.0   .     S
V3     V2    10.0   1_545     S
V3     V2    10.0   1_655     S
V3     V11    10.0   .     S
V4     V8    10.0   .     S
V4     V1    10.0   1_665     S
V4     V12    10.0   .     S
V5     V9    10.0   1_554     S
V5     V7    10.0   .     S
V5     V7    10.0   1_455     S
V6     V10    10.0   1_554     S
V6     V8    10.0   .     S
V6     V8    10.0   1_455     S
V7     V11    10.0   1_554     S
V7     V5    10.0   1_655     S
V8     V12    10.0   1_554     S
V8     V6    10.0   1_655     S
V9     V5    10.0   1_556     S
V9     V10    10.0   .     S
V9     V10    10.0   1_545     S
V10     V6    10.0   1_556     S
V10     V9    10.0   1_565     S
V11     V7    10.0   1_556     S
V11     V12    10.0   .     S
V11     V12    10.0   1_545     S
V12     V8    10.0   1_556     S
V12     V11    10.0   1_565     S
