data_qzda
_audit_creation_date              2020-02-02
_audit_creation_method            'Pymatgen'
_symmetry_space_group_name_H-M    'P1'
_symmetry_Int_Tables_number       1
loop_
_symmetry_equiv_pos_as_xyz
  x,y,z
_cell_length_a                    26.8407
_cell_length_b                    26.8407
_cell_length_c                    62.3654
_cell_angle_alpha                 90.0
_cell_angle_beta                 90.0
_cell_angle_gamma                 120.0
loop_
_atom_site_label
_atom_site_type_symbol
_atom_site_fract_x
_atom_site_fract_y
_atom_site_fract_z
Er1     Er     0.3137   0.3137   0.8333
Er2     Er     0.3137   0.0   0.5
Er3     Er     0.6863   0.6863   0.8333
V4     V     0.0   0.0   0.5865
V5     V     0.0   0.0   0.7468
Er6     Er     0.6863   0.0   0.5
V7     V     0.0   0.0   0.2532
V8     V     0.0   0.0   0.4135
Er9     Er     0.0   0.6863   0.1667
V10     V     0.0   0.0   0.9198
V11     V     0.0   0.0   0.0802
Er12     Er     0.0   0.3137   0.1667
loop_
_geom_bond_atom_site_label_1
_geom_bond_atom_site_label_2
_geom_bond_distance
_geom_bond_site_symmetry_2
_ccdc_geom_bond_type
Er1     V10    10.0   .     S
Er1     V5    10.0   .     S
Er1     Er3    10.0   .     S
Er2     V4    10.0   .     S
Er2     V8    10.0   .     S
Er2     Er6    10.0   .     S
Er3     V10    10.0   1_665     S
Er3     V5    10.0   1_665     S
V4     V5    10.0   .     S
V4     Er6    10.0   1_455     S
V5     Er3    10.0   1_445     S
Er6     V4    10.0   1_655     S
Er6     V8    10.0   1_655     S
V7     V8    10.0   .     S
V7     Er9    10.0   1_545     S
V7     Er12    10.0   .     S
V8     Er6    10.0   1_455     S
Er9     V7    10.0   1_565     S
Er9     V11    10.0   1_565     S
Er9     Er12    10.0   .     S
V10     Er3    10.0   1_445     S
V10     V11    10.0   1_556     S
V11     Er9    10.0   1_545     S
V11     V10    10.0   1_554     S
V11     Er12    10.0   .     S
