data_qzj
_audit_creation_date              2020-02-02
_audit_creation_method            'Pymatgen'
_symmetry_space_group_name_H-M    'P1'
_symmetry_Int_Tables_number       1
loop_
_symmetry_equiv_pos_as_xyz
  x,y,z
_cell_length_a                    46.5436
_cell_length_b                    46.5436
_cell_length_c                    46.5436
_cell_angle_alpha                 90.0
_cell_angle_beta                 90.0
_cell_angle_gamma                 90.0
loop_
_atom_site_label
_atom_site_type_symbol
_atom_site_fract_x
_atom_site_fract_y
_atom_site_fract_z
Ce1     Ce     0.124   0.124   0.124
Er2     Er     0.0   0.0   0.0
Ce3     Ce     0.124   0.876   0.876
Ce4     Ce     0.876   0.876   0.124
Ce5     Ce     0.876   0.124   0.876
V6     V     0.276   0.276   0.124
V7     V     0.276   0.124   0.276
V8     V     0.124   0.276   0.276
Ti9     Ti     0.424   0.424   0.076
Ti10     Ti     0.576   0.576   0.076
Ti11     Ti     0.424   0.576   0.924
Ti12     Ti     0.576   0.424   0.924
V13     V     0.724   0.124   0.724
V14     V     0.724   0.276   0.876
V15     V     0.876   0.276   0.724
V16     V     0.124   0.724   0.724
V17     V     0.276   0.724   0.876
V18     V     0.276   0.876   0.724
Ti19     Ti     0.576   0.076   0.576
Ti20     Ti     0.424   0.076   0.424
Ti21     Ti     0.576   0.924   0.424
Ti22     Ti     0.424   0.924   0.576
Ti23     Ti     0.076   0.424   0.424
Ti24     Ti     0.076   0.576   0.576
Ti25     Ti     0.924   0.576   0.424
Ti26     Ti     0.924   0.424   0.576
V27     V     0.724   0.724   0.124
V28     V     0.724   0.876   0.276
V29     V     0.876   0.724   0.276
loop_
_geom_bond_atom_site_label_1
_geom_bond_atom_site_label_2
_geom_bond_distance
_geom_bond_site_symmetry_2
_ccdc_geom_bond_type
Ce1     Er2    10.0   .     S
Ce1     V6    10.0   .     S
Ce1     V7    10.0   .     S
Ce1     V8    10.0   .     S
Er2     Ce3    10.0   1_544     S
Er2     Ce4    10.0   1_445     S
Er2     Ce5    10.0   1_454     S
Ce3     Er2    10.0   1_566     S
Ce3     V16    10.0   .     S
Ce3     V17    10.0   .     S
Ce3     V18    10.0   .     S
Ce4     Er2    10.0   1_665     S
Ce4     V27    10.0   .     S
Ce4     V28    10.0   .     S
Ce4     V29    10.0   .     S
Ce5     Er2    10.0   1_656     S
Ce5     V13    10.0   .     S
Ce5     V14    10.0   .     S
Ce5     V15    10.0   .     S
V6     Ti9    10.0   .     S
V6     V7    10.0   .     S
V6     V8    10.0   .     S
V7     Ti20    10.0   .     S
V7     V8    10.0   .     S
V8     Ti23    10.0   .     S
Ti9     Ti11    10.0   1_554     S
Ti9     Ti12    10.0   1_554     S
Ti9     Ti10    10.0   .     S
Ti10     Ti11    10.0   1_554     S
Ti10     Ti12    10.0   1_554     S
Ti10     V27    10.0   .     S
Ti11     Ti9    10.0   1_556     S
Ti11     Ti10    10.0   1_556     S
Ti11     Ti12    10.0   .     S
Ti11     V17    10.0   .     S
Ti12     Ti9    10.0   1_556     S
Ti12     Ti10    10.0   1_556     S
Ti12     V14    10.0   .     S
V13     Ti19    10.0   .     S
V13     V15    10.0   .     S
V13     V14    10.0   .     S
V14     V15    10.0   .     S
V15     Ti26    10.0   .     S
V16     Ti24    10.0   .     S
V16     V18    10.0   .     S
V16     V17    10.0   .     S
V17     V18    10.0   .     S
V18     Ti22    10.0   .     S
Ti19     Ti21    10.0   1_545     S
Ti19     Ti22    10.0   1_545     S
Ti19     Ti20    10.0   .     S
Ti20     Ti22    10.0   1_545     S
Ti20     Ti21    10.0   1_545     S
Ti21     Ti19    10.0   1_565     S
Ti21     Ti20    10.0   1_565     S
Ti21     Ti22    10.0   .     S
Ti21     V28    10.0   .     S
Ti22     Ti19    10.0   1_565     S
Ti22     Ti20    10.0   1_565     S
Ti23     Ti26    10.0   1_455     S
Ti23     Ti25    10.0   1_455     S
Ti23     Ti24    10.0   .     S
Ti24     Ti25    10.0   1_455     S
Ti24     Ti26    10.0   1_455     S
Ti25     Ti23    10.0   1_655     S
Ti25     Ti24    10.0   1_655     S
Ti25     Ti26    10.0   .     S
Ti25     V29    10.0   .     S
Ti26     Ti23    10.0   1_655     S
Ti26     Ti24    10.0   1_655     S
V27     V28    10.0   .     S
V27     V29    10.0   .     S
V28     V29    10.0   .     S
