data_rad
_audit_creation_date              2020-02-02
_audit_creation_method            'Pymatgen'
_symmetry_space_group_name_H-M    'P1'
_symmetry_Int_Tables_number       1
loop_
_symmetry_equiv_pos_as_xyz
  x,y,z
_cell_length_a                    43.3663
_cell_length_b                    66.6309
_cell_length_c                    17.206
_cell_angle_alpha                 90.0
_cell_angle_beta                 90.0
_cell_angle_gamma                 90.0
loop_
_atom_site_label
_atom_site_type_symbol
_atom_site_fract_x
_atom_site_fract_y
_atom_site_fract_z
Er1     Er     0.691   0.68   0.75
V2     V     0.6153   0.7385   0.25
Er3     Er     0.309   0.68   0.75
V4     V     0.3847   0.7385   0.25
Er5     Er     0.191   0.82   0.25
V6     V     0.1153   0.7615   0.75
Er7     Er     0.809   0.82   0.25
V8     V     0.8847   0.7615   0.75
Ti9     Ti     0.6153   0.5382   0.75
Ti10     Ti     0.3847   0.5382   0.75
Ti11     Ti     0.6153   0.4618   0.25
Ti12     Ti     0.3847   0.4618   0.25
Ti13     Ti     0.8847   0.0382   0.75
Ti14     Ti     0.1153   0.0382   0.75
Ti15     Ti     0.8847   0.9618   0.25
Ti16     Ti     0.1153   0.9618   0.25
Er17     Er     0.691   0.32   0.25
V18     V     0.6153   0.2615   0.75
Er19     Er     0.309   0.32   0.25
V20     V     0.3847   0.2615   0.75
Er21     Er     0.191   0.18   0.75
V22     V     0.1153   0.2385   0.25
Er23     Er     0.809   0.18   0.75
V24     V     0.8847   0.2385   0.25
loop_
_geom_bond_atom_site_label_1
_geom_bond_atom_site_label_2
_geom_bond_distance
_geom_bond_site_symmetry_2
_ccdc_geom_bond_type
Er1     V8    10.0   .     S
Er1     V2    10.0   1_556     S
Er1     V2    10.0   .     S
Er1     Ti9    10.0   .     S
V2     Er1    10.0   1_554     S
V2     V4    10.0   .     S
V2     Er7    10.0   .     S
Er3     V6    10.0   .     S
Er3     V4    10.0   .     S
Er3     V4    10.0   1_556     S
Er3     Ti10    10.0   .     S
V4     Er3    10.0   1_554     S
V4     Er5    10.0   .     S
Er5     V6    10.0   .     S
Er5     V6    10.0   1_554     S
Er5     Ti16    10.0   .     S
V6     Er5    10.0   1_556     S
V6     V8    10.0   1_455     S
Er7     V8    10.0   .     S
Er7     V8    10.0   1_554     S
Er7     Ti15    10.0   .     S
V8     Er7    10.0   1_556     S
V8     V6    10.0   1_655     S
Ti9     Ti10    9.999   .     S
Ti9     Ti11    10.0   .     S
Ti9     Ti11    10.0   1_556     S
Ti10     Ti12    10.0   1_556     S
Ti10     Ti12    10.0   .     S
Ti11     Ti12    9.999   .     S
Ti11     Ti9    10.0   1_554     S
Ti11     Er17    10.0   .     S
Ti12     Ti10    10.0   1_554     S
Ti12     Er19    10.0   .     S
Ti13     Ti14    9.999   1_655     S
Ti13     Ti15    10.0   1_546     S
Ti13     Ti15    10.0   1_545     S
Ti13     Er23    10.0   .     S
Ti14     Ti13    9.999   1_455     S
Ti14     Ti16    10.0   1_545     S
Ti14     Ti16    10.0   1_546     S
Ti14     Er21    10.0   .     S
Ti15     Ti16    9.999   1_655     S
Ti15     Ti13    10.0   1_564     S
Ti15     Ti13    10.0   1_565     S
Ti16     Ti15    9.999   1_455     S
Ti16     Ti14    10.0   1_565     S
Ti16     Ti14    10.0   1_564     S
Er17     V24    10.0   .     S
Er17     V18    10.0   .     S
Er17     V18    10.0   1_554     S
V18     Er17    10.0   1_556     S
V18     V20    10.0   .     S
V18     Er23    10.0   .     S
Er19     V22    10.0   .     S
Er19     V20    10.0   .     S
Er19     V20    10.0   1_554     S
V20     Er19    10.0   1_556     S
V20     Er21    10.0   .     S
Er21     V22    10.0   1_556     S
Er21     V22    10.0   .     S
V22     Er21    10.0   1_554     S
V22     V24    10.0   1_455     S
Er23     V24    10.0   .     S
Er23     V24    10.0   1_556     S
V24     Er23    10.0   1_554     S
V24     V22    10.0   1_655     S
