data_reoda
_audit_creation_date              2020-02-02
_audit_creation_method            'Pymatgen'
_symmetry_space_group_name_H-M    'P1'
_symmetry_Int_Tables_number       1
loop_
_symmetry_equiv_pos_as_xyz
  x,y,z
_cell_length_a                    33.094
_cell_length_b                    33.094
_cell_length_c                    33.094
_cell_angle_alpha                 90.0
_cell_angle_beta                 90.0
_cell_angle_gamma                 90.0
loop_
_atom_site_label
_atom_site_type_symbol
_atom_site_fract_x
_atom_site_fract_y
_atom_site_fract_z
V1     V     0.6745   0.6745   0.6745
V2     V     0.3255   0.3255   0.6745
V3     V     0.6745   0.3255   0.3255
V4     V     0.3255   0.6745   0.3255
Er5     Er     0.8489   0.1511   0.8489
Er6     Er     0.1511   0.1511   0.8489
Er7     Er     0.1511   0.8489   0.8489
Er8     Er     0.1511   0.8489   0.1511
Er9     Er     0.8489   0.8489   0.1511
Er10     Er     0.1511   0.1511   0.1511
Er11     Er     0.8489   0.1511   0.1511
Er12     Er     0.8489   0.8489   0.8489
Ti13     Ti     0.5   0.5   0.1511
Ti14     Ti     0.5   0.5   0.8489
V15     V     0.3255   0.3255   0.3255
V16     V     0.3255   0.6745   0.6745
Ti17     Ti     0.5   0.1511   0.5
Ti18     Ti     0.5   0.8489   0.5
V19     V     0.6745   0.3255   0.6745
V20     V     0.6745   0.6745   0.3255
Ti21     Ti     0.1511   0.5   0.5
Ti22     Ti     0.8489   0.5   0.5
loop_
_geom_bond_atom_site_label_1
_geom_bond_atom_site_label_2
_geom_bond_distance
_geom_bond_site_symmetry_2
_ccdc_geom_bond_type
V1     Er12    10.0   .     S
V1     Ti14    10.0   .     S
V1     Ti18    10.0   .     S
V1     Ti22    10.0   .     S
V2     Ti14    10.0   .     S
V2     Er6    10.0   .     S
V2     Ti17    10.0   .     S
V2     Ti21    10.0   .     S
V3     Ti22    10.0   .     S
V3     Er11    10.0   .     S
V3     Ti13    10.0   .     S
V3     Ti17    10.0   .     S
V4     Ti18    10.0   .     S
V4     Er8    10.0   .     S
V4     Ti13    10.0   .     S
V4     Ti21    10.0   .     S
Er5     Er12    10.0   1_545     S
Er5     Er6    10.0   1_655     S
Er5     Er11    10.0   1_556     S
Er5     V19    10.0   .     S
Er6     Er7    10.0   1_545     S
Er6     Er5    10.0   1_455     S
Er6     Er10    10.0   1_556     S
Er7     Er6    10.0   1_565     S
Er7     Er12    10.0   1_455     S
Er7     Er8    10.0   1_556     S
Er7     V16    10.0   .     S
Er8     Er7    10.0   1_554     S
Er8     Er9    10.0   1_455     S
Er8     Er10    10.0   1_565     S
Er9     Er8    10.0   1_655     S
Er9     Er12    10.0   1_554     S
Er9     Er11    10.0   1_565     S
Er9     V20    10.0   .     S
Er10     Er6    10.0   1_554     S
Er10     Er11    10.0   1_455     S
Er10     Er8    10.0   1_545     S
Er10     V15    10.0   .     S
Er11     Er10    10.0   1_655     S
Er11     Er5    10.0   1_554     S
Er11     Er9    10.0   1_545     S
Er12     Er5    10.0   1_565     S
Er12     Er7    10.0   1_655     S
Er12     Er9    10.0   1_556     S
Ti13     Ti14    10.0   1_554     S
Ti13     V20    10.0   .     S
Ti13     V15    10.0   .     S
Ti14     Ti13    10.0   1_556     S
Ti14     V16    10.0   .     S
Ti14     V19    10.0   .     S
V15     Ti21    10.0   .     S
V15     Ti17    10.0   .     S
V16     Ti21    10.0   .     S
V16     Ti18    10.0   .     S
Ti17     Ti18    10.0   1_545     S
Ti17     V19    10.0   .     S
Ti18     Ti17    10.0   1_565     S
Ti18     V20    10.0   .     S
V19     Ti22    10.0   .     S
V20     Ti22    10.0   .     S
Ti21     Ti22    10.0   1_455     S
Ti22     Ti21    10.0   1_655     S
