data_reot
_audit_creation_date              2020-02-02
_audit_creation_method            'Pymatgen'
_symmetry_space_group_name_H-M    'P1'
_symmetry_Int_Tables_number       1
loop_
_symmetry_equiv_pos_as_xyz
  x,y,z
_cell_length_a                    71.3783
_cell_length_b                    71.3783
_cell_length_c                    71.3783
_cell_angle_alpha                 90.0
_cell_angle_beta                 90.0
_cell_angle_gamma                 90.0
loop_
_atom_site_label
_atom_site_type_symbol
_atom_site_fract_x
_atom_site_fract_y
_atom_site_fract_z
Er1     Er     0.07   0.6691   0.57
Er2     Er     0.07   0.57   0.6691
Er3     Er     0.3309   0.57   0.93
Er4     Er     0.43   0.6691   0.93
Er5     Er     0.3309   0.93   0.57
Er6     Er     0.43   0.93   0.6691
Ti7     Ti     0.3491   0.75   0.8491
Ti8     Ti     0.25   0.6509   0.8491
Ti9     Ti     0.3491   0.8491   0.75
Ti10     Ti     0.25   0.8491   0.6509
V11     V     0.2682   0.93   0.8309
V12     V     0.2682   0.8309   0.93
V13     V     0.07   0.8309   0.7318
V14     V     0.1691   0.93   0.7318
Ti15     Ti     0.1509   0.75   0.6509
Ti16     Ti     0.1509   0.6509   0.75
V17     V     0.07   0.7318   0.8309
V18     V     0.1691   0.7318   0.93
Er19     Er     0.43   0.93   0.3309
Er20     Er     0.3309   0.93   0.43
Er21     Er     0.07   0.57   0.3309
Er22     Er     0.07   0.6691   0.43
Ti23     Ti     0.3491   0.75   0.1509
Ti24     Ti     0.25   0.6509   0.1509
V25     V     0.2682   0.8309   0.07
V26     V     0.2682   0.93   0.1691
V27     V     0.07   0.7318   0.1691
V28     V     0.1691   0.7318   0.07
Ti29     Ti     0.1509   0.75   0.3491
Ti30     Ti     0.1509   0.6509   0.25
V31     V     0.07   0.8309   0.2682
V32     V     0.1691   0.93   0.2682
Ti33     Ti     0.3491   0.8491   0.25
Ti34     Ti     0.25   0.8491   0.3491
Er35     Er     0.3309   0.57   0.07
Er36     Er     0.43   0.6691   0.07
Er37     Er     0.57   0.6691   0.93
Er38     Er     0.6691   0.57   0.93
Er39     Er     0.6691   0.93   0.57
Er40     Er     0.57   0.93   0.6691
Er41     Er     0.93   0.6691   0.57
Er42     Er     0.93   0.57   0.6691
Ti43     Ti     0.75   0.6509   0.8491
Ti44     Ti     0.6509   0.75   0.8491
V45     V     0.7318   0.93   0.8309
V46     V     0.7318   0.8309   0.93
Ti47     Ti     0.6509   0.8491   0.75
Ti48     Ti     0.75   0.8491   0.6509
V49     V     0.93   0.8309   0.7318
V50     V     0.8309   0.93   0.7318
Ti51     Ti     0.8491   0.75   0.6509
Ti52     Ti     0.8491   0.6509   0.75
V53     V     0.93   0.7318   0.8309
V54     V     0.8309   0.7318   0.93
Er55     Er     0.6691   0.57   0.07
Er56     Er     0.57   0.6691   0.07
Er57     Er     0.57   0.93   0.3309
Er58     Er     0.6691   0.93   0.43
Er59     Er     0.93   0.57   0.3309
Er60     Er     0.93   0.6691   0.43
Ti61     Ti     0.75   0.8491   0.3491
Ti62     Ti     0.6509   0.8491   0.25
Ti63     Ti     0.8491   0.75   0.3491
Ti64     Ti     0.8491   0.6509   0.25
V65     V     0.93   0.8309   0.2682
V66     V     0.8309   0.93   0.2682
V67     V     0.8309   0.7318   0.07
V68     V     0.93   0.7318   0.1691
Ti69     Ti     0.75   0.6509   0.1509
Ti70     Ti     0.6509   0.75   0.1509
V71     V     0.7318   0.8309   0.07
V72     V     0.7318   0.93   0.1691
Er73     Er     0.6691   0.07   0.57
Er74     Er     0.57   0.07   0.6691
Er75     Er     0.93   0.3309   0.57
Er76     Er     0.93   0.43   0.6691
V77     V     0.8309   0.07   0.7318
V78     V     0.93   0.1691   0.7318
Ti79     Ti     0.75   0.1509   0.6509
Ti80     Ti     0.6509   0.1509   0.75
V81     V     0.7318   0.07   0.8309
V82     V     0.7318   0.1691   0.93
Ti83     Ti     0.75   0.3491   0.8491
Ti84     Ti     0.6509   0.25   0.8491
Ti85     Ti     0.8491   0.3491   0.75
Ti86     Ti     0.8491   0.25   0.6509
V87     V     0.93   0.2682   0.8309
V88     V     0.8309   0.2682   0.93
Er89     Er     0.57   0.3309   0.93
Er90     Er     0.6691   0.43   0.93
Er91     Er     0.93   0.43   0.3309
Er92     Er     0.93   0.3309   0.43
Er93     Er     0.57   0.07   0.3309
Er94     Er     0.6691   0.07   0.43
Ti95     Ti     0.8491   0.25   0.3491
Ti96     Ti     0.8491   0.3491   0.25
Ti97     Ti     0.75   0.3491   0.1509
Ti98     Ti     0.6509   0.25   0.1509
V99     V     0.8309   0.2682   0.07
V100     V     0.93   0.2682   0.1691
V101     V     0.7318   0.07   0.1691
V102     V     0.7318   0.1691   0.07
Ti103     Ti     0.75   0.1509   0.3491
Ti104     Ti     0.6509   0.1509   0.25
V105     V     0.8309   0.07   0.2682
V106     V     0.93   0.1691   0.2682
Er107     Er     0.57   0.3309   0.07
Er108     Er     0.6691   0.43   0.07
Er109     Er     0.43   0.3309   0.93
Er110     Er     0.3309   0.43   0.93
Er111     Er     0.3309   0.07   0.57
Er112     Er     0.43   0.07   0.6691
Er113     Er     0.07   0.3309   0.57
Er114     Er     0.07   0.43   0.6691
Ti115     Ti     0.25   0.3491   0.8491
Ti116     Ti     0.3491   0.25   0.8491
Ti117     Ti     0.3491   0.1509   0.75
Ti118     Ti     0.25   0.1509   0.6509
V119     V     0.2682   0.07   0.8309
V120     V     0.2682   0.1691   0.93
V121     V     0.07   0.1691   0.7318
V122     V     0.1691   0.07   0.7318
Ti123     Ti     0.1509   0.3491   0.75
Ti124     Ti     0.1509   0.25   0.6509
V125     V     0.07   0.2682   0.8309
V126     V     0.1691   0.2682   0.93
Er127     Er     0.3309   0.43   0.07
Er128     Er     0.43   0.3309   0.07
Er129     Er     0.43   0.07   0.3309
Er130     Er     0.3309   0.07   0.43
Er131     Er     0.07   0.3309   0.43
Er132     Er     0.07   0.43   0.3309
Ti133     Ti     0.25   0.1509   0.3491
Ti134     Ti     0.3491   0.1509   0.25
V135     V     0.2682   0.1691   0.07
V136     V     0.2682   0.07   0.1691
Ti137     Ti     0.3491   0.25   0.1509
Ti138     Ti     0.25   0.3491   0.1509
V139     V     0.07   0.2682   0.1691
V140     V     0.1691   0.2682   0.07
Ti141     Ti     0.1509   0.3491   0.25
Ti142     Ti     0.1509   0.25   0.3491
V143     V     0.07   0.1691   0.2682
V144     V     0.1691   0.07   0.2682
loop_
_geom_bond_atom_site_label_1
_geom_bond_atom_site_label_2
_geom_bond_distance
_geom_bond_site_symmetry_2
_ccdc_geom_bond_type
Er1     Er2    10.0   .     S
Er1     Ti15    10.0   .     S
Er1     Er41    10.0   1_455     S
Er1     Er22    10.0   .     S
Er2     Ti16    10.0   .     S
Er2     Er42    10.0   1_455     S
Er2     Er114    10.0   .     S
Er3     Er4    10.0   .     S
Er3     Ti8    10.0   .     S
Er3     Er35    10.0   1_556     S
Er3     Er110    10.0   .     S
Er4     Ti7    10.0   .     S
Er4     Er36    10.0   1_556     S
Er4     Er37    10.0   .     S
Er5     Er6    10.0   .     S
Er5     Ti10    10.0   .     S
Er5     Er111    10.0   1_565     S
Er5     Er20    10.0   .     S
Er6     Ti9    10.0   .     S
Er6     Er112    10.0   1_565     S
Er6     Er40    10.0   .     S
Ti7     V12    10.0   .     S
Ti7     Ti8    10.0   .     S
Ti7     Ti9    10.001   .     S
Ti8     V18    10.0   .     S
Ti8     Ti16    10.001   .     S
Ti9     V11    10.0   .     S
Ti9     Ti10    10.0   .     S
Ti10     V14    10.0   .     S
Ti10     Ti15    10.001   .     S
V11     V12    10.0   .     S
V11     V119    10.0   1_565     S
V11     V14    10.001   .     S
V12     V25    10.0   1_556     S
V12     V18    10.001   .     S
V13     V14    10.0   .     S
V13     Ti15    10.0   .     S
V13     V49    10.0   1_455     S
V13     V17    10.001   .     S
V14     V122    10.0   1_565     S
Ti15     Ti16    10.0   .     S
Ti16     V17    10.0   .     S
V17     V18    10.0   .     S
V17     V53    10.0   1_455     S
V18     V28    10.0   1_556     S
Er19     Er20    10.0   .     S
Er19     Ti33    10.0   .     S
Er19     Er129    10.0   1_565     S
Er19     Er57    10.0   .     S
Er20     Ti34    10.0   .     S
Er20     Er130    10.0   1_565     S
Er21     Er22    10.0   .     S
Er21     Ti30    10.0   .     S
Er21     Er59    10.0   1_455     S
Er21     Er132    10.0   .     S
Er22     Ti29    10.0   .     S
Er22     Er60    10.0   1_455     S
Ti23     V25    10.0   .     S
Ti23     Ti24    10.0   .     S
Ti23     Er36    10.0   .     S
Ti23     Ti33    10.001   .     S
Ti24     V28    10.0   .     S
Ti24     Er35    10.0   .     S
Ti24     Ti30    10.001   .     S
V25     V12    10.0   1_554     S
V25     V26    10.0   .     S
V25     V28    10.001   .     S
V26     Ti33    10.0   .     S
V26     V136    10.0   1_565     S
V26     V32    10.001   .     S
V27     V28    10.0   .     S
V27     Ti30    10.0   .     S
V27     V68    10.0   1_455     S
V27     V31    10.001   .     S
V28     V18    10.0   1_554     S
Ti29     V31    10.0   .     S
Ti29     Ti30    10.0   .     S
Ti29     Ti34    10.001   .     S
V31     V32    10.0   .     S
V31     V65    10.0   1_455     S
V32     Ti34    10.0   .     S
V32     V144    10.0   1_565     S
Ti33     Ti34    10.0   .     S
Er35     Er3    10.0   1_554     S
Er35     Er36    10.0   .     S
Er35     Er127    10.0   .     S
Er36     Er4    10.0   1_554     S
Er36     Er56    10.0   .     S
Er37     Er38    10.0   .     S
Er37     Ti44    10.0   .     S
Er37     Er56    10.0   1_556     S
Er38     Ti43    10.0   .     S
Er38     Er55    10.0   1_556     S
Er38     Er90    10.0   .     S
Er39     Er40    10.0   .     S
Er39     Ti48    10.0   .     S
Er39     Er73    10.0   1_565     S
Er39     Er58    10.0   .     S
Er40     Ti47    10.0   .     S
Er40     Er74    10.0   1_565     S
Er41     Er42    10.0   .     S
Er41     Ti51    10.0   .     S
Er41     Er1    10.0   1_655     S
Er41     Er60    10.0   .     S
Er42     Ti52    10.0   .     S
Er42     Er2    10.0   1_655     S
Er42     Er76    10.0   .     S
Ti43     V54    10.0   .     S
Ti43     Ti44    10.0   .     S
Ti43     Ti52    10.001   .     S
Ti44     V46    10.0   .     S
Ti44     Ti47    10.001   .     S
V45     V46    10.0   .     S
V45     Ti47    10.0   .     S
V45     V81    10.0   1_565     S
V45     V50    10.001   .     S
V46     V71    10.0   1_556     S
V46     V54    10.001   .     S
Ti47     Ti48    10.0   .     S
Ti48     V50    10.0   .     S
Ti48     Ti51    10.001   .     S
V49     V50    10.0   .     S
V49     Ti51    10.0   .     S
V49     V13    10.0   1_655     S
V49     V53    10.001   .     S
V50     V77    10.0   1_565     S
Ti51     Ti52    10.0   .     S
Ti52     V53    10.0   .     S
V53     V54    10.0   .     S
V53     V17    10.0   1_655     S
V54     V67    10.0   1_556     S
Er55     Er38    10.0   1_554     S
Er55     Er56    10.0   .     S
Er55     Ti69    10.0   .     S
Er55     Er108    10.0   .     S
Er56     Er37    10.0   1_554     S
Er56     Ti70    10.0   .     S
Er57     Er58    10.0   .     S
Er57     Ti62    10.0   .     S
Er57     Er93    10.0   1_565     S
Er58     Ti61    10.0   .     S
Er58     Er94    10.0   1_565     S
Er59     Er60    10.0   .     S
Er59     Ti64    10.0   .     S
Er59     Er21    10.0   1_655     S
Er59     Er91    10.0   .     S
Er60     Ti63    10.0   .     S
Er60     Er22    10.0   1_655     S
Ti61     V66    10.0   .     S
Ti61     Ti62    10.0   .     S
Ti61     Ti63    10.001   .     S
Ti62     V72    10.0   .     S
Ti62     Ti70    10.001   .     S
Ti63     V65    10.0   .     S
Ti63     Ti64    10.0   .     S
Ti64     V68    10.0   .     S
Ti64     Ti69    10.001   .     S
V65     V66    10.0   .     S
V65     V31    10.0   1_655     S
V65     V68    10.001   .     S
V66     V105    10.0   1_565     S
V66     V72    10.001   .     S
V67     V54    10.0   1_554     S
V67     V68    10.0   .     S
V67     Ti69    10.0   .     S
V67     V71    10.001   .     S
V68     V27    10.0   1_655     S
Ti69     Ti70    10.0   .     S
Ti70     V71    10.0   .     S
V71     V46    10.0   1_554     S
V71     V72    10.0   .     S
V72     V101    10.0   1_565     S
Er73     Er39    10.0   1_545     S
Er73     Er74    10.0   .     S
Er73     Ti79    10.0   .     S
Er73     Er94    10.0   .     S
Er74     Er40    10.0   1_545     S
Er74     Ti80    10.0   .     S
Er74     Er112    10.0   .     S
Er75     Er76    10.0   .     S
Er75     Ti86    10.0   .     S
Er75     Er113    10.0   1_655     S
Er75     Er92    10.0   .     S
Er76     Ti85    10.0   .     S
Er76     Er114    10.0   1_655     S
V77     V50    10.0   1_545     S
V77     V78    10.0   .     S
V77     Ti79    10.0   .     S
V77     V81    10.001   .     S
V78     Ti86    10.0   .     S
V78     V121    10.0   1_655     S
V78     V87    10.001   .     S
Ti79     Ti80    10.0   .     S
Ti79     Ti86    10.001   .     S
Ti80     V81    10.0   .     S
Ti80     Ti84    10.001   .     S
V81     V45    10.0   1_545     S
V81     V82    10.0   .     S
V82     Ti84    10.0   .     S
V82     V102    10.0   1_556     S
V82     V88    10.001   .     S
Ti83     V88    10.0   .     S
Ti83     Ti84    10.0   .     S
Ti83     Er90    10.0   .     S
Ti83     Ti85    10.001   .     S
Ti84     Er89    10.0   .     S
Ti85     V87    10.0   .     S
Ti85     Ti86    10.0   .     S
V87     V88    10.0   .     S
V87     V125    10.0   1_655     S
V88     V99    10.0   1_556     S
Er89     Er90    10.0   .     S
Er89     Er107    10.0   1_556     S
Er89     Er109    10.0   .     S
Er90     Er108    10.0   1_556     S
Er91     Er92    10.0   .     S
Er91     Ti96    10.0   .     S
Er91     Er132    10.0   1_655     S
Er92     Ti95    10.0   .     S
Er92     Er131    10.0   1_655     S
Er93     Er57    10.0   1_545     S
Er93     Er94    10.0   .     S
Er93     Ti104    10.0   .     S
Er93     Er129    10.0   .     S
Er94     Er58    10.0   1_545     S
Er94     Ti103    10.0   .     S
Ti95     V106    10.0   .     S
Ti95     Ti96    10.0   .     S
Ti95     Ti103    10.001   .     S
Ti96     V100    10.0   .     S
Ti96     Ti97    10.001   .     S
Ti97     V99    10.0   .     S
Ti97     Ti98    10.0   .     S
Ti97     Er108    10.0   .     S
Ti98     V102    10.0   .     S
Ti98     Er107    10.0   .     S
Ti98     Ti104    10.001   .     S
V99     V88    10.0   1_554     S
V99     V100    10.0   .     S
V99     V102    10.001   .     S
V100     V139    10.0   1_655     S
V100     V106    10.001   .     S
V101     V72    10.0   1_545     S
V101     V102    10.0   .     S
V101     Ti104    10.0   .     S
V101     V105    10.001   .     S
V102     V82    10.0   1_554     S
Ti103     V105    10.0   .     S
Ti103     Ti104    10.0   .     S
V105     V66    10.0   1_545     S
V105     V106    10.0   .     S
V106     V143    10.0   1_655     S
Er107     Er89    10.0   1_554     S
Er107     Er108    10.0   .     S
Er107     Er128    10.0   .     S
Er108     Er90    10.0   1_554     S
Er109     Er110    10.0   .     S
Er109     Ti116    10.0   .     S
Er109     Er128    10.0   1_556     S
Er110     Ti115    10.0   .     S
Er110     Er127    10.0   1_556     S
Er111     Er5    10.0   1_545     S
Er111     Er112    10.0   .     S
Er111     Ti118    10.0   .     S
Er111     Er130    10.0   .     S
Er112     Er6    10.0   1_545     S
Er112     Ti117    10.0   .     S
Er113     Er75    10.0   1_455     S
Er113     Er114    10.0   .     S
Er113     Ti124    10.0   .     S
Er113     Er131    10.0   .     S
Er114     Er76    10.0   1_455     S
Er114     Ti123    10.0   .     S
Ti115     V126    10.0   .     S
Ti115     Ti116    10.0   .     S
Ti115     Ti123    10.001   .     S
Ti116     V120    10.0   .     S
Ti116     Ti117    10.001   .     S
Ti117     V119    10.0   .     S
Ti117     Ti118    10.0   .     S
Ti118     V122    10.0   .     S
Ti118     Ti124    10.001   .     S
V119     V11    10.0   1_545     S
V119     V120    10.0   .     S
V119     V122    10.001   .     S
V120     V135    10.0   1_556     S
V120     V126    10.001   .     S
V121     V78    10.0   1_455     S
V121     V122    10.0   .     S
V121     Ti124    10.0   .     S
V121     V125    10.001   .     S
V122     V14    10.0   1_545     S
Ti123     V125    10.0   .     S
Ti123     Ti124    10.0   .     S
V125     V87    10.0   1_455     S
V125     V126    10.0   .     S
V126     V140    10.0   1_556     S
Er127     Er110    10.0   1_554     S
Er127     Er128    10.0   .     S
Er127     Ti138    10.0   .     S
Er128     Er109    10.0   1_554     S
Er128     Ti137    10.0   .     S
Er129     Er19    10.0   1_545     S
Er129     Er130    10.0   .     S
Er129     Ti134    10.0   .     S
Er130     Er20    10.0   1_545     S
Er130     Ti133    10.0   .     S
Er131     Er92    10.0   1_455     S
Er131     Er132    10.0   .     S
Er131     Ti142    10.0   .     S
Er132     Er91    10.0   1_455     S
Er132     Ti141    10.0   .     S
Ti133     V144    10.0   .     S
Ti133     Ti134    10.0   .     S
Ti133     Ti142    10.001   .     S
Ti134     V136    10.0   .     S
Ti134     Ti137    10.001   .     S
V135     V120    10.0   1_554     S
V135     V136    10.0   .     S
V135     Ti137    10.0   .     S
V135     V140    10.001   .     S
V136     V26    10.0   1_545     S
V136     V144    10.001   .     S
Ti137     Ti138    10.0   .     S
Ti138     V140    10.0   .     S
Ti138     Ti141    10.001   .     S
V139     V100    10.0   1_455     S
V139     V140    10.0   .     S
V139     Ti141    10.0   .     S
V139     V143    10.001   .     S
V140     V126    10.0   1_554     S
Ti141     Ti142    10.0   .     S
Ti142     V143    10.0   .     S
V143     V106    10.0   1_455     S
V143     V144    10.0   .     S
V144     V32    10.0   1_545     S
