data_rgd
_audit_creation_date              2020-02-02
_audit_creation_method            'Pymatgen'
_symmetry_space_group_name_H-M    'P1'
_symmetry_Int_Tables_number       1
loop_
_symmetry_equiv_pos_as_xyz
  x,y,z
_cell_length_a                    27.5354
_cell_length_b                    27.5354
_cell_length_c                    19.1728
_cell_angle_alpha                 90.0
_cell_angle_beta                 90.0
_cell_angle_gamma                 120.0
loop_
_atom_site_label
_atom_site_type_symbol
_atom_site_fract_x
_atom_site_fract_y
_atom_site_fract_z
V1     V     0.211   0.422   0.0
V2     V     0.211   0.422   0.5
V3     V     0.578   0.789   0.0
V4     V     0.578   0.789   0.5
V5     V     0.5443   0.0887   0.3333
V6     V     0.5443   0.0887   0.8333
V7     V     0.5443   0.4557   0.3333
V8     V     0.5443   0.4557   0.8333
V9     V     0.9113   0.4557   0.3333
V10     V     0.9113   0.4557   0.8333
V11     V     0.8777   0.7554   0.1667
V12     V     0.8777   0.7554   0.6667
V13     V     0.2446   0.1223   0.1667
V14     V     0.2446   0.1223   0.6667
V15     V     0.8777   0.1223   0.1667
V16     V     0.8777   0.1223   0.6667
V17     V     0.211   0.789   0.0
V18     V     0.211   0.789   0.5
loop_
_geom_bond_atom_site_label_1
_geom_bond_atom_site_label_2
_geom_bond_distance
_geom_bond_site_symmetry_2
_ccdc_geom_bond_type
V1     V2    9.586   .     S
V1     V2    9.586   1_554     S
V1     V7    10.837   .     S
V1     V9    10.837   1_455     S
V1     V14    10.837   1_554     S
V1     V16    10.837   1_454     S
V1     V8    9.317   1_554     S
V1     V10    9.317   1_454     S
V1     V13    9.317   .     S
V1     V15    9.317   1_455     S
V1     V3    10.105   .     S
V1     V17    10.105   .     S
V2     V1    9.586   1_556     S
V2     V8    10.837   .     S
V2     V10    10.837   1_455     S
V2     V13    10.837   .     S
V2     V15    10.837   1_455     S
V2     V7    9.317   .     S
V2     V9    9.317   1_455     S
V2     V14    9.317   .     S
V2     V16    9.317   1_455     S
V2     V4    10.105   .     S
V2     V18    10.105   .     S
V3     V4    9.586   .     S
V3     V4    9.586   1_554     S
V3     V7    10.837   .     S
V3     V5    10.837   1_565     S
V3     V12    10.837   1_554     S
V3     V16    10.837   1_564     S
V3     V8    9.317   1_554     S
V3     V6    9.317   1_564     S
V3     V11    9.317   .     S
V3     V15    9.317   1_565     S
V3     V17    10.105   .     S
V4     V3    9.586   1_556     S
V4     V8    10.837   .     S
V4     V6    10.837   1_565     S
V4     V11    10.837   .     S
V4     V15    10.837   1_565     S
V4     V7    9.317   .     S
V4     V5    9.317   1_565     S
V4     V12    9.317   .     S
V4     V16    9.317   1_565     S
V4     V18    10.105   .     S
V5     V6    9.586   1_554     S
V5     V6    9.586   .     S
V5     V3    10.837   1_545     S
V5     V17    10.837   1_545     S
V5     V14    10.837   .     S
V5     V16    10.837   .     S
V5     V4    9.317   1_545     S
V5     V13    9.317   .     S
V5     V15    9.317   .     S
V5     V18    9.317   1_545     S
V5     V7    10.105   .     S
V5     V9    10.105   .     S
V6     V5    9.586   1_556     S
V6     V4    10.837   1_545     S
V6     V18    10.837   1_545     S
V6     V13    10.837   1_556     S
V6     V15    10.837   1_556     S
V6     V3    9.317   1_546     S
V6     V14    9.317   .     S
V6     V16    9.317   .     S
V6     V17    9.317   1_546     S
V6     V8    10.105   .     S
V6     V10    10.105   .     S
V7     V8    9.586   1_554     S
V7     V8    9.586   .     S
V7     V14    10.837   .     S
V7     V12    10.837   .     S
V7     V11    9.317   .     S
V7     V13    9.317   .     S
V7     V9    10.105   .     S
V8     V7    9.586   1_556     S
V8     V13    10.837   1_556     S
V8     V11    10.837   1_556     S
V8     V1    9.317   1_556     S
V8     V3    9.317   1_556     S
V8     V12    9.317   .     S
V8     V14    9.317   .     S
V8     V10    10.105   .     S
V9     V10    9.586   1_554     S
V9     V10    9.586   .     S
V9     V1    10.837   1_655     S
V9     V17    10.837   1_655     S
V9     V12    10.837   .     S
V9     V16    10.837   .     S
V9     V2    9.317   1_655     S
V9     V11    9.317   .     S
V9     V15    9.317   .     S
V9     V18    9.317   1_655     S
V10     V9    9.586   1_556     S
V10     V2    10.837   1_655     S
V10     V18    10.837   1_655     S
V10     V11    10.837   1_556     S
V10     V15    10.837   1_556     S
V10     V1    9.317   1_656     S
V10     V12    9.317   .     S
V10     V16    9.317   .     S
V10     V17    9.317   1_656     S
V11     V12    9.586   .     S
V11     V12    9.586   1_554     S
V11     V8    10.837   1_554     S
V11     V18    10.837   1_655     S
V11     V10    10.837   1_554     S
V11     V17    9.317   1_655     S
V11     V13    10.105   1_665     S
V11     V15    10.105   1_565     S
V12     V11    9.586   1_556     S
V12     V17    10.837   1_656     S
V12     V3    10.837   1_556     S
V12     V18    9.317   1_655     S
V12     V14    10.105   1_665     S
V12     V16    10.105   1_565     S
V13     V14    9.586   .     S
V13     V14    9.586   1_554     S
V13     V8    10.837   1_554     S
V13     V18    10.837   1_545     S
V13     V6    10.837   1_554     S
V13     V17    9.317   1_545     S
V13     V11    10.105   1_445     S
V13     V15    10.105   1_455     S
V14     V13    9.586   1_556     S
V14     V17    10.837   1_546     S
V14     V1    10.837   1_556     S
V14     V18    9.317   1_545     S
V14     V12    10.105   1_445     S
V14     V16    10.105   1_455     S
V15     V16    9.586   .     S
V15     V16    9.586   1_554     S
V15     V2    10.837   1_655     S
V15     V4    10.837   1_545     S
V15     V6    10.837   1_554     S
V15     V10    10.837   1_554     S
V15     V1    9.317   1_655     S
V15     V3    9.317   1_545     S
V15     V11    10.105   1_545     S
V15     V13    10.105   1_655     S
V16     V15    9.586   1_556     S
V16     V1    10.837   1_656     S
V16     V3    10.837   1_546     S
V16     V2    9.317   1_655     S
V16     V4    9.317   1_545     S
V16     V12    10.105   1_545     S
V16     V14    10.105   1_655     S
V17     V18    9.586   .     S
V17     V18    9.586   1_554     S
V17     V14    10.837   1_564     S
V17     V12    10.837   1_454     S
V17     V9    10.837   1_455     S
V17     V5    10.837   1_565     S
V17     V11    9.317   1_455     S
V17     V13    9.317   1_565     S
V17     V10    9.317   1_454     S
V17     V6    9.317   1_564     S
V18     V17    9.586   1_556     S
V18     V13    10.837   1_565     S
V18     V11    10.837   1_455     S
V18     V10    10.837   1_455     S
V18     V6    10.837   1_565     S
V18     V12    9.317   1_455     S
V18     V14    9.317   1_565     S
V18     V9    9.317   1_455     S
V18     V5    9.317   1_565     S
