data_rhoe
_audit_creation_date              2020-02-02
_audit_creation_method            'Pymatgen'
_symmetry_space_group_name_H-M    'P1'
_symmetry_Int_Tables_number       1
loop_
_symmetry_equiv_pos_as_xyz
  x,y,z
_cell_length_a                    56.9551
_cell_length_b                    56.9551
_cell_length_c                    56.9551
_cell_angle_alpha                 90.0
_cell_angle_beta                 90.0
_cell_angle_gamma                 90.0
loop_
_atom_site_label
_atom_site_type_symbol
_atom_site_fract_x
_atom_site_fract_y
_atom_site_fract_z
Er1     Er     0.7164   0.1147   0.5
Er2     Er     0.1147   0.5   0.7164
Er3     Er     0.5   0.7164   0.1147
Er4     Er     0.1147   0.7164   0.5
Er5     Er     0.5   0.1147   0.7164
Er6     Er     0.7164   0.5   0.1147
Er7     Er     0.6147   0.7836   0.0
Er8     Er     0.7836   0.3853   0.0
Er9     Er     0.3853   0.0   0.7836
Er10     Er     0.0   0.6147   0.7836
Er11     Er     0.0   0.7836   0.3853
Er12     Er     0.7836   0.0   0.6147
Er13     Er     0.3853   0.7836   0.0
Er14     Er     0.7836   0.6147   0.0
Er15     Er     0.6147   0.0   0.7836
Er16     Er     0.0   0.3853   0.7836
Er17     Er     0.0   0.7836   0.6147
Er18     Er     0.7836   0.0   0.3853
Er19     Er     0.8853   0.2836   0.5
Er20     Er     0.5   0.2836   0.8853
V21     V     0.8787   0.3311   0.6689
V22     V     0.8311   0.1689   0.6213
V23     V     0.8311   0.3787   0.8311
V24     V     0.6689   0.3311   0.8787
V25     V     0.6213   0.1689   0.8311
V26     V     0.6689   0.1213   0.6689
Er27     Er     0.0   0.2164   0.6147
Er28     Er     0.2164   0.0   0.6147
Er29     Er     0.2836   0.1147   0.5
Er30     Er     0.1147   0.2836   0.5
V31     V     0.3311   0.1213   0.6689
V32     V     0.1213   0.3311   0.6689
V33     V     0.1689   0.1689   0.6213
V34     V     0.3311   0.3311   0.8787
V35     V     0.1689   0.3787   0.8311
V36     V     0.3787   0.1689   0.8311
Er37     Er     0.2836   0.5   0.8853
Er38     Er     0.2836   0.8853   0.5
V39     V     0.3787   0.8311   0.8311
V40     V     0.3311   0.6689   0.8787
V41     V     0.1689   0.6213   0.8311
V42     V     0.3311   0.8787   0.6689
V43     V     0.1689   0.8311   0.6213
V44     V     0.1213   0.6689   0.6689
Er45     Er     0.5   0.8853   0.2836
Er46     Er     0.8853   0.5   0.2836
V47     V     0.6689   0.8787   0.3311
V48     V     0.6213   0.8311   0.1689
V49     V     0.8311   0.8311   0.3787
V50     V     0.8787   0.6689   0.3311
V51     V     0.8311   0.6213   0.1689
V52     V     0.6689   0.6689   0.1213
Er53     Er     0.6147   0.0   0.2164
Er54     Er     0.6147   0.2164   0.0
Er55     Er     0.5   0.2836   0.1147
Er56     Er     0.5   0.1147   0.2836
V57     V     0.6689   0.3311   0.1213
V58     V     0.6689   0.1213   0.3311
V59     V     0.6213   0.1689   0.1689
V60     V     0.8787   0.3311   0.3311
V61     V     0.8311   0.1689   0.3787
V62     V     0.8311   0.3787   0.1689
Er63     Er     0.2164   0.6147   0.0
Er64     Er     0.0   0.6147   0.2164
Er65     Er     0.1147   0.5   0.2836
Er66     Er     0.2836   0.5   0.1147
V67     V     0.3311   0.6689   0.1213
V68     V     0.1213   0.6689   0.3311
V69     V     0.1689   0.6213   0.1689
V70     V     0.3311   0.8787   0.3311
V71     V     0.3787   0.8311   0.1689
V72     V     0.1689   0.8311   0.3787
Er73     Er     0.3853   0.2164   0.0
Er74     Er     0.0   0.3853   0.2164
Er75     Er     0.2164   0.0   0.3853
Er76     Er     0.2164   0.3853   0.0
Er77     Er     0.3853   0.0   0.2164
Er78     Er     0.0   0.2164   0.3853
V79     V     0.3311   0.3311   0.1213
V80     V     0.3311   0.1213   0.3311
V81     V     0.1213   0.3311   0.3311
V82     V     0.1689   0.1689   0.3787
V83     V     0.1689   0.3787   0.1689
V84     V     0.3787   0.1689   0.1689
Er85     Er     0.8853   0.7164   0.5
Er86     Er     0.5   0.8853   0.7164
Er87     Er     0.7164   0.8853   0.5
Er88     Er     0.8853   0.5   0.7164
Er89     Er     0.5   0.7164   0.8853
Er90     Er     0.7164   0.5   0.8853
V91     V     0.8311   0.8311   0.6213
V92     V     0.6213   0.8311   0.8311
V93     V     0.8311   0.6213   0.8311
V94     V     0.6689   0.6689   0.8787
V95     V     0.8787   0.6689   0.6689
V96     V     0.6689   0.8787   0.6689
loop_
_geom_bond_atom_site_label_1
_geom_bond_atom_site_label_2
_geom_bond_distance
_geom_bond_site_symmetry_2
_ccdc_geom_bond_type
Er1     V61    10.0   .     S
Er1     V22    10.0   .     S
Er1     V26    10.0   .     S
Er1     V58    10.0   .     S
Er1     Er18    10.0   .     S
Er1     Er12    10.0   .     S
Er2     V35    10.0   .     S
Er2     V41    10.0   .     S
Er2     V44    10.0   .     S
Er2     V32    10.0   .     S
Er2     Er16    10.0   .     S
Er2     Er10    10.0   .     S
Er3     V71    10.0   .     S
Er3     V48    10.0   .     S
Er3     V52    10.0   .     S
Er3     V67    10.0   .     S
Er3     Er13    10.0   .     S
Er3     Er7    10.0   .     S
Er4     V72    10.0   .     S
Er4     V43    10.0   .     S
Er4     V44    10.0   .     S
Er4     V68    10.0   .     S
Er4     Er17    10.0   .     S
Er4     Er11    10.0   .     S
Er5     V36    10.0   .     S
Er5     V25    10.0   .     S
Er5     V26    10.0   .     S
Er5     V31    10.0   .     S
Er5     Er15    10.0   .     S
Er5     Er9    10.0   .     S
Er6     V62    10.0   .     S
Er6     V51    10.0   .     S
Er6     V52    10.0   .     S
Er6     V57    10.0   .     S
Er6     Er14    10.0   .     S
Er6     Er8    10.0   .     S
Er7     V52    10.0   .     S
Er7     V94    10.0   1_554     S
Er7     V92    10.0   1_554     S
Er7     V48    10.0   .     S
Er7     Er89    10.0   1_554     S
Er8     V57    10.0   .     S
Er8     V24    10.0   1_554     S
Er8     V23    10.0   1_554     S
Er8     V62    10.0   .     S
Er8     Er90    10.0   1_554     S
Er9     V31    10.0   .     S
Er9     V42    10.0   1_545     S
Er9     V39    10.0   1_545     S
Er9     V36    10.0   .     S
Er9     Er86    10.0   1_545     S
Er10     V44    10.0   .     S
Er10     V95    10.0   1_455     S
Er10     V93    10.0   1_455     S
Er10     V41    10.0   .     S
Er10     Er88    10.0   1_455     S
Er11     V68    10.0   .     S
Er11     V50    10.0   1_455     S
Er11     V49    10.0   1_455     S
Er11     V72    10.0   .     S
Er11     Er85    10.0   1_455     S
Er12     V26    10.0   .     S
Er12     V96    10.0   1_545     S
Er12     V91    10.0   1_545     S
Er12     V22    10.0   .     S
Er12     Er87    10.0   1_545     S
Er13     V67    10.0   .     S
Er13     V40    10.0   1_554     S
Er13     V39    10.0   1_554     S
Er13     V71    10.0   .     S
Er13     Er89    10.0   1_554     S
Er14     V52    10.0   .     S
Er14     V94    10.0   1_554     S
Er14     V93    10.0   1_554     S
Er14     V51    10.0   .     S
Er14     Er90    10.0   1_554     S
Er15     V26    10.0   .     S
Er15     V96    10.0   1_545     S
Er15     V92    10.0   1_545     S
Er15     V25    10.0   .     S
Er15     Er86    10.0   1_545     S
Er16     V32    10.0   .     S
Er16     V21    10.0   1_455     S
Er16     V23    10.0   1_455     S
Er16     V35    10.0   .     S
Er16     Er88    10.0   1_455     S
Er17     V44    10.0   .     S
Er17     V95    10.0   1_455     S
Er17     V91    10.0   1_455     S
Er17     V43    10.0   .     S
Er17     Er85    10.0   1_455     S
Er18     V58    10.0   .     S
Er18     V47    10.0   1_545     S
Er18     V49    10.0   1_545     S
Er18     V61    10.0   .     S
Er18     Er87    10.0   1_545     S
Er19     V61    10.0   .     S
Er19     V22    10.0   .     S
Er19     V21    10.0   .     S
Er19     V60    10.0   .     S
Er19     Er78    10.0   1_655     S
Er19     Er27    10.0   1_655     S
Er20     V36    10.0   .     S
Er20     V25    10.0   .     S
Er20     V24    10.0   .     S
Er20     V34    10.0   .     S
Er20     Er73    10.0   1_556     S
Er20     Er54    10.0   1_556     S
V21     Er16    10.0   1_655     S
V21     V22    10.0   .     S
V21     V23    10.0   .     S
V21     Er27    10.0   1_655     S
V21     Er88    10.0   .     S
V22     V26    10.0   .     S
V22     Er27    10.0   1_655     S
V23     Er8    10.0   1_556     S
V23     Er16    10.0   1_655     S
V23     V24    10.0   .     S
V23     Er88    10.0   .     S
V23     Er90    10.0   .     S
V24     Er8    10.0   1_556     S
V24     V25    10.0   .     S
V24     Er54    10.0   1_556     S
V24     Er90    10.0   .     S
V25     V26    10.0   .     S
V25     Er54    10.0   1_556     S
Er27     V32    10.0   .     S
Er27     V21    10.0   1_455     S
Er27     V22    10.0   1_455     S
Er27     V33    10.0   .     S
Er27     Er19    10.0   1_455     S
Er27     Er30    10.0   .     S
Er28     V31    10.0   .     S
Er28     V42    10.0   1_545     S
Er28     V43    10.0   1_545     S
Er28     V33    10.0   .     S
Er28     Er38    10.0   1_545     S
Er28     Er29    10.0   .     S
Er29     V82    10.0   .     S
Er29     V33    10.0   .     S
Er29     V31    10.0   .     S
Er29     V80    10.0   .     S
Er29     Er75    10.0   .     S
Er30     V82    10.0   .     S
Er30     V33    10.0   .     S
Er30     V32    10.0   .     S
Er30     V81    10.0   .     S
Er30     Er78    10.0   .     S
V31     V33    10.0   .     S
V31     V36    10.0   .     S
V32     V33    10.0   .     S
V32     V35    10.0   .     S
V34     V35    10.0   .     S
V34     V36    10.0   .     S
V34     Er37    10.0   .     S
V34     Er73    10.0   1_556     S
V34     Er76    10.0   1_556     S
V35     Er37    10.0   .     S
V35     Er76    10.0   1_556     S
V36     Er73    10.0   1_556     S
Er37     V41    10.0   .     S
Er37     V40    10.0   .     S
Er37     Er76    10.0   1_556     S
Er37     Er63    10.0   1_556     S
Er38     V72    10.0   .     S
Er38     V43    10.0   .     S
Er38     V42    10.0   .     S
Er38     V70    10.0   .     S
Er38     Er75    10.0   1_565     S
Er38     Er28    10.0   1_565     S
V39     Er9    10.0   1_565     S
V39     Er13    10.0   1_556     S
V39     V40    10.0   .     S
V39     V42    10.0   .     S
V39     Er86    10.0   .     S
V39     Er89    10.0   .     S
V40     Er13    10.0   1_556     S
V40     V41    10.0   .     S
V40     Er63    10.0   1_556     S
V40     Er89    10.0   .     S
V41     V44    10.0   .     S
V41     Er63    10.0   1_556     S
V42     Er9    10.0   1_565     S
V42     Er28    10.0   1_565     S
V42     V43    10.0   .     S
V42     Er86    10.0   .     S
V43     Er28    10.0   1_565     S
V43     V44    10.0   .     S
Er45     V71    10.0   .     S
Er45     V48    10.0   .     S
Er45     V47    10.0   .     S
Er45     V70    10.0   .     S
Er45     Er77    10.0   1_565     S
Er45     Er53    10.0   1_565     S
Er46     V62    10.0   .     S
Er46     V51    10.0   .     S
Er46     V50    10.0   .     S
Er46     V60    10.0   .     S
Er46     Er74    10.0   1_655     S
Er46     Er64    10.0   1_655     S
V47     Er18    10.0   1_565     S
V47     V48    10.0   .     S
V47     V49    10.0   .     S
V47     Er53    10.0   1_565     S
V47     Er87    10.0   .     S
V48     V52    10.0   .     S
V48     Er53    10.0   1_565     S
V49     Er11    10.0   1_655     S
V49     Er18    10.0   1_565     S
V49     V50    10.0   .     S
V49     Er85    10.0   .     S
V49     Er87    10.0   .     S
V50     Er11    10.0   1_655     S
V50     V51    10.0   .     S
V50     Er64    10.0   1_655     S
V50     Er85    10.0   .     S
V51     V52    10.0   .     S
V51     Er64    10.0   1_655     S
Er53     V58    10.0   .     S
Er53     V47    10.0   1_545     S
Er53     V48    10.0   1_545     S
Er53     V59    10.0   .     S
Er53     Er45    10.0   1_545     S
Er53     Er56    10.0   .     S
Er54     V57    10.0   .     S
Er54     V24    10.0   1_554     S
Er54     V25    10.0   1_554     S
Er54     V59    10.0   .     S
Er54     Er20    10.0   1_554     S
Er54     Er55    10.0   .     S
Er55     V84    10.0   .     S
Er55     V59    10.0   .     S
Er55     V57    10.0   .     S
Er55     V79    10.0   .     S
Er55     Er73    10.0   .     S
Er56     V84    10.0   .     S
Er56     V59    10.0   .     S
Er56     V58    10.0   .     S
Er56     V80    10.0   .     S
Er56     Er77    10.0   .     S
V57     V59    10.0   .     S
V57     V62    10.0   .     S
V58     V59    10.0   .     S
V58     V61    10.0   .     S
V60     V61    10.0   .     S
V60     V62    10.0   .     S
V60     Er74    10.0   1_655     S
V60     Er78    10.0   1_655     S
V61     Er78    10.0   1_655     S
V62     Er74    10.0   1_655     S
Er63     V67    10.0   .     S
Er63     V40    10.0   1_554     S
Er63     V41    10.0   1_554     S
Er63     V69    10.0   .     S
Er63     Er37    10.0   1_554     S
Er63     Er66    10.0   .     S
Er64     V68    10.0   .     S
Er64     V50    10.0   1_455     S
Er64     V51    10.0   1_455     S
Er64     V69    10.0   .     S
Er64     Er46    10.0   1_455     S
Er64     Er65    10.0   .     S
Er65     V83    10.0   .     S
Er65     V69    10.0   .     S
Er65     V68    10.0   .     S
Er65     V81    10.0   .     S
Er65     Er74    10.0   .     S
Er66     V83    10.0   .     S
Er66     V69    10.0   .     S
Er66     V67    10.0   .     S
Er66     V79    10.0   .     S
Er66     Er76    10.0   .     S
V67     V69    10.0   .     S
V67     V71    10.0   .     S
V68     V69    10.0   .     S
V68     V72    10.0   .     S
V70     V71    10.0   .     S
V70     V72    10.0   .     S
V70     Er75    10.0   1_565     S
V70     Er77    10.0   1_565     S
V71     Er77    10.0   1_565     S
V72     Er75    10.0   1_565     S
Er73     V79    10.0   .     S
Er73     V34    10.0   1_554     S
Er73     V36    10.0   1_554     S
Er73     V84    10.0   .     S
Er73     Er20    10.0   1_554     S
Er74     V81    10.0   .     S
Er74     V60    10.0   1_455     S
Er74     V62    10.0   1_455     S
Er74     V83    10.0   .     S
Er74     Er46    10.0   1_455     S
Er75     V80    10.0   .     S
Er75     V70    10.0   1_545     S
Er75     V72    10.0   1_545     S
Er75     V82    10.0   .     S
Er75     Er38    10.0   1_545     S
Er76     V79    10.0   .     S
Er76     V34    10.0   1_554     S
Er76     V35    10.0   1_554     S
Er76     V83    10.0   .     S
Er76     Er37    10.0   1_554     S
Er77     V80    10.0   .     S
Er77     V70    10.0   1_545     S
Er77     V71    10.0   1_545     S
Er77     V84    10.0   .     S
Er77     Er45    10.0   1_545     S
Er78     V81    10.0   .     S
Er78     V60    10.0   1_455     S
Er78     V61    10.0   1_455     S
Er78     V82    10.0   .     S
Er78     Er19    10.0   1_455     S
V79     V83    10.0   .     S
V79     V84    10.0   .     S
V80     V82    10.0   .     S
V80     V84    10.0   .     S
V81     V82    10.0   .     S
V81     V83    10.0   .     S
Er85     V91    10.0   .     S
Er85     V95    10.0   .     S
Er85     Er11    10.0   1_655     S
Er85     Er17    10.0   1_655     S
Er86     V92    10.0   .     S
Er86     V96    10.0   .     S
Er86     Er9    10.0   1_565     S
Er86     Er15    10.0   1_565     S
Er87     V91    10.0   .     S
Er87     V96    10.0   .     S
Er87     Er12    10.0   1_565     S
Er87     Er18    10.0   1_565     S
Er88     V93    10.0   .     S
Er88     V95    10.0   .     S
Er88     Er10    10.0   1_655     S
Er88     Er16    10.0   1_655     S
Er89     V92    10.0   .     S
Er89     V94    10.0   .     S
Er89     Er7    10.0   1_556     S
Er89     Er13    10.0   1_556     S
Er90     V93    10.0   .     S
Er90     V94    10.0   .     S
Er90     Er8    10.0   1_556     S
Er90     Er14    10.0   1_556     S
V91     Er12    10.0   1_565     S
V91     Er17    10.0   1_655     S
V91     V96    10.0   .     S
V91     V95    10.0   .     S
V92     Er7    10.0   1_556     S
V92     Er15    10.0   1_565     S
V92     V94    10.0   .     S
V92     V96    10.0   .     S
V93     Er10    10.0   1_655     S
V93     Er14    10.0   1_556     S
V93     V94    10.0   .     S
V93     V95    10.0   .     S
V94     Er7    10.0   1_556     S
V94     Er14    10.0   1_556     S
V95     Er10    10.0   1_655     S
V95     Er17    10.0   1_655     S
V96     Er12    10.0   1_565     S
V96     Er15    10.0   1_565     S
