data_rhra
_audit_creation_date              2020-02-02
_audit_creation_method            'Pymatgen'
_symmetry_space_group_name_H-M    'P1'
_symmetry_Int_Tables_number       1
loop_
_symmetry_equiv_pos_as_xyz
  x,y,z
_cell_length_a                    82.9252
_cell_length_b                    82.9252
_cell_length_c                    82.9252
_cell_angle_alpha                 90.0
_cell_angle_beta                 90.0
_cell_angle_gamma                 90.0
loop_
_atom_site_label
_atom_site_type_symbol
_atom_site_fract_x
_atom_site_fract_y
_atom_site_fract_z
V1     V     0.7847   0.4397   0.8699
V2     V     0.7153   0.3699   0.9397
V3     V     0.5603   0.2153   0.8699
V4     V     0.6301   0.2847   0.9397
V5     V     0.8699   0.4397   0.7847
V6     V     0.9397   0.3699   0.7153
V7     V     0.8699   0.2153   0.5603
V8     V     0.9397   0.2847   0.6301
V9     V     0.5603   0.1301   0.7847
V10     V     0.6301   0.0603   0.7153
V11     V     0.7847   0.1301   0.5603
V12     V     0.7153   0.0603   0.6301
V13     V     0.2153   0.4397   0.8699
V14     V     0.2847   0.3699   0.9397
V15     V     0.4397   0.2153   0.8699
V16     V     0.3699   0.2847   0.9397
V17     V     0.1301   0.4397   0.7847
V18     V     0.0603   0.3699   0.7153
V19     V     0.1301   0.2153   0.5603
V20     V     0.0603   0.2847   0.6301
V21     V     0.2847   0.0603   0.6301
V22     V     0.2153   0.1301   0.5603
V23     V     0.4397   0.1301   0.7847
V24     V     0.3699   0.0603   0.7153
V25     V     0.7847   0.8699   0.5603
V26     V     0.7153   0.9397   0.6301
V27     V     0.5603   0.8699   0.7847
V28     V     0.6301   0.9397   0.7153
V29     V     0.5603   0.7847   0.8699
V30     V     0.6301   0.7153   0.9397
V31     V     0.7847   0.5603   0.8699
V32     V     0.7153   0.6301   0.9397
V33     V     0.8699   0.7847   0.5603
V34     V     0.9397   0.7153   0.6301
V35     V     0.8699   0.5603   0.7847
V36     V     0.9397   0.6301   0.7153
V37     V     0.4397   0.8699   0.7847
V38     V     0.3699   0.9397   0.7153
V39     V     0.2153   0.8699   0.5603
V40     V     0.2847   0.9397   0.6301
V41     V     0.4397   0.7847   0.8699
V42     V     0.3699   0.7153   0.9397
V43     V     0.2153   0.5603   0.8699
V44     V     0.2847   0.6301   0.9397
V45     V     0.1301   0.7847   0.5603
V46     V     0.0603   0.7153   0.6301
V47     V     0.1301   0.5603   0.7847
V48     V     0.0603   0.6301   0.7153
V49     V     0.8699   0.2153   0.4397
V50     V     0.9397   0.2847   0.3699
V51     V     0.8699   0.4397   0.2153
V52     V     0.9397   0.3699   0.2847
V53     V     0.7847   0.1301   0.4397
V54     V     0.7153   0.0603   0.3699
V55     V     0.5603   0.1301   0.2153
V56     V     0.6301   0.0603   0.2847
V57     V     0.6301   0.2847   0.0603
V58     V     0.5603   0.2153   0.1301
V59     V     0.7847   0.4397   0.1301
V60     V     0.7153   0.3699   0.0603
V61     V     0.7847   0.8699   0.4397
V62     V     0.7153   0.9397   0.3699
V63     V     0.5603   0.8699   0.2153
V64     V     0.6301   0.9397   0.2847
V65     V     0.8699   0.5603   0.2153
V66     V     0.9397   0.6301   0.2847
V67     V     0.8699   0.7847   0.4397
V68     V     0.9397   0.7153   0.3699
V69     V     0.5603   0.7847   0.1301
V70     V     0.6301   0.7153   0.0603
V71     V     0.7847   0.5603   0.1301
V72     V     0.7153   0.6301   0.0603
V73     V     0.2153   0.1301   0.4397
V74     V     0.2847   0.0603   0.3699
V75     V     0.4397   0.1301   0.2153
V76     V     0.3699   0.0603   0.2847
V77     V     0.4397   0.2153   0.1301
V78     V     0.3699   0.2847   0.0603
V79     V     0.2153   0.4397   0.1301
V80     V     0.2847   0.3699   0.0603
V81     V     0.1301   0.4397   0.2153
V82     V     0.0603   0.3699   0.2847
V83     V     0.1301   0.2153   0.4397
V84     V     0.0603   0.2847   0.3699
V85     V     0.4397   0.8699   0.2153
V86     V     0.3699   0.9397   0.2847
V87     V     0.2153   0.8699   0.4397
V88     V     0.2847   0.9397   0.3699
V89     V     0.1301   0.7847   0.4397
V90     V     0.0603   0.7153   0.3699
V91     V     0.1301   0.5603   0.2153
V92     V     0.0603   0.6301   0.2847
V93     V     0.2847   0.6301   0.0603
V94     V     0.2153   0.5603   0.1301
V95     V     0.4397   0.7847   0.1301
V96     V     0.3699   0.7153   0.0603
loop_
_geom_bond_atom_site_label_1
_geom_bond_atom_site_label_2
_geom_bond_distance
_geom_bond_site_symmetry_2
_ccdc_geom_bond_type
V1     V2    10.0   .     S
V1     V5    10.0   .     S
V1     V31    10.001   .     S
V2     V4    10.0   .     S
V2     V60    10.001   1_556     S
V3     V4    10.0   .     S
V3     V9    10.0   .     S
V3     V15    10.001   .     S
V4     V57    10.001   1_556     S
V5     V6    10.0   .     S
V5     V35    10.001   .     S
V6     V8    10.0   .     S
V6     V18    10.001   1_655     S
V7     V8    10.0   .     S
V7     V11    10.0   .     S
V7     V49    10.001   .     S
V8     V20    10.001   1_655     S
V9     V10    10.0   .     S
V9     V23    10.001   .     S
V10     V12    10.0   .     S
V10     V28    10.001   1_545     S
V11     V12    10.0   .     S
V11     V53    10.001   .     S
V12     V26    10.001   1_545     S
V13     V14    10.0   .     S
V13     V17    10.0   .     S
V13     V43    10.001   .     S
V14     V16    10.0   .     S
V14     V80    10.001   1_556     S
V15     V16    10.0   .     S
V15     V23    10.0   .     S
V16     V78    10.001   1_556     S
V17     V18    10.0   .     S
V17     V47    10.001   .     S
V18     V20    10.0   .     S
V18     V6    10.001   1_455     S
V19     V20    10.0   .     S
V19     V22    10.0   .     S
V19     V83    10.001   .     S
V20     V8    10.001   1_455     S
V21     V22    10.0   .     S
V21     V24    10.0   .     S
V21     V40    10.001   1_545     S
V22     V73    10.001   .     S
V23     V24    10.0   .     S
V24     V38    10.001   1_545     S
V25     V26    10.0   .     S
V25     V33    10.0   .     S
V25     V61    10.001   .     S
V26     V12    10.001   1_565     S
V26     V28    10.0   .     S
V27     V28    10.0   .     S
V27     V29    10.0   .     S
V27     V37    10.001   .     S
V28     V10    10.001   1_565     S
V29     V30    10.0   .     S
V29     V41    10.001   .     S
V30     V32    10.0   .     S
V30     V70    10.001   1_556     S
V31     V32    10.0   .     S
V31     V35    10.0   .     S
V32     V72    10.001   1_556     S
V33     V34    10.0   .     S
V33     V67    10.001   .     S
V34     V36    10.0   .     S
V34     V46    10.001   1_655     S
V35     V36    10.0   .     S
V36     V48    10.001   1_655     S
V37     V38    10.0   .     S
V37     V41    10.0   .     S
V38     V24    10.001   1_565     S
V38     V40    10.0   .     S
V39     V40    10.0   .     S
V39     V45    10.0   .     S
V39     V87    10.001   .     S
V40     V21    10.001   1_565     S
V41     V42    10.0   .     S
V42     V44    10.0   .     S
V42     V96    10.001   1_556     S
V43     V44    10.0   .     S
V43     V47    10.0   .     S
V44     V93    10.001   1_556     S
V45     V46    10.0   .     S
V45     V89    10.001   .     S
V46     V48    10.0   .     S
V46     V34    10.001   1_455     S
V47     V48    10.0   .     S
V48     V36    10.001   1_455     S
V49     V50    10.0   .     S
V49     V53    10.0   .     S
V50     V52    10.0   .     S
V50     V84    10.001   1_655     S
V51     V52    10.0   .     S
V51     V59    10.0   .     S
V51     V65    10.001   .     S
V52     V82    10.001   1_655     S
V53     V54    10.0   .     S
V54     V56    10.0   .     S
V54     V62    10.001   1_545     S
V55     V56    10.0   .     S
V55     V58    10.0   .     S
V55     V75    10.001   .     S
V56     V64    10.001   1_545     S
V57     V58    10.0   .     S
V57     V60    10.0   .     S
V57     V4    10.001   1_554     S
V58     V77    10.001   .     S
V59     V60    10.0   .     S
V59     V71    10.001   .     S
V60     V2    10.001   1_554     S
V61     V62    10.0   .     S
V61     V67    10.0   .     S
V62     V54    10.001   1_565     S
V62     V64    10.0   .     S
V63     V64    10.0   .     S
V63     V69    10.0   .     S
V63     V85    10.001   .     S
V64     V56    10.001   1_565     S
V65     V66    10.0   .     S
V65     V71    10.0   .     S
V66     V68    10.0   .     S
V66     V92    10.001   1_655     S
V67     V68    10.0   .     S
V68     V90    10.001   1_655     S
V69     V70    10.0   .     S
V69     V95    10.001   .     S
V70     V72    10.0   .     S
V70     V30    10.001   1_554     S
V71     V72    10.0   .     S
V72     V32    10.001   1_554     S
V73     V74    10.0   .     S
V73     V83    10.0   .     S
V74     V76    10.0   .     S
V74     V88    10.001   1_545     S
V75     V76    10.0   .     S
V75     V77    10.0   .     S
V76     V86    10.001   1_545     S
V77     V78    10.0   .     S
V78     V80    10.0   .     S
V78     V16    10.001   1_554     S
V79     V80    10.0   .     S
V79     V81    10.0   .     S
V79     V94    10.001   .     S
V80     V14    10.001   1_554     S
V81     V82    10.0   .     S
V81     V91    10.001   .     S
V82     V84    10.0   .     S
V82     V52    10.001   1_455     S
V83     V84    10.0   .     S
V84     V50    10.001   1_455     S
V85     V86    10.0   .     S
V85     V95    10.0   .     S
V86     V76    10.001   1_565     S
V86     V88    10.0   .     S
V87     V88    10.0   .     S
V87     V89    10.0   .     S
V88     V74    10.001   1_565     S
V89     V90    10.0   .     S
V90     V92    10.0   .     S
V90     V68    10.001   1_455     S
V91     V92    10.0   .     S
V91     V94    10.0   .     S
V92     V66    10.001   1_455     S
V93     V94    10.0   .     S
V93     V96    10.0   .     S
V93     V44    10.001   1_554     S
V95     V96    10.0   .     S
V96     V42    10.001   1_554     S
