data_rin
_audit_creation_date              2020-02-02
_audit_creation_method            'Pymatgen'
_symmetry_space_group_name_H-M    'P1'
_symmetry_Int_Tables_number       1
loop_
_symmetry_equiv_pos_as_xyz
  x,y,z
_cell_length_a                    52.8062
_cell_length_b                    52.8062
_cell_length_c                    52.8062
_cell_angle_alpha                 90.0
_cell_angle_beta                 90.0
_cell_angle_gamma                 90.0
loop_
_atom_site_label
_atom_site_type_symbol
_atom_site_fract_x
_atom_site_fract_y
_atom_site_fract_z
Ti1     Ti     0.8468   0.0947   0.0
Ti2     Ti     0.1532   0.0947   0.0
Ti3     Ti     0.0947   0.0   0.8468
Ti4     Ti     0.0947   0.0   0.1532
Ti5     Ti     0.0   0.8468   0.0947
Ti6     Ti     0.0   0.1532   0.0947
Ti7     Ti     0.0   0.8468   0.9053
Ti8     Ti     0.0   0.1532   0.9053
Ti9     Ti     0.9053   0.0   0.8468
Ti10     Ti     0.9053   0.0   0.1532
Ti11     Ti     0.8468   0.9053   0.0
Ti12     Ti     0.1532   0.9053   0.0
Ti13     Ti     0.5   0.5947   0.6532
Ti14     Ti     0.5   0.5947   0.3468
Ti15     Ti     0.5947   0.6532   0.5
Ti16     Ti     0.5947   0.3468   0.5
Ti17     Ti     0.4053   0.3468   0.5
Ti18     Ti     0.4053   0.6532   0.5
Ti19     Ti     0.3468   0.5   0.4053
Ti20     Ti     0.6532   0.5   0.4053
Ti21     Ti     0.6532   0.5   0.5947
Ti22     Ti     0.3468   0.5   0.5947
Ti23     Ti     0.5   0.4053   0.3468
Ti24     Ti     0.5   0.4053   0.6532
V25     V     0.83   0.5   0.6626
V26     V     0.17   0.5   0.6626
V27     V     0.0   0.67   0.8374
V28     V     0.0   0.33   0.8374
Er29     Er     0.1734   0.4053   0.8266
Er30     Er     0.0947   0.3266   0.6734
Er31     Er     0.1734   0.5947   0.8266
Er32     Er     0.0947   0.6734   0.6734
Er33     Er     0.8266   0.4053   0.8266
Er34     Er     0.9053   0.3266   0.6734
Er35     Er     0.9053   0.6734   0.6734
Er36     Er     0.8266   0.5947   0.8266
V37     V     0.3374   0.17   0.5
V38     V     0.1626   0.0   0.33
V39     V     0.1626   0.0   0.67
V40     V     0.3374   0.83   0.5
Er41     Er     0.3266   0.0947   0.3266
Er42     Er     0.1734   0.1734   0.4053
Er43     Er     0.3266   0.0947   0.6734
Er44     Er     0.1734   0.8266   0.4053
Er45     Er     0.3266   0.9053   0.6734
Er46     Er     0.1734   0.8266   0.5947
Er47     Er     0.3266   0.9053   0.3266
Er48     Er     0.1734   0.1734   0.5947
V49     V     0.5   0.6626   0.83
V50     V     0.5   0.6626   0.17
V51     V     0.33   0.8374   0.0
V52     V     0.67   0.8374   0.0
Er53     Er     0.4053   0.8266   0.1734
Er54     Er     0.6734   0.6734   0.0947
Er55     Er     0.5947   0.8266   0.1734
Er56     Er     0.3266   0.6734   0.0947
Er57     Er     0.4053   0.8266   0.8266
Er58     Er     0.3266   0.6734   0.9053
Er59     Er     0.6734   0.6734   0.9053
Er60     Er     0.5947   0.8266   0.8266
V61     V     0.0   0.33   0.1626
V62     V     0.0   0.67   0.1626
V63     V     0.17   0.5   0.3374
V64     V     0.83   0.5   0.3374
Er65     Er     0.0947   0.3266   0.3266
Er66     Er     0.1734   0.4053   0.1734
Er67     Er     0.8266   0.4053   0.1734
Er68     Er     0.0947   0.6734   0.3266
Er69     Er     0.9053   0.6734   0.3266
Er70     Er     0.8266   0.5947   0.1734
Er71     Er     0.9053   0.3266   0.3266
Er72     Er     0.1734   0.5947   0.1734
V73     V     0.6626   0.83   0.5
V74     V     0.6626   0.17   0.5
V75     V     0.8374   0.0   0.33
V76     V     0.8374   0.0   0.67
Er77     Er     0.8266   0.1734   0.4053
Er78     Er     0.6734   0.0947   0.6734
Er79     Er     0.6734   0.0947   0.3266
Er80     Er     0.8266   0.1734   0.5947
Er81     Er     0.6734   0.9053   0.6734
Er82     Er     0.6734   0.9053   0.3266
Er83     Er     0.8266   0.8266   0.4053
Er84     Er     0.8266   0.8266   0.5947
V85     V     0.5   0.3374   0.17
V86     V     0.33   0.1626   0.0
V87     V     0.67   0.1626   0.0
V88     V     0.5   0.3374   0.83
Er89     Er     0.3266   0.3266   0.0947
Er90     Er     0.4053   0.1734   0.1734
Er91     Er     0.4053   0.1734   0.8266
Er92     Er     0.6734   0.3266   0.0947
Er93     Er     0.5947   0.1734   0.8266
Er94     Er     0.6734   0.3266   0.9053
Er95     Er     0.3266   0.3266   0.9053
Er96     Er     0.5947   0.1734   0.1734
loop_
_geom_bond_atom_site_label_1
_geom_bond_atom_site_label_2
_geom_bond_distance
_geom_bond_site_symmetry_2
_ccdc_geom_bond_type
Ti1     Ti8    10.0   1_654     S
Ti1     Ti6    10.0   1_655     S
Ti1     Ti11    10.0   1_545     S
Ti1     Ti10    10.0   .     S
Ti1     Ti9    10.0   1_554     S
Ti1     V87    10.0   .     S
Ti2     Ti8    10.0   1_554     S
Ti2     Ti6    10.0   .     S
Ti2     Ti12    10.0   1_545     S
Ti2     Ti4    10.0   .     S
Ti2     Ti3    10.0   1_554     S
Ti2     V86    10.0   .     S
Ti3     Ti12    10.0   1_546     S
Ti3     Ti2    10.0   1_556     S
Ti3     Ti9    10.0   1_455     S
Ti3     Ti8    10.0   .     S
Ti3     Ti7    10.0   1_545     S
Ti3     V39    10.0   .     S
Ti4     Ti12    10.0   1_545     S
Ti4     Ti10    10.0   1_455     S
Ti4     Ti6    10.0   .     S
Ti4     Ti5    10.0   1_545     S
Ti4     V38    10.0   .     S
Ti5     Ti10    10.0   1_465     S
Ti5     Ti4    10.0   1_565     S
Ti5     Ti7    10.0   1_554     S
Ti5     Ti12    10.0   .     S
Ti5     Ti11    10.0   1_455     S
Ti5     V62    10.0   .     S
Ti6     Ti8    10.0   1_554     S
Ti6     Ti1    10.0   1_455     S
Ti6     Ti10    10.0   1_455     S
Ti6     V61    10.0   .     S
Ti7     Ti3    10.0   1_565     S
Ti7     Ti9    10.0   1_465     S
Ti7     Ti5    10.0   1_556     S
Ti7     Ti12    10.0   1_556     S
Ti7     Ti11    10.0   1_456     S
Ti7     V27    10.0   .     S
Ti8     Ti6    10.0   1_556     S
Ti8     Ti2    10.0   1_556     S
Ti8     Ti1    10.0   1_456     S
Ti8     Ti9    10.0   1_455     S
Ti8     V28    10.0   .     S
Ti9     Ti3    10.0   1_655     S
Ti9     Ti8    10.0   1_655     S
Ti9     Ti7    10.0   1_645     S
Ti9     Ti1    10.0   1_556     S
Ti9     Ti11    10.0   1_546     S
Ti9     V76    10.0   .     S
Ti10     Ti4    10.0   1_655     S
Ti10     Ti6    10.0   1_655     S
Ti10     Ti5    10.0   1_645     S
Ti10     Ti11    10.0   1_545     S
Ti10     V75    10.0   .     S
Ti11     Ti1    10.0   1_565     S
Ti11     Ti10    10.0   1_565     S
Ti11     Ti9    10.0   1_564     S
Ti11     Ti5    10.0   1_655     S
Ti11     Ti7    10.0   1_654     S
Ti11     V52    10.0   .     S
Ti12     Ti2    10.0   1_565     S
Ti12     Ti4    10.0   1_565     S
Ti12     Ti3    10.0   1_564     S
Ti12     Ti7    10.0   1_554     S
Ti12     V51    10.0   .     S
Ti13     Ti15    10.0   .     S
Ti13     Ti18    10.0   .     S
Ti13     Ti24    10.0   .     S
Ti13     Ti21    10.0   .     S
Ti13     Ti22    10.0   .     S
Ti13     V49    10.0   .     S
Ti14     Ti18    10.0   .     S
Ti14     Ti15    10.0   .     S
Ti14     Ti23    10.0   .     S
Ti14     Ti19    10.0   .     S
Ti14     Ti20    10.0   .     S
Ti14     V50    10.0   .     S
Ti15     Ti18    10.0   .     S
Ti15     Ti21    10.0   .     S
Ti15     Ti20    10.0   .     S
Ti15     V73    10.0   .     S
Ti16     Ti20    10.0   .     S
Ti16     Ti21    10.0   .     S
Ti16     Ti17    10.0   .     S
Ti16     Ti23    10.0   .     S
Ti16     Ti24    10.0   .     S
Ti16     V74    10.0   .     S
Ti17     Ti22    10.0   .     S
Ti17     Ti19    10.0   .     S
Ti17     Ti23    10.0   .     S
Ti17     Ti24    10.0   .     S
Ti17     V37    10.0   .     S
Ti18     Ti19    10.0   .     S
Ti18     Ti22    10.0   .     S
Ti18     V40    10.0   .     S
Ti19     Ti22    10.0   .     S
Ti19     Ti23    10.0   .     S
Ti19     V63    10.0   .     S
Ti20     Ti21    10.0   .     S
Ti20     Ti23    10.0   .     S
Ti20     V64    10.0   .     S
Ti21     Ti24    10.0   .     S
Ti21     V25    10.0   .     S
Ti22     Ti24    10.0   .     S
Ti22     V26    10.0   .     S
Ti23     V85    10.0   .     S
Ti24     V88    10.0   .     S
V25     Er33    10.0   .     S
V25     Er36    10.0   .     S
V25     Er35    10.0   .     S
V25     Er34    10.0   .     S
V26     Er31    10.0   .     S
V26     Er29    10.0   .     S
V26     Er30    10.0   .     S
V26     Er32    10.0   .     S
V27     Er32    10.0   .     S
V27     Er35    10.0   1_455     S
V27     Er36    10.0   1_455     S
V27     Er31    10.0   .     S
V28     Er34    10.0   1_455     S
V28     Er30    10.0   .     S
V28     Er29    10.0   .     S
V28     Er33    10.0   1_455     S
Er29     Er30    10.0   .     S
Er29     Er95    10.0   .     S
Er29     Er31    10.0   .     S
Er30     Er48    10.0   .     S
Er30     Er34    10.0   1_455     S
Er31     Er32    10.0   .     S
Er31     Er58    10.0   .     S
Er32     Er46    10.0   .     S
Er32     Er35    10.0   1_455     S
Er33     V28    10.0   1_655     S
Er33     Er34    10.0   .     S
Er33     Er94    10.0   .     S
Er33     Er36    10.0   .     S
Er34     V28    10.0   1_655     S
Er34     Er80    10.0   .     S
Er34     Er30    10.0   1_655     S
Er35     V27    10.0   1_655     S
Er35     Er36    10.0   .     S
Er35     Er84    10.0   .     S
Er35     Er32    10.0   1_655     S
Er36     V27    10.0   1_655     S
Er36     Er59    10.0   .     S
V37     Er42    10.0   .     S
V37     Er48    10.0   .     S
V37     Er41    10.0   .     S
V37     Er43    10.0   .     S
V38     Er41    10.0   .     S
V38     Er47    10.0   1_545     S
V38     Er42    10.0   .     S
V38     Er44    10.0   1_545     S
V39     Er45    10.0   1_545     S
V39     Er43    10.0   .     S
V39     Er48    10.0   .     S
V39     Er46    10.0   1_545     S
V40     Er46    10.0   .     S
V40     Er44    10.0   .     S
V40     Er45    10.0   .     S
V40     Er47    10.0   .     S
Er41     Er42    10.0   .     S
Er41     Er90    10.0   .     S
Er41     Er47    10.0   1_545     S
Er42     Er65    10.0   .     S
Er42     Er48    10.0   .     S
Er43     Er48    10.0   .     S
Er43     Er91    10.0   .     S
Er43     Er45    10.0   1_545     S
Er44     V38    10.0   1_565     S
Er44     Er47    10.0   .     S
Er44     Er68    10.0   .     S
Er44     Er46    10.0   .     S
Er45     V39    10.0   1_565     S
Er45     Er46    10.0   .     S
Er45     Er57    10.0   .     S
Er45     Er43    10.0   1_565     S
Er46     V39    10.0   1_565     S
Er47     V38    10.0   1_565     S
Er47     Er53    10.0   .     S
Er47     Er41    10.0   1_565     S
V49     Er57    10.0   .     S
V49     Er60    10.0   .     S
V49     Er59    10.0   .     S
V49     Er58    10.0   .     S
V50     Er55    10.0   .     S
V50     Er53    10.0   .     S
V50     Er56    10.0   .     S
V50     Er54    10.0   .     S
V51     Er58    10.0   1_554     S
V51     Er56    10.0   .     S
V51     Er53    10.0   .     S
V51     Er57    10.0   1_554     S
V52     Er54    10.0   .     S
V52     Er59    10.0   1_554     S
V52     Er60    10.0   1_554     S
V52     Er55    10.0   .     S
Er53     Er56    10.0   .     S
Er53     Er55    10.0   .     S
Er54     Er55    10.0   .     S
Er54     Er70    10.0   .     S
Er54     Er59    10.0   1_554     S
Er55     Er82    10.0   .     S
Er56     Er72    10.0   .     S
Er56     Er58    10.0   1_554     S
Er57     V51    10.0   1_556     S
Er57     Er58    10.0   .     S
Er57     Er60    10.0   .     S
Er58     V51    10.0   1_556     S
Er58     Er56    10.0   1_556     S
Er59     V52    10.0   1_556     S
Er59     Er60    10.0   .     S
Er59     Er54    10.0   1_556     S
Er60     V52    10.0   1_556     S
Er60     Er81    10.0   .     S
V61     Er65    10.0   .     S
V61     Er71    10.0   1_455     S
V61     Er66    10.0   .     S
V61     Er67    10.0   1_455     S
V62     Er69    10.0   1_455     S
V62     Er68    10.0   .     S
V62     Er72    10.0   .     S
V62     Er70    10.0   1_455     S
V63     Er66    10.0   .     S
V63     Er72    10.0   .     S
V63     Er65    10.0   .     S
V63     Er68    10.0   .     S
V64     Er70    10.0   .     S
V64     Er67    10.0   .     S
V64     Er69    10.0   .     S
V64     Er71    10.0   .     S
Er65     Er66    10.0   .     S
Er65     Er71    10.0   1_455     S
Er66     Er89    10.0   .     S
Er66     Er72    10.0   .     S
Er67     V61    10.0   1_655     S
Er67     Er71    10.0   .     S
Er67     Er92    10.0   .     S
Er67     Er70    10.0   .     S
Er68     Er72    10.0   .     S
Er68     Er69    10.0   1_455     S
Er69     V62    10.0   1_655     S
Er69     Er70    10.0   .     S
Er69     Er83    10.0   .     S
Er69     Er68    10.0   1_655     S
Er70     V62    10.0   1_655     S
Er71     V61    10.0   1_655     S
Er71     Er77    10.0   .     S
Er71     Er65    10.0   1_655     S
V73     Er83    10.0   .     S
V73     Er84    10.0   .     S
V73     Er81    10.0   .     S
V73     Er82    10.0   .     S
V74     Er80    10.0   .     S
V74     Er77    10.0   .     S
V74     Er79    10.0   .     S
V74     Er78    10.0   .     S
V75     Er82    10.0   1_545     S
V75     Er79    10.0   .     S
V75     Er77    10.0   .     S
V75     Er83    10.0   1_545     S
V76     Er78    10.0   .     S
V76     Er81    10.0   1_545     S
V76     Er84    10.0   1_545     S
V76     Er80    10.0   .     S
Er77     Er79    10.0   .     S
Er77     Er80    10.0   .     S
Er78     Er80    10.0   .     S
Er78     Er93    10.0   .     S
Er78     Er81    10.0   1_545     S
Er79     Er96    10.0   .     S
Er79     Er82    10.0   1_545     S
Er81     V76    10.0   1_565     S
Er81     Er84    10.0   .     S
Er81     Er78    10.0   1_565     S
Er82     V75    10.0   1_565     S
Er82     Er83    10.0   .     S
Er82     Er79    10.0   1_565     S
Er83     V75    10.0   1_565     S
Er83     Er84    10.0   .     S
Er84     V76    10.0   1_565     S
V85     Er90    10.0   .     S
V85     Er96    10.0   .     S
V85     Er89    10.0   .     S
V85     Er92    10.0   .     S
V86     Er89    10.0   .     S
V86     Er95    10.0   1_554     S
V86     Er90    10.0   .     S
V86     Er91    10.0   1_554     S
V87     Er94    10.0   1_554     S
V87     Er92    10.0   .     S
V87     Er96    10.0   .     S
V87     Er93    10.0   1_554     S
V88     Er93    10.0   .     S
V88     Er91    10.0   .     S
V88     Er94    10.0   .     S
V88     Er95    10.0   .     S
Er89     Er90    10.0   .     S
Er89     Er95    10.0   1_554     S
Er90     Er96    10.0   .     S
Er91     V86    10.0   1_556     S
Er91     Er95    10.0   .     S
Er91     Er93    10.0   .     S
Er92     Er96    10.0   .     S
Er92     Er94    10.0   1_554     S
Er93     V87    10.0   1_556     S
Er93     Er94    10.0   .     S
Er94     V87    10.0   1_556     S
Er94     Er92    10.0   1_556     S
Er95     V86    10.0   1_556     S
Er95     Er89    10.0   1_556     S
