data_rkf
_audit_creation_date              2020-02-02
_audit_creation_method            'Pymatgen'
_symmetry_space_group_name_H-M    'P1'
_symmetry_Int_Tables_number       1
loop_
_symmetry_equiv_pos_as_xyz
  x,y,z
_cell_length_a                    19.352
_cell_length_b                    19.352
_cell_length_c                    23.7334
_cell_angle_alpha                 90.0
_cell_angle_beta                 90.0
_cell_angle_gamma                 120.0
loop_
_atom_site_label
_atom_site_type_symbol
_atom_site_fract_x
_atom_site_fract_y
_atom_site_fract_z
V1     V     0.764   0.764   0.3333
V2     V     0.764   0.0   0.0
V3     V     0.0   0.236   0.6667
V4     V     0.236   0.236   0.3333
V5     V     0.236   0.0   0.0
V6     V     0.0   0.764   0.6667
loop_
_geom_bond_atom_site_label_1
_geom_bond_atom_site_label_2
_geom_bond_distance
_geom_bond_site_symmetry_2
_ccdc_geom_bond_type
V1     V2    9.135   1_565     S
V1     V6    9.135   1_655     S
V1     V4    9.136   1_665     S
V1     V3    11.189   1_665     S
V1     V5    11.189   1_665     S
V1     V4    10.216   .     S
V2     V3    9.135   1_654     S
V2     V1    9.135   1_545     S
V2     V5    9.136   1_655     S
V2     V4    11.189   1_655     S
V2     V6    11.189   1_644     S
V2     V5    10.216   .     S
V3     V4    9.135   .     S
V3     V2    9.135   1_456     S
V3     V6    9.136   1_545     S
V3     V1    11.189   1_445     S
V3     V5    11.189   1_556     S
V3     V6    10.216   .     S
V4     V5    9.135   .     S
V4     V1    9.136   1_445     S
V4     V6    11.189   1_545     S
V4     V2    11.189   1_455     S
V5     V6    9.135   1_544     S
V5     V2    9.136   1_455     S
V5     V1    11.189   1_445     S
V5     V3    11.189   1_554     S
V6     V1    9.135   1_455     S
V6     V5    9.135   1_566     S
V6     V3    9.136   1_565     S
V6     V4    11.189   1_565     S
V6     V2    11.189   1_466     S
