data_rug
_audit_creation_date              2020-02-02
_audit_creation_method            'Pymatgen'
_symmetry_space_group_name_H-M    'P1'
_symmetry_Int_Tables_number       1
loop_
_symmetry_equiv_pos_as_xyz
  x,y,z
_cell_length_a                    28.8738
_cell_length_b                    28.8933
_cell_length_c                    84.565
_cell_angle_alpha                 94.9723
_cell_angle_beta                 94.4446
_cell_angle_gamma                 90.5285
loop_
_atom_site_label
_atom_site_type_symbol
_atom_site_fract_x
_atom_site_fract_y
_atom_site_fract_z
Be1     Be     0.0141   0.8233   0.442
F2     F     0.1977   0.6545   0.5235
Be3     Be     0.9859   0.1767   0.5579
F4     F     0.8023   0.3455   0.4765
O5     O     0.3112   0.1363   0.5268
Mg6     Mg     0.3255   0.9577   0.9408
N7     N     0.602   0.5154   0.1758
Er8     Er     0.6055   0.3814   0.0629
K9     K     0.2564   0.5445   0.1689
Al10     Al     0.211   0.3141   0.2482
He11     He     0.0874   0.0603   0.1677
B12     B     0.1155   0.1472   0.0569
Ti13     Ti     0.1534   0.8108   0.0222
S14     S     0.1886   0.484   0.0511
Si15     Si     0.3682   0.2981   0.9721
C16     C     0.672   0.7981   0.2511
Li17     Li     0.9892   0.4082   0.3299
Ne18     Ne     0.1672   0.8153   0.2414
Ca19     Ca     0.9527   0.7504   0.3245
Cl20     Cl     0.7449   0.0344   0.1766
Ce21     Ce     0.7107   0.3024   0.2577
P22     P     0.4281   0.8949   0.3244
Ar23     Ar     0.3526   0.8929   0.4378
V24     V     0.4629   0.2407   0.3298
H25     H     0.4604   0.314   0.4475
Na26     Na     0.1222   0.3879   0.4418
O27     O     0.6888   0.8637   0.4732
Mg28     Mg     0.6745   0.0423   0.0592
N29     N     0.398   0.4846   0.8242
Er30     Er     0.3945   0.6186   0.9371
K31     K     0.7436   0.4555   0.8311
Al32     Al     0.789   0.6859   0.7518
He33     He     0.9126   0.9397   0.8323
B34     B     0.8845   0.8528   0.9431
S35     S     0.8114   0.516   0.9489
Ti36     Ti     0.8466   0.1892   0.9778
Si37     Si     0.6318   0.7019   0.0279
C38     C     0.328   0.2019   0.7489
Ca39     Ca     0.0473   0.2496   0.6755
Ne40     Ne     0.8328   0.1847   0.7586
Li41     Li     0.0108   0.5918   0.6701
Cl42     Cl     0.2551   0.9656   0.8234
Ce43     Ce     0.2893   0.6976   0.7423
P44     P     0.5719   0.1051   0.6756
Ar45     Ar     0.6474   0.1071   0.5622
V46     V     0.5371   0.7593   0.6702
H47     H     0.5396   0.686   0.5525
Na48     Na     0.8778   0.6121   0.5582
loop_
_geom_bond_atom_site_label_1
_geom_bond_atom_site_label_2
_geom_bond_distance
_geom_bond_site_symmetry_2
_ccdc_geom_bond_type
Be1     F2    9.999   .     S
Be1     O27    10.0   1_455     S
Be1     Ar23    10.0   .     S
Be1     Ca19    10.001   1_455     S
F2     Na26    10.0   .     S
F2     H47    10.0   .     S
F2     Na48    10.0   1_455     S
Be3     F4    9.999   .     S
Be3     O5    10.0   1_655     S
Be3     Ar45    10.0   .     S
Be3     Ca39    10.001   1_655     S
F4     Na48    10.0   .     S
F4     H25    10.0   .     S
F4     Na26    10.0   1_655     S
O5     Be3    10.0   1_455     S
O5     Ar23    10.0   1_545     S
O5     Ar45    10.0   .     S
O5     H25    10.0   .     S
Mg6     Cl42    10.0   .     S
Mg6     Ti13    10.0   1_556     S
Mg6     Si15    10.001   1_565     S
Mg6     Er30    10.0   .     S
N7     C16    10.0   .     S
N7     Er8    10.0   .     S
N7     K9    10.0   .     S
N7     Ce21    10.0   .     S
Er8     Si15    10.0   1_554     S
Er8     Mg28    10.0   .     S
Er8     Si37    10.0   .     S
K9     Al10    10.0   .     S
K9     Ne18    10.0   .     S
K9     S14    10.0   .     S
Al10     He11    9.999   .     S
Al10     Li17    10.0   1_455     S
Al10     V24    10.0   .     S
He11     Ne18    10.0   1_545     S
He11     Cl20    10.0   1_455     S
He11     B12    10.0   .     S
B12     Ti13    10.0   1_545     S
B12     S14    10.0   .     S
B12     Ti36    10.0   1_454     S
Ti13     Mg6    10.0   1_554     S
Ti13     B34    10.0   1_454     S
Ti13     B12    10.0   1_565     S
Ti13     S14    10.0   .     S
S14     Si15    10.0   1_554     S
Si15     Er8    10.0   1_556     S
Si15     Er30    10.0   .     S
Si15     S14    10.0   1_556     S
Si15     Mg6    10.001   1_545     S
C16     Ca19    10.0   .     S
C16     Cl20    10.0   1_565     S
C16     P22    10.0   .     S
Li17     Al10    10.0   1_655     S
Li17     Ca19    10.0   .     S
Li17     Ce21    10.0   .     S
Li17     Na26    10.0   1_655     S
Ne18     He11    10.0   1_565     S
Ne18     Ca19    10.0   1_455     S
Ne18     P22    10.0   .     S
Ca19     Ne18    10.0   1_655     S
Ca19     Be1    10.001   1_655     S
Cl20     He11    10.0   1_655     S
Cl20     Ce21    10.0   .     S
Cl20     C16    10.0   1_545     S
Cl20     Mg28    10.0   .     S
Ce21     V24    10.0   .     S
P22     Ar23    9.999   .     S
P22     V24    10.0   1_565     S
Ar23     O5    10.0   1_565     S
Ar23     O27    10.0   .     S
V24     H25    10.0   .     S
V24     P22    10.0   1_545     S
H25     Na26    10.0   .     S
Na26     F4    10.0   1_455     S
Na26     Li17    10.0   1_455     S
O27     Be1    10.0   1_655     S
O27     Ar45    10.0   1_565     S
O27     H47    10.0   .     S
Mg28     Ti36    10.0   1_554     S
Mg28     Si37    10.001   1_545     S
N29     C38    10.0   .     S
N29     Er30    10.0   .     S
N29     K31    10.0   .     S
N29     Ce43    10.0   .     S
Er30     Si37    10.0   1_556     S
K31     Al32    10.0   .     S
K31     Ne40    10.0   .     S
K31     S35    10.0   .     S
Al32     He33    9.999   .     S
Al32     Li41    10.0   1_655     S
Al32     V46    10.0   .     S
He33     Ne40    10.0   1_565     S
He33     Cl42    10.0   1_655     S
He33     B34    10.0   .     S
B34     Ti13    10.0   1_656     S
B34     S35    10.0   .     S
B34     Ti36    10.0   1_565     S
S35     Ti36    10.0   .     S
S35     Si37    10.0   1_556     S
Ti36     Mg28    10.0   1_556     S
Ti36     B12    10.0   1_656     S
Ti36     B34    10.0   1_545     S
Si37     Er30    10.0   1_554     S
Si37     S35    10.0   1_554     S
Si37     Mg28    10.001   1_565     S
C38     Ca39    10.0   .     S
C38     Cl42    10.0   1_545     S
C38     P44    10.0   .     S
Ca39     Ne40    10.0   1_455     S
Ca39     Li41    10.0   .     S
Ca39     Be3    10.001   1_455     S
Ne40     He33    10.0   1_545     S
Ne40     Ca39    10.0   1_655     S
Ne40     P44    10.0   .     S
Li41     Al32    10.0   1_455     S
Li41     Ce43    10.0   .     S
Li41     Na48    10.0   1_455     S
Cl42     He33    10.0   1_455     S
Cl42     Ce43    10.0   .     S
Cl42     C38    10.0   1_565     S
Ce43     V46    10.0   .     S
P44     Ar45    9.999   .     S
P44     V46    10.0   1_545     S
Ar45     O27    10.0   1_545     S
V46     H47    10.0   .     S
V46     P44    10.0   1_565     S
H47     Na48    10.0   .     S
Na48     F2    10.0   1_655     S
Na48     Li41    10.0   1_655     S
