data_scp
_audit_creation_date              2020-02-02
_audit_creation_method            'Pymatgen'
_symmetry_space_group_name_H-M    'P1'
_symmetry_Int_Tables_number       1
loop_
_symmetry_equiv_pos_as_xyz
  x,y,z
_cell_length_a                    13.9532
_cell_length_b                    13.9532
_cell_length_c                    50.9116
_cell_angle_alpha                 90.0
_cell_angle_beta                 90.0
_cell_angle_gamma                 90.0
loop_
_atom_site_label
_atom_site_type_symbol
_atom_site_fract_x
_atom_site_fract_y
_atom_site_fract_z
V1     V     0.0   0.75   0.625
Ti2     Ti     0.5   0.25   0.625
Er3     Er     0.25   0.25   0.75
Er4     Er     0.75   0.25   0.75
V5     V     0.5   0.75   0.875
Ti6     Ti     0.0   0.25   0.875
Ti7     Ti     0.0   0.75   0.125
V8     V     0.5   0.25   0.125
Er9     Er     0.0   0.0   0.0
Er10     Er     0.0   0.5   0.0
V11     V     0.0   0.25   0.375
Ti12     Ti     0.5   0.75   0.375
Er13     Er     0.25   0.75   0.25
Er14     Er     0.75   0.75   0.25
Er15     Er     0.5   0.0   0.5
Er16     Er     0.5   0.5   0.5
loop_
_geom_bond_atom_site_label_1
_geom_bond_atom_site_label_2
_geom_bond_distance
_geom_bond_site_symmetry_2
_ccdc_geom_bond_type
V1     Ti2    9.866   1_565     S
V1     Ti2    9.866   1_465     S
V1     Ti2    9.866   .     S
V1     Ti2    9.866   1_455     S
V1     Er4    10.067   1_455     S
V1     Er3    10.067   .     S
V1     Er15    10.067   1_465     S
V1     Er16    10.067   1_455     S
V1     Er15    10.067   1_565     S
V1     Er16    10.067   .     S
V1     Er3    10.067   1_565     S
V1     Er4    10.067   1_465     S
Ti2     V1    9.866   1_545     S
Ti2     V1    9.866   1_645     S
Ti2     V1    9.866   1_655     S
Er3     V1    10.067   1_545     S
Er3     V5    10.067   .     S
Er3     V5    10.067   1_545     S
Er4     V1    10.067   1_655     S
Er4     V1    10.067   1_645     S
Er4     V5    10.067   .     S
Er4     V5    10.067   1_545     S
V5     Ti6    9.866   1_665     S
V5     Ti6    9.866   1_655     S
V5     Ti6    9.866   1_565     S
V5     Ti6    9.866   .     S
V5     Er9    10.067   1_666     S
V5     Er10    10.067   1_656     S
V5     Er9    10.067   1_566     S
V5     Er10    10.067   1_556     S
V5     Er3    10.067   1_565     S
V5     Er4    10.067   1_565     S
Ti6     V5    9.866   1_445     S
Ti6     V5    9.866   1_455     S
Ti6     V5    9.866   1_545     S
Ti7     V8    9.866   1_455     S
Ti7     V8    9.866   .     S
Ti7     V8    9.866   1_565     S
Ti7     V8    9.866   1_465     S
V8     Ti7    9.866   1_655     S
V8     Ti7    9.866   1_545     S
V8     Ti7    9.866   1_645     S
V8     Er9    10.067   1_655     S
V8     Er10    10.067   1_655     S
V8     Er14    10.067   .     S
V8     Er13    10.067   .     S
V8     Er9    10.067   .     S
V8     Er10    10.067   .     S
V8     Er13    10.067   1_545     S
V8     Er14    10.067   1_545     S
Er9     V5    10.067   1_444     S
Er9     V5    10.067   1_544     S
Er9     V8    10.067   1_455     S
Er10     V5    10.067   1_454     S
Er10     V5    10.067   1_554     S
Er10     V8    10.067   1_455     S
V11     Ti12    9.866   .     S
V11     Ti12    9.866   1_455     S
V11     Ti12    9.866   1_445     S
V11     Ti12    9.866   1_545     S
V11     Er15    10.067   1_455     S
V11     Er16    10.067   1_455     S
V11     Er14    10.067   1_455     S
V11     Er13    10.067   .     S
V11     Er15    10.067   .     S
V11     Er16    10.067   .     S
V11     Er13    10.067   1_545     S
V11     Er14    10.067   1_445     S
Ti12     V11    9.866   1_655     S
Ti12     V11    9.866   1_665     S
Ti12     V11    9.866   1_565     S
Er13     V8    10.067   1_565     S
Er13     V11    10.067   1_565     S
Er14     V8    10.067   1_565     S
Er14     V11    10.067   1_655     S
Er14     V11    10.067   1_665     S
Er15     V1    10.067   1_645     S
Er15     V1    10.067   1_545     S
Er15     V11    10.067   1_655     S
Er16     V1    10.067   1_655     S
Er16     V11    10.067   1_655     S
