data_sep
_audit_creation_date              2020-02-02
_audit_creation_method            'Pymatgen'
_symmetry_space_group_name_H-M    'P1'
_symmetry_Int_Tables_number       1
loop_
_symmetry_equiv_pos_as_xyz
  x,y,z
_cell_length_a                    18.425
_cell_length_b                    18.425
_cell_length_c                    25.6719
_cell_angle_alpha                 90.0
_cell_angle_beta                 90.0
_cell_angle_gamma                 120.0
loop_
_atom_site_label
_atom_site_type_symbol
_atom_site_fract_x
_atom_site_fract_y
_atom_site_fract_z
Er1     Er     0.3333   0.6667   0.3593
V2     V     0.2136   0.4273   0.0
V3     V     0.2136   0.7864   0.0
V4     V     0.5727   0.7864   0.0
Er5     Er     0.6667   0.3333   0.8593
V6     V     0.7864   0.5727   0.5
V7     V     0.7864   0.2136   0.5
V8     V     0.4273   0.2136   0.5
loop_
_geom_bond_atom_site_label_1
_geom_bond_atom_site_label_2
_geom_bond_distance
_geom_bond_site_symmetry_2
_ccdc_geom_bond_type
Er1     V2    9.984   .     S
Er1     V3    9.984   .     S
Er1     V4    9.984   .     S
Er1     V8    10.008   1_565     S
Er1     V7    10.008   1_565     S
Er1     V7    10.008   1_455     S
Er1     V6    10.008   1_455     S
Er1     V6    10.008   .     S
Er1     V8    10.008   .     S
V2     Er5    10.008   1_454     S
V2     Er5    10.008   1_554     S
V3     Er5    10.008   1_564     S
V3     Er5    10.008   1_454     S
V4     Er5    10.008   1_564     S
V4     Er5    10.008   1_554     S
Er5     V6    9.984   .     S
Er5     V8    9.984   .     S
Er5     V7    9.984   .     S
Er5     V4    10.008   1_546     S
Er5     V3    10.008   1_546     S
Er5     V3    10.008   1_656     S
Er5     V2    10.008   1_656     S
Er5     V2    10.008   1_556     S
Er5     V4    10.008   1_556     S
V6     Er1    10.008   1_655     S
V7     Er1    10.008   1_545     S
V7     Er1    10.008   1_655     S
V8     Er1    10.008   1_545     S
