data_sesa
_audit_creation_date              2020-02-02
_audit_creation_method            'Pymatgen'
_symmetry_space_group_name_H-M    'P1'
_symmetry_Int_Tables_number       1
loop_
_symmetry_equiv_pos_as_xyz
  x,y,z
_cell_length_a                    80.2954
_cell_length_b                    80.2954
_cell_length_c                    80.2954
_cell_angle_alpha                 90.0
_cell_angle_beta                 90.0
_cell_angle_gamma                 90.0
loop_
_atom_site_label
_atom_site_type_symbol
_atom_site_fract_x
_atom_site_fract_y
_atom_site_fract_z
V1     V     0.75   0.9261   0.5739
V2     V     0.75   0.9261   0.4261
Ti3     Ti     0.8495   0.9377   0.5
V4     V     0.75   0.0739   0.5739
V5     V     0.75   0.0739   0.4261
Ti6     Ti     0.8495   0.0623   0.5
Ti7     Ti     0.6505   0.0   0.4377
Ti8     Ti     0.6505   0.0   0.5623
Er9     Er     0.662   0.75   0.162
Er10     Er     0.75   0.662   0.162
Er11     Er     0.838   0.75   0.338
Er12     Er     0.75   0.838   0.338
Er13     Er     0.662   0.838   0.25
Er14     Er     0.838   0.662   0.25
V15     V     0.9261   0.75   0.5739
V16     V     0.9261   0.75   0.4261
Ti17     Ti     0.9377   0.8495   0.5
V18     V     0.0739   0.75   0.5739
V19     V     0.0739   0.75   0.4261
Ti20     Ti     0.0623   0.8495   0.5
Ti21     Ti     0.0   0.6505   0.4377
Ti22     Ti     0.0   0.6505   0.5623
V23     V     0.5739   0.9261   0.25
V24     V     0.4261   0.9261   0.25
Ti25     Ti     0.5   0.9377   0.1505
V26     V     0.5739   0.0739   0.25
V27     V     0.4261   0.0739   0.25
Ti28     Ti     0.5   0.0623   0.1505
Ti29     Ti     0.4377   0.0   0.3495
Ti30     Ti     0.5623   0.0   0.3495
Er31     Er     0.162   0.75   0.338
Er32     Er     0.25   0.662   0.162
Er33     Er     0.162   0.662   0.25
Er34     Er     0.338   0.75   0.162
Er35     Er     0.338   0.838   0.25
Er36     Er     0.25   0.838   0.338
V37     V     0.25   0.0739   0.5739
V38     V     0.25   0.0739   0.4261
Ti39     Ti     0.3495   0.0   0.4377
Ti40     Ti     0.1505   0.0623   0.5
Ti41     Ti     0.3495   0.0   0.5623
V42     V     0.25   0.9261   0.5739
V43     V     0.25   0.9261   0.4261
Ti44     Ti     0.1505   0.9377   0.5
V45     V     0.5739   0.75   0.9261
V46     V     0.4261   0.75   0.9261
Ti47     Ti     0.5   0.8495   0.9377
V48     V     0.4261   0.75   0.0739
V49     V     0.5739   0.75   0.0739
Ti50     Ti     0.5   0.8495   0.0623
Ti51     Ti     0.5623   0.6505   0.0
Ti52     Ti     0.4377   0.6505   0.0
Er53     Er     0.162   0.75   0.662
Er54     Er     0.162   0.662   0.75
Er55     Er     0.338   0.838   0.75
Er56     Er     0.338   0.75   0.838
Er57     Er     0.25   0.662   0.838
Er58     Er     0.25   0.838   0.662
V59     V     0.5739   0.9261   0.75
V60     V     0.4261   0.9261   0.75
Ti61     Ti     0.5   0.9377   0.8495
V62     V     0.5739   0.0739   0.75
V63     V     0.4261   0.0739   0.75
Ti64     Ti     0.5   0.0623   0.8495
Ti65     Ti     0.4377   0.0   0.6505
Ti66     Ti     0.5623   0.0   0.6505
Er67     Er     0.838   0.662   0.75
Er68     Er     0.838   0.75   0.662
Er69     Er     0.75   0.662   0.838
Er70     Er     0.662   0.75   0.838
Er71     Er     0.662   0.838   0.75
Er72     Er     0.75   0.838   0.662
V73     V     0.25   0.5739   0.9261
V74     V     0.25   0.4261   0.9261
Ti75     Ti     0.1505   0.5   0.9377
V76     V     0.25   0.5739   0.0739
V77     V     0.25   0.4261   0.0739
Ti78     Ti     0.1505   0.5   0.0623
Ti79     Ti     0.3495   0.4377   0.0
Ti80     Ti     0.3495   0.5623   0.0
Er81     Er     0.338   0.162   0.75
Er82     Er     0.25   0.338   0.838
Er83     Er     0.338   0.25   0.838
Er84     Er     0.162   0.338   0.75
Er85     Er     0.162   0.25   0.662
Er86     Er     0.25   0.162   0.662
V87     V     0.5739   0.25   0.9261
V88     V     0.4261   0.25   0.9261
Ti89     Ti     0.5   0.1505   0.9377
V90     V     0.5739   0.25   0.0739
V91     V     0.4261   0.25   0.0739
Ti92     Ti     0.5   0.1505   0.0623
Ti93     Ti     0.4377   0.3495   0.0
Ti94     Ti     0.5623   0.3495   0.0
V95     V     0.9261   0.5739   0.75
V96     V     0.9261   0.4261   0.75
Ti97     Ti     0.9377   0.5   0.8495
V98     V     0.0739   0.5739   0.75
V99     V     0.0739   0.4261   0.75
Ti100     Ti     0.0623   0.5   0.8495
Ti101     Ti     0.0   0.4377   0.6505
Ti102     Ti     0.0   0.5623   0.6505
Er103     Er     0.75   0.162   0.662
Er104     Er     0.662   0.162   0.75
Er105     Er     0.75   0.338   0.838
Er106     Er     0.838   0.338   0.75
Er107     Er     0.838   0.25   0.662
Er108     Er     0.662   0.25   0.838
V109     V     0.75   0.5739   0.9261
V110     V     0.75   0.4261   0.9261
Ti111     Ti     0.8495   0.5   0.9377
V112     V     0.75   0.5739   0.0739
V113     V     0.75   0.4261   0.0739
Ti114     Ti     0.8495   0.5   0.0623
Ti115     Ti     0.6505   0.4377   0.0
Ti116     Ti     0.6505   0.5623   0.0
Er117     Er     0.162   0.25   0.338
Er118     Er     0.162   0.338   0.25
Er119     Er     0.25   0.338   0.162
Er120     Er     0.338   0.25   0.162
Er121     Er     0.338   0.162   0.25
Er122     Er     0.25   0.162   0.338
V123     V     0.9261   0.5739   0.25
V124     V     0.9261   0.4261   0.25
Ti125     Ti     0.9377   0.5   0.1505
V126     V     0.0739   0.5739   0.25
V127     V     0.0739   0.4261   0.25
Ti128     Ti     0.0623   0.5   0.1505
Ti129     Ti     0.0   0.4377   0.3495
Ti130     Ti     0.0   0.5623   0.3495
Er131     Er     0.75   0.162   0.338
Er132     Er     0.662   0.25   0.162
Er133     Er     0.662   0.162   0.25
Er134     Er     0.75   0.338   0.162
Er135     Er     0.838   0.25   0.338
Er136     Er     0.838   0.338   0.25
V137     V     0.0739   0.25   0.5739
V138     V     0.0739   0.25   0.4261
Ti139     Ti     0.0   0.3495   0.4377
Ti140     Ti     0.0623   0.1505   0.5
Ti141     Ti     0.0   0.3495   0.5623
V142     V     0.9261   0.25   0.4261
V143     V     0.9261   0.25   0.5739
Ti144     Ti     0.9377   0.1505   0.5
loop_
_geom_bond_atom_site_label_1
_geom_bond_atom_site_label_2
_geom_bond_distance
_geom_bond_site_symmetry_2
_ccdc_geom_bond_type
V1     Ti3    9.998   .     S
V1     Ti8    9.998   1_565     S
V1     Er72    9.999   .     S
V2     Ti3    9.998   .     S
V2     Ti7    9.998   1_565     S
V2     Er12    9.999   .     S
Ti3     Ti6    10.006   1_565     S
Ti3     Ti17    10.011   .     S
V4     Ti6    9.998   .     S
V4     Ti8    9.998   .     S
V4     Er103    9.999   .     S
V5     Ti6    9.998   .     S
V5     Ti7    9.998   .     S
V5     Er131    9.999   .     S
Ti6     Ti3    10.006   1_545     S
Ti6     Ti144    10.011   .     S
Ti7     V2    9.998   1_545     S
Ti7     Ti8    10.006   .     S
Ti7     Ti30    10.011   .     S
Ti8     V1    9.998   1_545     S
Ti8     Ti66    10.011   .     S
Er9     Er13    9.997   .     S
Er9     Er10    9.997   .     S
Er9     V49    9.999   .     S
Er10     Er14    9.997   .     S
Er10     V112    9.999   .     S
Er11     Er14    9.997   .     S
Er11     Er12    9.997   .     S
Er11     V16    9.999   .     S
Er12     Er13    9.997   .     S
Er13     V23    9.999   .     S
Er14     V123    9.999   .     S
V15     Ti17    9.998   .     S
V15     Ti22    9.998   1_655     S
V15     Er68    9.999   .     S
V16     Ti17    9.998   .     S
V16     Ti21    9.998   1_655     S
Ti17     Ti20    10.006   1_655     S
V18     Ti20    9.998   .     S
V18     Ti22    9.998   .     S
V18     Er53    9.999   .     S
V19     Ti20    9.998   .     S
V19     Ti21    9.998   .     S
V19     Er31    9.999   .     S
Ti20     Ti17    10.006   1_455     S
Ti20     Ti44    10.011   .     S
Ti21     V16    9.998   1_455     S
Ti21     Ti22    10.006   .     S
Ti21     Ti130    10.011   .     S
Ti22     V15    9.998   1_455     S
Ti22     Ti102    10.011   .     S
V23     Ti25    9.998   .     S
V23     Ti30    9.998   1_565     S
V24     Ti29    9.998   1_565     S
V24     Ti25    9.998   .     S
V24     Er35    9.999   .     S
Ti25     Ti28    10.006   1_565     S
Ti25     Ti50    10.011   .     S
V26     Ti28    9.998   .     S
V26     Ti30    9.998   .     S
V26     Er133    9.999   .     S
V27     Ti28    9.998   .     S
V27     Ti29    9.998   .     S
V27     Er121    9.999   .     S
Ti28     Ti25    10.006   1_545     S
Ti28     Ti92    10.011   .     S
Ti29     V24    9.998   1_545     S
Ti29     Ti30    10.006   .     S
Ti29     Ti39    10.011   .     S
Ti30     V23    9.998   1_545     S
Er31     Er33    9.997   .     S
Er31     Er36    9.997   .     S
Er32     Er33    9.997   .     S
Er32     Er34    9.997   .     S
Er32     V76    9.999   .     S
Er33     V126    9.999   .     S
Er34     Er35    9.997   .     S
Er34     V48    9.999   .     S
Er35     Er36    9.997   .     S
Er36     V43    9.999   .     S
V37     Ti40    9.998   .     S
V37     Ti41    9.998   .     S
V37     Er86    9.999   .     S
V38     Ti40    9.998   .     S
V38     Ti39    9.998   .     S
V38     Er122    9.999   .     S
Ti39     V43    9.998   1_545     S
Ti39     Ti41    10.006   .     S
Ti40     Ti44    10.006   1_545     S
Ti40     Ti140    10.011   .     S
Ti41     V42    9.998   1_545     S
Ti41     Ti65    10.011   .     S
V42     Ti44    9.998   .     S
V42     Ti41    9.998   1_565     S
V42     Er58    9.999   .     S
V43     Ti39    9.998   1_565     S
V43     Ti44    9.998   .     S
Ti44     Ti40    10.006   1_565     S
V45     Ti47    9.998   .     S
V45     Ti51    9.998   1_556     S
V45     Er70    9.999   .     S
V46     Ti47    9.998   .     S
V46     Ti52    9.998   1_556     S
V46     Er56    9.999   .     S
Ti47     Ti50    10.006   1_556     S
Ti47     Ti61    10.011   .     S
V48     Ti50    9.998   .     S
V48     Ti52    9.998   .     S
V49     Ti50    9.998   .     S
V49     Ti51    9.998   .     S
Ti50     Ti47    10.006   1_554     S
Ti51     V45    9.998   1_554     S
Ti51     Ti52    10.006   .     S
Ti51     Ti116    10.011   .     S
Ti52     V46    9.998   1_554     S
Ti52     Ti80    10.011   .     S
Er53     Er58    9.997   .     S
Er53     Er54    9.997   .     S
Er54     Er57    9.997   .     S
Er54     V98    9.999   .     S
Er55     Er58    9.997   .     S
Er55     Er56    9.997   .     S
Er55     V60    9.999   .     S
Er56     Er57    9.997   .     S
Er57     V73    9.999   .     S
V59     Ti61    9.998   .     S
V59     Ti66    9.998   1_565     S
V59     Er71    9.999   .     S
V60     Ti61    9.998   .     S
V60     Ti65    9.998   1_565     S
Ti61     Ti64    10.006   1_565     S
V62     Ti64    9.998   .     S
V62     Ti66    9.998   .     S
V62     Er104    9.999   .     S
V63     Ti64    9.998   .     S
V63     Ti65    9.998   .     S
V63     Er81    9.999   .     S
Ti64     Ti61    10.006   1_545     S
Ti64     Ti89    10.011   .     S
Ti65     V60    9.998   1_545     S
Ti65     Ti66    10.006   .     S
Ti66     V59    9.998   1_545     S
Er67     Er68    9.997   .     S
Er67     Er69    9.997   .     S
Er67     V95    9.999   .     S
Er68     Er72    9.997   .     S
Er69     Er70    9.997   .     S
Er69     V109    9.999   .     S
Er70     Er71    9.997   .     S
Er71     Er72    9.997   .     S
V73     Ti75    9.998   .     S
V73     Ti80    9.998   1_556     S
V74     Ti79    9.998   1_556     S
V74     Ti75    9.998   .     S
V74     Er82    9.999   .     S
Ti75     Ti78    10.006   1_556     S
Ti75     Ti100    10.011   .     S
V76     Ti78    9.998   .     S
V76     Ti80    9.998   .     S
V77     Ti78    9.998   .     S
V77     Ti79    9.998   .     S
V77     Er119    9.999   .     S
Ti78     Ti75    10.006   1_554     S
Ti78     Ti128    10.011   .     S
Ti79     V74    9.998   1_554     S
Ti79     Ti80    10.006   .     S
Ti79     Ti93    10.011   .     S
Ti80     V73    9.998   1_554     S
Er81     Er86    9.997   .     S
Er81     Er83    9.997   .     S
Er82     Er83    9.997   .     S
Er82     Er84    9.997   .     S
Er83     V88    9.999   .     S
Er84     Er85    9.997   .     S
Er84     V99    9.999   .     S
Er85     Er86    9.997   .     S
Er85     V137    9.999   .     S
V87     Ti89    9.998   .     S
V87     Ti94    9.998   1_556     S
V87     Er108    9.999   .     S
V88     Ti93    9.998   1_556     S
V88     Ti89    9.998   .     S
Ti89     Ti92    10.006   1_556     S
V90     Ti92    9.998   .     S
V90     Ti94    9.998   .     S
V90     Er132    9.999   .     S
V91     Ti92    9.998   .     S
V91     Ti93    9.998   .     S
V91     Er120    9.999   .     S
Ti92     Ti89    10.006   1_554     S
Ti93     V88    9.998   1_554     S
Ti93     Ti94    10.006   .     S
Ti94     V87    9.998   1_554     S
Ti94     Ti115    10.011   .     S
V95     Ti97    9.998   .     S
V95     Ti102    9.998   1_655     S
V96     Ti97    9.998   .     S
V96     Ti101    9.998   1_655     S
V96     Er106    9.999   .     S
Ti97     Ti100    10.006   1_655     S
Ti97     Ti111    10.011   .     S
V98     Ti100    9.998   .     S
V98     Ti102    9.998   .     S
V99     Ti100    9.998   .     S
V99     Ti101    9.998   .     S
Ti100     Ti97    10.006   1_455     S
Ti101     V96    9.998   1_455     S
Ti101     Ti102    10.006   .     S
Ti101     Ti141    10.011   .     S
Ti102     V95    9.998   1_455     S
Er103     Er107    9.997   .     S
Er103     Er104    9.997   .     S
Er104     Er108    9.997   .     S
Er105     Er108    9.997   .     S
Er105     Er106    9.997   .     S
Er105     V110    9.999   .     S
Er106     Er107    9.997   .     S
Er107     V143    9.999   .     S
V109     Ti111    9.998   .     S
V109     Ti116    9.998   1_556     S
V110     Ti111    9.998   .     S
V110     Ti115    9.998   1_556     S
Ti111     Ti114    10.006   1_556     S
V112     Ti114    9.998   .     S
V112     Ti116    9.998   .     S
V113     Ti114    9.998   .     S
V113     Ti115    9.998   .     S
V113     Er134    9.999   .     S
Ti114     Ti111    10.006   1_554     S
Ti114     Ti125    10.011   .     S
Ti115     V110    9.998   1_554     S
Ti115     Ti116    10.006   .     S
Ti116     V109    9.998   1_554     S
Er117     Er118    9.997   .     S
Er117     Er122    9.997   .     S
Er117     V138    9.999   .     S
Er118     Er119    9.997   .     S
Er118     V127    9.999   .     S
Er119     Er120    9.997   .     S
Er120     Er121    9.997   .     S
Er121     Er122    9.997   .     S
V123     Ti125    9.998   .     S
V123     Ti130    9.998   1_655     S
V124     Ti129    9.998   1_655     S
V124     Ti125    9.998   .     S
V124     Er136    9.999   .     S
Ti125     Ti128    10.006   1_655     S
V126     Ti128    9.998   .     S
V126     Ti130    9.998   .     S
V127     Ti128    9.998   .     S
V127     Ti129    9.998   .     S
Ti128     Ti125    10.006   1_455     S
Ti129     V124    9.998   1_455     S
Ti129     Ti130    10.006   .     S
Ti129     Ti139    10.011   .     S
Ti130     V123    9.998   1_455     S
Er131     Er133    9.997   .     S
Er131     Er135    9.997   .     S
Er132     Er133    9.997   .     S
Er132     Er134    9.997   .     S
Er134     Er136    9.997   .     S
Er135     Er136    9.997   .     S
Er135     V142    9.999   .     S
V137     Ti140    9.998   .     S
V137     Ti141    9.998   .     S
V138     Ti140    9.998   .     S
V138     Ti139    9.998   .     S
Ti139     V142    9.998   1_455     S
Ti139     Ti141    10.006   .     S
Ti140     Ti144    10.006   1_455     S
Ti141     V143    9.998   1_455     S
V142     Ti139    9.998   1_655     S
V142     Ti144    9.998   .     S
V143     Ti144    9.998   .     S
V143     Ti141    9.998   1_655     S
Ti144     Ti140    10.006   1_655     S
