data_sgt
_audit_creation_date              2020-02-02
_audit_creation_method            'Pymatgen'
_symmetry_space_group_name_H-M    'P1'
_symmetry_Int_Tables_number       1
loop_
_symmetry_equiv_pos_as_xyz
  x,y,z
_cell_length_a                    32.8389
_cell_length_b                    32.8389
_cell_length_c                    111.4233
_cell_angle_alpha                 90.0
_cell_angle_beta                 90.0
_cell_angle_gamma                 90.0
loop_
_atom_site_label
_atom_site_type_symbol
_atom_site_fract_x
_atom_site_fract_y
_atom_site_fract_z
V1     V     0.0   0.4023   0.7135
V2     V     0.0   0.0977   0.7135
V3     V     0.0   0.5977   0.2865
V4     V     0.0   0.9023   0.2865
V5     V     0.6523   0.75   0.5365
V6     V     0.3477   0.75   0.5365
V7     V     0.6523   0.25   0.4635
V8     V     0.3477   0.25   0.4635
V9     V     0.5   0.5977   0.2135
V10     V     0.5   0.9023   0.2135
Ti11     Ti     0.6523   0.75   0.6971
Ti12     Ti     0.8477   0.75   0.8029
Ce13     Ce     0.75   0.5242   0.75
Ce14     Ce     0.75   0.9758   0.75
Ti15     Ti     0.3477   0.75   0.6971
Ti16     Ti     0.1523   0.75   0.8029
Ce17     Ce     0.25   0.9758   0.75
Ce18     Ce     0.25   0.5242   0.75
Er19     Er     0.2117   0.75   0.6168
Er20     Er     0.7883   0.75   0.6168
Er21     Er     0.0   0.9617   0.6332
Er22     Er     0.0   0.5383   0.6332
Ti23     Ti     0.0   0.4023   0.5529
Ti24     Ti     0.0   0.5977   0.4471
Ce25     Ce     0.7742   0.5   0.5
Ce26     Ce     0.2258   0.5   0.5
Ti27     Ti     0.0   0.9023   0.4471
Ti28     Ti     0.0   0.0977   0.5529
Ce29     Ce     0.2258   0.0   0.5
Ce30     Ce     0.7742   0.0   0.5
V31     V     0.8477   0.25   0.0365
V32     V     0.1523   0.25   0.0365
V33     V     0.5   0.4023   0.7865
V34     V     0.5   0.0977   0.7865
Ti35     Ti     0.5   0.4023   0.9471
Ti36     Ti     0.5   0.5977   0.0529
Ce37     Ce     0.2742   0.5   0.0
Ce38     Ce     0.7258   0.5   0.0
Ti39     Ti     0.5   0.0977   0.9471
Ti40     Ti     0.5   0.9023   0.0529
Ce41     Ce     0.2742   0.0   0.0
Ce42     Ce     0.7258   0.0   0.0
V43     V     0.8477   0.75   0.9635
V44     V     0.1523   0.75   0.9635
Er45     Er     0.5   0.5383   0.8668
Er46     Er     0.5   0.9617   0.8668
Er47     Er     0.7117   0.75   0.8832
Er48     Er     0.2883   0.75   0.8832
Er49     Er     0.5   0.0383   0.1332
Er50     Er     0.7117   0.25   0.1168
Er51     Er     0.5   0.4617   0.1332
Er52     Er     0.2883   0.25   0.1168
Ti53     Ti     0.6523   0.25   0.3029
Ti54     Ti     0.8477   0.25   0.1971
Ce55     Ce     0.75   0.0242   0.25
Ce56     Ce     0.75   0.4758   0.25
Ti57     Ti     0.3477   0.25   0.3029
Ti58     Ti     0.1523   0.25   0.1971
Ce59     Ce     0.25   0.4758   0.25
Ce60     Ce     0.25   0.0242   0.25
Er61     Er     0.7883   0.25   0.3832
Er62     Er     0.2117   0.25   0.3832
Er63     Er     0.0   0.0383   0.3668
Er64     Er     0.0   0.4617   0.3668
loop_
_geom_bond_atom_site_label_1
_geom_bond_atom_site_label_2
_geom_bond_distance
_geom_bond_site_symmetry_2
_ccdc_geom_bond_type
V1     Ce13    10.0   1_455     S
V1     Ce18    10.0   .     S
V1     V2    10.0   .     S
V1     Er22    10.0   .     S
V2     Ce14    10.0   1_445     S
V2     Ce17    10.0   1_545     S
V2     Er21    10.0   1_545     S
V3     Ce56    10.0   1_455     S
V3     Ce59    10.0   .     S
V3     V4    10.0   .     S
V3     Er64    10.0   .     S
V4     Ce55    10.0   1_465     S
V4     Ce60    10.0   1_565     S
V4     Er63    10.0   1_565     S
V5     Ce30    10.0   1_565     S
V5     Ce25    10.0   .     S
V5     V6    10.0   .     S
V5     Er20    10.0   .     S
V6     Ce29    10.0   1_565     S
V6     Ce26    10.0   .     S
V6     Er19    10.0   .     S
V7     Ce30    10.0   .     S
V7     Ce25    10.0   .     S
V7     V8    10.0   .     S
V7     Er61    10.0   .     S
V8     Ce29    10.0   .     S
V8     Ce26    10.0   .     S
V8     Er62    10.0   .     S
V9     Ce56    10.0   .     S
V9     Ce59    10.0   .     S
V9     V10    10.0   .     S
V9     Er51    10.0   .     S
V10     Ce60    10.0   1_565     S
V10     Ce55    10.0   1_565     S
V10     Er49    10.0   1_565     S
Ti11     Ce14    10.0   .     S
Ti11     Ce13    10.0   .     S
Ti11     Ti15    10.0   .     S
Ti11     Er20    10.0   .     S
Ti12     Ce14    10.0   .     S
Ti12     Ce13    10.0   .     S
Ti12     Ti16    10.0   1_655     S
Ti12     Er47    10.0   .     S
Ce13     V1    10.0   1_655     S
Ce13     V33    10.0   .     S
Ce14     V2    10.0   1_665     S
Ce14     V34    10.0   1_565     S
Ti15     Ce17    10.0   .     S
Ti15     Ce18    10.0   .     S
Ti15     Er19    10.0   .     S
Ti16     Ce17    10.0   .     S
Ti16     Ce18    10.0   .     S
Ti16     Ti12    10.0   1_455     S
Ti16     Er48    10.0   .     S
Ce17     V2    10.0   1_565     S
Ce17     V34    10.0   1_565     S
Ce18     V33    10.0   .     S
Er19     Er21    10.0   .     S
Er19     Er22    10.0   .     S
Er20     Er22    10.0   1_655     S
Er20     Er21    10.0   1_655     S
Er21     Er20    10.0   1_455     S
Er21     V2    10.0   1_565     S
Er21     Ti28    10.0   1_565     S
Er22     Er20    10.0   1_455     S
Er22     Ti23    10.0   .     S
Ti23     Ce25    10.0   1_455     S
Ti23     Ce26    10.0   .     S
Ti23     Ti28    10.0   .     S
Ti24     Ce25    10.0   1_455     S
Ti24     Ce26    10.0   .     S
Ti24     Ti27    10.0   .     S
Ti24     Er64    10.0   .     S
Ce25     Ti23    10.0   1_655     S
Ce25     Ti24    10.0   1_655     S
Ti27     Ce30    10.0   1_465     S
Ti27     Ce29    10.0   1_565     S
Ti27     Er63    10.0   1_565     S
Ti28     Er21    10.0   1_545     S
Ti28     Ce30    10.0   1_455     S
Ti28     Ce29    10.0   .     S
Ce29     V6    10.0   1_545     S
Ce29     Ti27    10.0   1_545     S
Ce30     V5    10.0   1_545     S
Ce30     Ti27    10.0   1_645     S
Ce30     Ti28    10.0   1_655     S
V31     Ce42    10.0   .     S
V31     Ce38    10.0   .     S
V31     V32    10.0   1_655     S
V31     Er50    10.0   .     S
V32     Ce41    10.0   .     S
V32     Ce37    10.0   .     S
V32     V31    10.0   1_455     S
V32     Er52    10.0   .     S
V33     V34    10.0   .     S
V33     Er45    10.0   .     S
V34     Ce14    10.0   1_545     S
V34     Ce17    10.0   1_545     S
V34     Er46    10.0   1_545     S
Ti35     Ce38    10.0   1_556     S
Ti35     Ce37    10.0   1_556     S
Ti35     Ti39    10.0   .     S
Ti35     Er45    10.0   .     S
Ti36     Ce38    10.0   .     S
Ti36     Ce37    10.0   .     S
Ti36     Ti40    10.0   .     S
Ti36     Er51    10.0   .     S
Ce37     Ti35    10.0   1_554     S
Ce37     V44    10.0   1_554     S
Ce38     Ti35    10.0   1_554     S
Ce38     V43    10.0   1_554     S
Ti39     Ce41    10.0   1_556     S
Ti39     Ce42    10.0   1_556     S
Ti39     Er46    10.0   1_545     S
Ti40     Ce41    10.0   1_565     S
Ti40     Ce42    10.0   1_565     S
Ti40     Er49    10.0   1_565     S
Ce41     Ti39    10.0   1_554     S
Ce41     Ti40    10.0   1_545     S
Ce41     V44    10.0   1_544     S
Ce42     Ti39    10.0   1_554     S
Ce42     Ti40    10.0   1_545     S
Ce42     V43    10.0   1_544     S
V43     Ce42    10.0   1_566     S
V43     Ce38    10.0   1_556     S
V43     V44    10.0   1_655     S
V43     Er47    10.0   .     S
V44     Ce41    10.0   1_566     S
V44     Ce37    10.0   1_556     S
V44     V43    10.0   1_455     S
V44     Er48    10.0   .     S
Er45     Er48    10.0   .     S
Er45     Er47    10.0   .     S
Er46     Er48    10.0   .     S
Er46     Er47    10.0   .     S
Er46     Ti39    10.0   1_565     S
Er46     V34    10.0   1_565     S
Er49     Er52    10.0   .     S
Er49     Er50    10.0   .     S
Er49     V10    10.0   1_545     S
Er49     Ti40    10.0   1_545     S
Er50     Er51    10.0   .     S
Er50     Ti54    10.0   .     S
Er51     Er52    10.0   .     S
Er52     Ti58    10.0   .     S
Ti53     Ce55    10.0   .     S
Ti53     Ce56    10.0   .     S
Ti53     Ti57    10.0   .     S
Ti53     Er61    10.0   .     S
Ti54     Ce55    10.0   .     S
Ti54     Ce56    10.0   .     S
Ti54     Ti58    10.0   1_655     S
Ce55     V4    10.0   1_645     S
Ce55     V10    10.0   1_545     S
Ce56     V3    10.0   1_655     S
Ti57     Ce59    10.0   .     S
Ti57     Ce60    10.0   .     S
Ti57     Er62    10.0   .     S
Ti58     Ce59    10.0   .     S
Ti58     Ce60    10.0   .     S
Ti58     Ti54    10.0   1_455     S
Ce60     V4    10.0   1_545     S
Ce60     V10    10.0   1_545     S
Er61     Er63    10.0   1_655     S
Er61     Er64    10.0   1_655     S
Er62     Er64    10.0   .     S
Er62     Er63    10.0   .     S
Er63     Ti27    10.0   1_545     S
Er63     Er61    10.0   1_455     S
Er63     V4    10.0   1_545     S
Er64     Er61    10.0   1_455     S
