data_shba
_audit_creation_date              2020-02-02
_audit_creation_method            'Pymatgen'
_symmetry_space_group_name_H-M    'P1'
_symmetry_Int_Tables_number       1
loop_
_symmetry_equiv_pos_as_xyz
  x,y,z
_cell_length_a                    73.3503
_cell_length_b                    73.3503
_cell_length_c                    31.1921
_cell_angle_alpha                 90.0
_cell_angle_beta                 90.0
_cell_angle_gamma                 120.0
loop_
_atom_site_label
_atom_site_type_symbol
_atom_site_fract_x
_atom_site_fract_y
_atom_site_fract_z
Er1     Er     0.2227   0.4453   0.6603
Ce2     Ce     0.144   0.2879   0.6603
Er3     Er     0.2227   0.4453   0.3397
Ce4     Ce     0.1439   0.2879   0.3397
Er5     Er     0.4453   0.2227   0.3397
Ce6     Ce     0.2879   0.144   0.3397
Er7     Er     0.4453   0.2227   0.6603
Ce8     Ce     0.2879   0.1439   0.6603
V9     V     0.7121   0.2879   0.1603
V10     V     0.5758   0.2879   0.1603
V11     V     0.7121   0.4242   0.1603
V12     V     0.7121   0.2879   0.8397
V13     V     0.7121   0.4242   0.8397
V14     V     0.5758   0.2879   0.8397
Er15     Er     0.7773   0.2227   0.6603
Ce16     Ce     0.8561   0.1439   0.6603
Er17     Er     0.7773   0.2227   0.3397
Ce18     Ce     0.8561   0.1439   0.3397
V19     V     0.4242   0.7121   0.1603
V20     V     0.2879   0.7121   0.1603
V21     V     0.2879   0.5758   0.1603
V22     V     0.4242   0.7121   0.8397
V23     V     0.2879   0.7121   0.8397
V24     V     0.2879   0.5758   0.8397
Ce25     Ce     0.7121   0.8561   0.6603
Er26     Er     0.5547   0.7773   0.6603
Ce27     Ce     0.7121   0.8561   0.3397
Er28     Er     0.5547   0.7774   0.3397
Ce29     Ce     0.1439   0.8561   0.3397
Er30     Er     0.2227   0.7773   0.3397
Ce31     Ce     0.1439   0.8561   0.6603
Er32     Er     0.2227   0.7773   0.6603
Ti33     Ti     0.0787   0.1574   0.1603
Ti34     Ti     0.0787   0.1574   0.8397
Ti35     Ti     0.1574   0.0787   0.1603
Ti36     Ti     0.1574   0.0787   0.8397
Ti37     Ti     0.9213   0.0787   0.1603
Ti38     Ti     0.9213   0.0787   0.8397
Ti39     Ti     0.0787   0.9213   0.1603
Ti40     Ti     0.0787   0.9213   0.8397
Ti41     Ti     0.9213   0.8426   0.1603
Ti42     Ti     0.9213   0.8426   0.8397
Ti43     Ti     0.8426   0.9213   0.1603
Ti44     Ti     0.8426   0.9213   0.8397
Ce45     Ce     0.8561   0.7121   0.6603
Er46     Er     0.7774   0.5547   0.6603
Ce47     Ce     0.8561   0.7121   0.3397
Er48     Er     0.7773   0.5547   0.3397
loop_
_geom_bond_atom_site_label_1
_geom_bond_atom_site_label_2
_geom_bond_distance
_geom_bond_site_symmetry_2
_ccdc_geom_bond_type
Er1     Ce2    10.0   .     S
Er1     Er3    10.0   .     S
Er1     V24    10.0   .     S
Ce2     Ce4    10.0   .     S
Ce2     Ti34    10.0   .     S
Er3     Ce4    10.0   .     S
Er3     V21    10.0   .     S
Ce4     Ti33    10.0   .     S
Er5     Ce6    10.0   .     S
Er5     Er7    10.0   .     S
Er5     V10    10.0   .     S
Ce6     Ce8    10.0   .     S
Ce6     Ti35    10.0   .     S
Er7     Ce8    10.0   .     S
Er7     V14    10.0   .     S
Ce8     Ti36    10.0   .     S
V9     Er17    10.0   .     S
V9     V11    10.0   .     S
V9     V10    10.0   .     S
V9     V12    10.0   1_554     S
V10     V11    10.0   .     S
V10     V14    10.0   1_554     S
V11     Er48    10.0   .     S
V11     V13    10.0   1_554     S
V12     Er15    10.0   .     S
V12     V14    10.0   .     S
V12     V13    10.0   .     S
V12     V9    10.0   1_556     S
V13     V14    10.0   .     S
V13     Er46    10.0   .     S
V13     V11    10.0   1_556     S
V14     V10    10.0   1_556     S
Er15     Ce16    10.0   .     S
Er15     Er17    10.0   .     S
Ce16     Ce18    10.0   .     S
Ce16     Ti38    10.0   .     S
Er17     Ce18    10.0   .     S
Ce18     Ti37    10.0   .     S
V19     V21    10.0   .     S
V19     V20    10.0   .     S
V19     Er28    10.0   .     S
V19     V22    10.0   1_554     S
V20     Er30    10.0   .     S
V20     V21    10.0   .     S
V20     V23    10.0   1_554     S
V21     V24    10.0   1_554     S
V22     V23    10.0   .     S
V22     V24    10.0   .     S
V22     Er26    10.0   .     S
V22     V19    10.0   1_556     S
V23     Er32    10.0   .     S
V23     V24    10.0   .     S
V23     V20    10.0   1_556     S
V24     V21    10.0   1_556     S
Ce25     Er26    10.0   .     S
Ce25     Ce27    10.0   .     S
Ce25     Ti44    10.0   .     S
Er26     Er28    10.0   .     S
Ce27     Er28    10.0   .     S
Ce27     Ti43    10.0   .     S
Ce29     Ce31    10.0   .     S
Ce29     Er30    10.0   .     S
Ce29     Ti39    10.0   .     S
Er30     Er32    10.0   .     S
Ce31     Er32    10.0   .     S
Ce31     Ti40    10.0   .     S
Ti33     Ti34    10.0   1_554     S
Ti33     Ti35    10.0   .     S
Ti33     Ti37    10.0   1_455     S
Ti34     Ti33    10.0   1_556     S
Ti34     Ti36    10.0   .     S
Ti34     Ti38    10.0   1_455     S
Ti35     Ti36    10.0   1_554     S
Ti35     Ti39    10.0   1_545     S
Ti36     Ti35    10.0   1_556     S
Ti36     Ti40    10.0   1_545     S
Ti37     Ti33    10.0   1_655     S
Ti37     Ti38    10.0   1_554     S
Ti37     Ti43    10.0   1_545     S
Ti38     Ti34    10.0   1_655     S
Ti38     Ti37    10.0   1_556     S
Ti38     Ti44    10.0   1_545     S
Ti39     Ti35    10.0   1_565     S
Ti39     Ti40    10.0   1_554     S
Ti39     Ti41    10.0   1_455     S
Ti40     Ti36    10.0   1_565     S
Ti40     Ti39    10.0   1_556     S
Ti40     Ti42    10.0   1_455     S
Ti41     Ce47    10.0   .     S
Ti41     Ti39    10.0   1_655     S
Ti41     Ti42    10.0   1_554     S
Ti41     Ti43    10.0   .     S
Ti42     Ce45    10.0   .     S
Ti42     Ti40    10.0   1_655     S
Ti42     Ti41    10.0   1_556     S
Ti42     Ti44    10.0   .     S
Ti43     Ti37    10.0   1_565     S
Ti43     Ti44    10.0   1_554     S
Ti44     Ti38    10.0   1_565     S
Ti44     Ti43    10.0   1_556     S
Ce45     Er46    10.0   .     S
Ce45     Ce47    10.0   .     S
Er46     Er48    10.0   .     S
Ce47     Er48    10.0   .     S
