data_shf
_audit_creation_date              2020-02-02
_audit_creation_method            'Pymatgen'
_symmetry_space_group_name_H-M    'P1'
_symmetry_Int_Tables_number       1
loop_
_symmetry_equiv_pos_as_xyz
  x,y,z
_cell_length_a                    66.1805
_cell_length_b                    48.2062
_cell_length_c                    38.2891
_cell_angle_alpha                 90.0
_cell_angle_beta                 90.0
_cell_angle_gamma                 90.0
loop_
_atom_site_label
_atom_site_type_symbol
_atom_site_fract_x
_atom_site_fract_y
_atom_site_fract_z
Er1     Er     0.2266   0.5   0.5
Ti2     Ti     0.0756   0.5   0.5
Ti3     Ti     0.9244   0.5   0.5
Er4     Er     0.7734   0.5   0.5
Ti5     Ti     0.9244   0.0   0.5
Er6     Er     0.2266   0.0   0.5
Ti7     Ti     0.0756   0.0   0.5
Er8     Er     0.7734   0.0   0.5
V9     V     0.3575   0.5529   0.6123
V10     V     0.3575   0.4471   0.3877
V11     V     0.6425   0.5529   0.6123
V12     V     0.6425   0.4471   0.3877
Ce13     Ce     0.4244   0.8537   0.8148
Ce14     Ce     0.5756   0.8537   0.8148
Ce15     Ce     0.4244   0.6463   0.8148
Ce16     Ce     0.5756   0.6463   0.8148
V17     V     0.6425   0.9471   0.6123
V18     V     0.6425   0.0529   0.3877
V19     V     0.3575   0.9471   0.6123
V20     V     0.3575   0.0529   0.3877
Ce21     Ce     0.4244   0.1463   0.1852
Ce22     Ce     0.5756   0.1463   0.1852
Ce23     Ce     0.4244   0.3537   0.1852
Ce24     Ce     0.5756   0.3537   0.1852
Ti25     Ti     0.5756   0.0   0.0
Er26     Er     0.2734   0.0   0.0
Ti27     Ti     0.4244   0.0   0.0
Er28     Er     0.7266   0.0   0.0
Er29     Er     0.2734   0.5   0.0
Ti30     Ti     0.4244   0.5   0.0
Ti31     Ti     0.5756   0.5   0.0
Er32     Er     0.7266   0.5   0.0
V33     V     0.8575   0.4471   0.1123
V34     V     0.8575   0.5529   0.8877
V35     V     0.1425   0.4471   0.1123
V36     V     0.1425   0.5529   0.8877
V37     V     0.8575   0.0529   0.1123
V38     V     0.8575   0.9471   0.8877
Ce39     Ce     0.0756   0.8537   0.6852
Ce40     Ce     0.9244   0.8537   0.6852
Ce41     Ce     0.0756   0.6463   0.6852
Ce42     Ce     0.9244   0.6463   0.6852
V43     V     0.1425   0.0529   0.1123
V44     V     0.1425   0.9471   0.8877
Ce45     Ce     0.0756   0.3537   0.3148
Ce46     Ce     0.9244   0.3537   0.3148
Ce47     Ce     0.0756   0.1463   0.3148
Ce48     Ce     0.9244   0.1463   0.3148
loop_
_geom_bond_atom_site_label_1
_geom_bond_atom_site_label_2
_geom_bond_distance
_geom_bond_site_symmetry_2
_ccdc_geom_bond_type
Er1     Ti2    10.0   .     S
Er1     V9    10.0   .     S
Er1     V10    10.0   .     S
Ti2     Ti3    10.0   1_455     S
Ti2     Ce41    10.0   .     S
Ti2     Ce45    10.0   .     S
Ti3     Ti2    10.0   1_655     S
Ti3     Er4    10.0   .     S
Ti3     Ce42    10.0   .     S
Ti3     Ce46    10.0   .     S
Er4     V11    10.0   .     S
Er4     V12    10.0   .     S
Ti5     Er8    10.0   .     S
Ti5     Ti7    10.0   1_655     S
Ti5     Ce40    10.0   1_545     S
Ti5     Ce48    10.0   .     S
Er6     Ti7    10.0   .     S
Er6     V19    10.0   1_545     S
Er6     V20    10.0   .     S
Ti7     Ti5    10.0   1_455     S
Ti7     Ce39    10.0   1_545     S
Ti7     Ce47    10.0   .     S
Er8     V17    10.0   1_545     S
Er8     V18    10.0   .     S
V9     V10    10.0   .     S
V9     Ce15    10.0   .     S
V10     Ce23    10.0   .     S
V11     V12    10.0   .     S
V11     Ce16    10.0   .     S
V12     Ce24    10.0   .     S
Ce13     Ce14    10.0   .     S
Ce13     Ce15    10.0   .     S
Ce13     V19    10.0   .     S
Ce13     Ti27    10.0   1_566     S
Ce14     Ce16    10.0   .     S
Ce14     V17    10.0   .     S
Ce14     Ti25    10.0   1_566     S
Ce15     Ce16    10.0   .     S
Ce15     Ti30    10.0   1_556     S
Ce16     Ti31    10.0   1_556     S
V17     V18    10.0   1_565     S
V17     Er8    10.0   1_565     S
V18     V17    10.0   1_545     S
V18     Ce22    10.0   .     S
V19     V20    10.0   1_565     S
V19     Er6    10.0   1_565     S
V20     V19    10.0   1_545     S
V20     Ce21    10.0   .     S
Ce21     Ce22    10.0   .     S
Ce21     Ce23    10.0   .     S
Ce21     Ti27    10.0   .     S
Ce22     Ce24    10.0   .     S
Ce22     Ti25    10.0   .     S
Ce23     Ce24    10.0   .     S
Ce23     Ti30    10.0   .     S
Ce24     Ti31    10.0   .     S
Ti25     Er28    10.0   .     S
Ti25     Ti27    10.0   .     S
Ti25     Ce14    10.0   1_544     S
Er26     Ti27    10.0   .     S
Er26     V43    10.0   .     S
Er26     V44    10.0   1_544     S
Ti27     Ce13    10.0   1_544     S
Er28     V37    10.0   .     S
Er28     V38    10.0   1_544     S
Er29     Ti30    10.0   .     S
Er29     V35    10.0   .     S
Er29     V36    10.0   1_554     S
Ti30     Ti31    10.0   .     S
Ti30     Ce15    10.0   1_554     S
Ti31     Er32    10.0   .     S
Ti31     Ce16    10.0   1_554     S
Er32     V33    10.0   .     S
Er32     V34    10.0   1_554     S
V33     V34    10.0   1_554     S
V33     Ce46    10.0   .     S
V34     V33    10.0   1_556     S
V34     Er32    10.0   1_556     S
V34     Ce42    10.0   .     S
V35     V36    10.0   1_554     S
V35     Ce45    10.0   .     S
V36     V35    10.0   1_556     S
V36     Er29    10.0   1_556     S
V36     Ce41    10.0   .     S
V37     V38    10.0   1_544     S
V37     Ce48    10.0   .     S
V38     V37    10.0   1_566     S
V38     Er28    10.0   1_566     S
V38     Ce40    10.0   .     S
Ce39     Ti7    10.0   1_565     S
Ce39     Ce40    10.0   1_455     S
Ce39     Ce41    10.0   .     S
Ce39     V44    10.0   .     S
Ce40     Ti5    10.0   1_565     S
Ce40     Ce39    10.0   1_655     S
Ce40     Ce42    10.0   .     S
Ce41     Ce42    10.0   1_455     S
Ce42     Ce41    10.0   1_655     S
V43     V44    10.0   1_544     S
V43     Ce47    10.0   .     S
V44     V43    10.0   1_566     S
V44     Er26    10.0   1_566     S
Ce45     Ce46    10.0   1_455     S
Ce45     Ce47    10.0   .     S
Ce46     Ce45    10.0   1_655     S
Ce46     Ce48    10.0   .     S
Ce47     Ce48    10.0   1_455     S
Ce48     Ce47    10.0   1_655     S
