data_sie
_audit_creation_date              2020-02-02
_audit_creation_method            'Pymatgen'
_symmetry_space_group_name_H-M    'P1'
_symmetry_Int_Tables_number       1
loop_
_symmetry_equiv_pos_as_xyz
  x,y,z
_cell_length_a                    56.5731
_cell_length_b                    27.5805
_cell_length_c                    16.1538
_cell_angle_alpha                 90.0
_cell_angle_beta                 90.0
_cell_angle_gamma                 90.0
loop_
_atom_site_label
_atom_site_type_symbol
_atom_site_fract_x
_atom_site_fract_y
_atom_site_fract_z
Er1     Er     0.1682   0.1813   0.5
Er2     Er     0.8318   0.1813   0.5
V3     V     0.9116   0.3187   0.0
V4     V     0.0884   0.3187   0.0
Er5     Er     0.1682   0.8187   0.5
Er6     Er     0.8318   0.8187   0.5
V7     V     0.9116   0.6813   0.0
V8     V     0.0884   0.6813   0.0
Er9     Er     0.3318   0.3187   0.5
Er10     Er     0.6682   0.3187   0.5
V11     V     0.5884   0.1813   0.0
V12     V     0.4116   0.1813   0.0
Er13     Er     0.3318   0.6813   0.5
Er14     Er     0.6682   0.6813   0.5
V15     V     0.5884   0.8187   0.0
V16     V     0.4116   0.8187   0.0
loop_
_geom_bond_atom_site_label_1
_geom_bond_atom_site_label_2
_geom_bond_distance
_geom_bond_site_symmetry_2
_ccdc_geom_bond_type
Er1     V4    10.0   1_556     S
Er1     V4    10.0   .     S
Er1     Er5    10.0   1_545     S
Er1     Er9    10.0   .     S
Er2     V3    10.0   1_556     S
Er2     V3    10.0   .     S
Er2     Er6    10.0   1_545     S
Er2     Er10    10.0   .     S
V3     Er2    10.0   1_554     S
V3     V4    10.0   1_655     S
V3     V7    10.0   .     S
V4     Er1    10.0   1_554     S
V4     V3    10.0   1_455     S
V4     V8    10.0   .     S
Er5     V8    10.0   1_556     S
Er5     V8    10.0   .     S
Er5     Er1    10.0   1_565     S
Er5     Er13    10.0   .     S
Er6     V7    10.0   .     S
Er6     V7    10.0   1_556     S
Er6     Er2    10.0   1_565     S
Er6     Er14    10.0   .     S
V7     Er6    10.0   1_554     S
V7     V8    10.0   1_655     S
V8     Er5    10.0   1_554     S
V8     V7    10.0   1_455     S
Er9     V12    10.0   1_556     S
Er9     V12    10.0   .     S
Er9     Er13    10.0   .     S
Er10     V11    10.0   1_556     S
Er10     V11    10.0   .     S
Er10     Er14    10.0   .     S
V11     Er10    10.0   1_554     S
V11     V12    10.0   .     S
V11     V15    10.0   1_545     S
V12     Er9    10.0   1_554     S
V12     V16    10.0   1_545     S
Er13     V16    10.0   .     S
Er13     V16    10.0   1_556     S
Er14     V15    10.0   .     S
Er14     V15    10.0   1_556     S
V15     Er14    10.0   1_554     S
V15     V16    10.0   .     S
V15     V11    10.0   1_565     S
V16     Er13    10.0   1_554     S
V16     V12    10.0   1_565     S
