data_sita
_audit_creation_date              2020-02-02
_audit_creation_method            'Pymatgen'
_symmetry_space_group_name_H-M    'P1'
_symmetry_Int_Tables_number       1
loop_
_symmetry_equiv_pos_as_xyz
  x,y,z
_cell_length_a                    55.0225
_cell_length_b                    34.9763
_cell_length_c                    53.8036
_cell_angle_alpha                 90.0
_cell_angle_beta                 90.0
_cell_angle_gamma                 90.0
loop_
_atom_site_label
_atom_site_type_symbol
_atom_site_fract_x
_atom_site_fract_y
_atom_site_fract_z
Ti1     Ti     0.8246   0.357   0.2487
Ti2     Ti     0.8246   0.643   0.2487
Ti3     Ti     0.1754   0.357   0.2487
Ti4     Ti     0.1754   0.643   0.2487
Er5     Er     0.0909   0.143   0.161
Er6     Er     0.0909   0.857   0.161
Er7     Er     0.9091   0.143   0.161
Er8     Er     0.9091   0.857   0.161
V9     V     0.9091   0.0   0.0
V10     V     0.0909   0.0   0.0
Ce11     Ce     0.2148   0.0   0.8641
Ce12     Ce     0.7852   0.0   0.8641
Ti13     Ti     0.6754   0.857   0.7487
Ti14     Ti     0.6754   0.143   0.7487
Ti15     Ti     0.3246   0.857   0.7487
Ti16     Ti     0.3246   0.143   0.7487
Er17     Er     0.5909   0.357   0.661
Er18     Er     0.5909   0.643   0.661
Er19     Er     0.4091   0.643   0.661
Er20     Er     0.4091   0.357   0.661
Ce21     Ce     0.2852   0.5   0.3641
V22     V     0.4091   0.5   0.5
V23     V     0.5909   0.5   0.5
Ce24     Ce     0.7148   0.5   0.3641
loop_
_geom_bond_atom_site_label_1
_geom_bond_atom_site_label_2
_geom_bond_distance
_geom_bond_site_symmetry_2
_ccdc_geom_bond_type
Ti1     Ce24    10.0   .     S
Ti1     Ti2    10.0   .     S
Ti1     Er7    10.0   .     S
Ti2     Ce24    10.0   .     S
Ti2     Er8    10.0   .     S
Ti3     Ce21    10.0   .     S
Ti3     Ti4    10.0   .     S
Ti3     Er5    10.0   .     S
Ti4     Ce21    10.0   .     S
Ti4     Er6    10.0   .     S
Er5     Er6    10.0   1_545     S
Er5     V10    10.0   .     S
Er5     Er7    10.0   1_455     S
Er6     Er5    10.0   1_565     S
Er6     V10    10.0   1_565     S
Er6     Er8    10.0   1_455     S
Er7     Er8    10.0   1_545     S
Er7     V9    10.0   .     S
Er7     Er5    10.0   1_655     S
Er8     Er7    10.0   1_565     S
Er8     V9    10.0   1_565     S
Er8     Er6    10.0   1_655     S
V9     Er8    10.0   1_545     S
V9     V10    10.0   1_655     S
V9     Ce12    10.0   1_554     S
V10     Er6    10.0   1_545     S
V10     V9    10.0   1_455     S
V10     Ce11    10.0   1_554     S
Ce11     V10    10.0   1_556     S
Ce11     Ti15    10.0   1_545     S
Ce11     Ti16    10.0   .     S
Ce12     V9    10.0   1_556     S
Ce12     Ti13    10.0   1_545     S
Ce12     Ti14    10.0   .     S
Ti13     Ce12    10.0   1_565     S
Ti13     Ti14    10.0   1_565     S
Ti13     Er18    10.0   .     S
Ti14     Ti13    10.0   1_545     S
Ti14     Er17    10.0   .     S
Ti15     Ce11    10.0   1_565     S
Ti15     Ti16    10.0   1_565     S
Ti15     Er19    10.0   .     S
Ti16     Ti15    10.0   1_545     S
Ti16     Er20    10.0   .     S
Er17     Er18    10.0   .     S
Er17     V23    10.0   .     S
Er17     Er20    10.0   .     S
Er18     V23    10.0   .     S
Er18     Er19    10.0   .     S
Er19     Er20    10.0   .     S
Er19     V22    10.0   .     S
Er20     V22    10.0   .     S
Ce21     V22    10.0   .     S
V22     V23    10.0   .     S
V23     Ce24    10.0   .     S
