data_siz
_audit_creation_date              2020-02-02
_audit_creation_method            'Pymatgen'
_symmetry_space_group_name_H-M    'P1'
_symmetry_Int_Tables_number       1
loop_
_symmetry_equiv_pos_as_xyz
  x,y,z
_cell_length_a                    76.8531
_cell_length_b                    76.8531
_cell_length_c                    76.8531
_cell_angle_alpha                 90.0
_cell_angle_beta                 90.0
_cell_angle_gamma                 90.0
loop_
_atom_site_label
_atom_site_type_symbol
_atom_site_fract_x
_atom_site_fract_y
_atom_site_fract_z
V1     V     0.4849   0.1442   0.3644
Er2     Er     0.5419   0.2002   0.467
V3     V     0.3942   0.2349   0.3856
Er4     Er     0.4502   0.2919   0.283
V5     V     0.5151   0.3558   0.3644
Er6     Er     0.4581   0.2998   0.467
V7     V     0.6058   0.2651   0.3856
Er8     Er     0.5498   0.2081   0.283
V9     V     0.7651   0.1144   0.3942
Er10     Er     0.7081   0.217   0.4502
V11     V     0.8558   0.1356   0.4849
Er12     Er     0.7998   0.033   0.5419
V13     V     0.6442   0.1356   0.5151
Er14     Er     0.7002   0.033   0.4581
V15     V     0.7349   0.1144   0.6058
Er16     Er     0.7919   0.217   0.5498
V17     V     0.9849   0.3558   0.6356
Er18     Er     0.0419   0.2998   0.533
V19     V     0.8942   0.2651   0.6144
Er20     Er     0.9502   0.2081   0.717
V21     V     0.0151   0.1442   0.6356
Er22     Er     0.9581   0.2002   0.533
V23     V     0.1058   0.2349   0.6144
Er24     Er     0.0498   0.2919   0.717
V25     V     0.8856   0.1058   0.7651
Er26     Er     0.783   0.0498   0.7081
V27     V     0.8644   0.0151   0.8558
Er28     Er     0.967   0.9581   0.7998
V29     V     0.8644   0.9849   0.6442
Er30     Er     0.967   0.0419   0.7002
V31     V     0.8856   0.8942   0.7349
Er32     Er     0.783   0.9502   0.7919
V33     V     0.7651   0.8856   0.1058
Er34     Er     0.7081   0.783   0.0498
V35     V     0.8558   0.8644   0.0151
Er36     Er     0.7998   0.967   0.9581
V37     V     0.6442   0.8644   0.9849
Er38     Er     0.7002   0.967   0.0419
V39     V     0.7349   0.8856   0.8942
Er40     Er     0.7919   0.783   0.9502
V41     V     0.1058   0.7651   0.8856
Er42     Er     0.0498   0.7081   0.783
V43     V     0.0151   0.8558   0.8644
Er44     Er     0.9581   0.7998   0.967
V45     V     0.9849   0.6442   0.8644
Er46     Er     0.0419   0.7002   0.967
V47     V     0.8942   0.7349   0.8856
Er48     Er     0.9502   0.7919   0.783
V49     V     0.3644   0.5151   0.3558
Er50     Er     0.467   0.4581   0.2998
V51     V     0.3856   0.6058   0.2651
Er52     Er     0.283   0.5498   0.2081
V53     V     0.3644   0.4849   0.1442
Er54     Er     0.467   0.5419   0.2002
V55     V     0.3856   0.3942   0.2349
Er56     Er     0.283   0.4502   0.2919
V57     V     0.6058   0.7349   0.1144
Er58     Er     0.5498   0.7919   0.217
V59     V     0.5151   0.6442   0.1356
Er60     Er     0.4581   0.7002   0.033
V61     V     0.3942   0.7651   0.1144
Er62     Er     0.4502   0.7081   0.217
V63     V     0.4849   0.8558   0.1356
Er64     Er     0.5419   0.7998   0.033
V65     V     0.6356   0.9849   0.3558
Er66     Er     0.533   0.0419   0.2998
V67     V     0.6144   0.8942   0.2651
Er68     Er     0.717   0.9502   0.2081
V69     V     0.6356   0.0151   0.1442
Er70     Er     0.533   0.9581   0.2002
V71     V     0.6144   0.1058   0.2349
Er72     Er     0.717   0.0498   0.2919
V73     V     0.1442   0.3644   0.4849
Er74     Er     0.2002   0.467   0.5419
V75     V     0.2349   0.3856   0.3942
Er76     Er     0.2919   0.283   0.4502
V77     V     0.3558   0.3644   0.5151
Er78     Er     0.2998   0.467   0.4581
V79     V     0.2651   0.3856   0.6058
Er80     Er     0.2081   0.283   0.5498
V81     V     0.1144   0.3942   0.7651
Er82     Er     0.217   0.4502   0.7081
V83     V     0.1356   0.4849   0.8558
Er84     Er     0.033   0.5419   0.7998
V85     V     0.1144   0.6058   0.7349
Er86     Er     0.217   0.5498   0.7919
V87     V     0.1356   0.5151   0.6442
Er88     Er     0.033   0.4581   0.7002
V89     V     0.1442   0.6356   0.0151
Er90     Er     0.2002   0.533   0.9581
V91     V     0.2349   0.6144   0.1058
Er92     Er     0.2919   0.717   0.0498
V93     V     0.3558   0.6356   0.9849
Er94     Er     0.2998   0.533   0.0419
V95     V     0.2651   0.6144   0.8942
Er96     Er     0.2081   0.717   0.9502
loop_
_geom_bond_atom_site_label_1
_geom_bond_atom_site_label_2
_geom_bond_distance
_geom_bond_site_symmetry_2
_ccdc_geom_bond_type
V1     Er2    9.996   .     S
V1     V3    10.0   .     S
V1     Er66    10.003   .     S
Er2     Er6    10.002   .     S
Er2     V13    10.003   .     S
V3     Er4    9.996   .     S
V3     Er76    10.003   .     S
Er4     Er8    10.002   .     S
Er4     V55    10.003   .     S
V5     Er6    9.996   .     S
V5     V7    10.0   .     S
V5     Er50    10.003   .     S
Er6     V77    10.003   .     S
V7     Er8    9.996   .     S
V7     Er10    10.003   .     S
Er8     V71    10.003   .     S
V9     Er10    9.996   .     S
V9     V11    10.0   .     S
V9     Er72    10.003   .     S
Er10     Er16    10.002   .     S
V11     Er12    9.996   .     S
V11     Er22    10.003   .     S
Er12     Er14    10.002   .     S
Er12     V29    10.003   1_545     S
V13     Er14    9.996   .     S
V13     V15    10.0   .     S
Er14     V65    10.003   1_545     S
V15     Er16    9.996   .     S
V15     Er26    10.003   .     S
Er16     V19    10.003   .     S
V17     Er18    9.996   1_655     S
V17     V19    10.0   .     S
V17     Er88    10.003   1_655     S
Er18     V17    9.996   1_455     S
Er18     Er22    10.002   1_455     S
Er18     V73    10.003   .     S
V19     Er20    9.996   .     S
Er20     Er24    10.002   1_655     S
Er20     V25    10.003   .     S
V21     Er22    9.996   1_455     S
V21     V23    10.0   .     S
V21     Er30    10.003   1_455     S
Er22     V21    9.996   1_655     S
Er22     Er18    10.002   1_655     S
V23     Er24    9.996   .     S
V23     Er80    10.003   .     S
Er24     Er20    10.002   1_455     S
Er24     V81    10.003   .     S
V25     Er26    9.996   .     S
V25     V27    10.0   .     S
Er26     Er32    10.002   1_545     S
V27     Er28    9.996   1_545     S
V27     Er36    10.003   1_545     S
Er28     V27    9.996   1_565     S
Er28     Er30    10.002   1_565     S
Er28     V43    10.003   1_655     S
V29     Er30    9.996   1_565     S
V29     V31    10.0   .     S
V29     Er12    10.003   1_565     S
Er30     V21    10.003   1_655     S
Er30     V29    9.996   1_545     S
Er30     Er28    10.002   1_545     S
V31     Er32    9.996   .     S
V31     Er48    10.003   .     S
Er32     Er26    10.002   1_565     S
Er32     V39    10.003   .     S
V33     Er34    9.996   .     S
V33     V35    10.0   .     S
V33     Er68    10.003   .     S
Er34     Er40    10.002   1_554     S
Er34     V57    10.003   .     S
V35     Er36    9.996   1_554     S
V35     Er44    10.003   1_554     S
Er36     V27    10.003   1_565     S
Er36     V35    9.996   1_556     S
Er36     Er38    10.002   1_556     S
V37     Er38    9.996   1_556     S
V37     V39    10.0   .     S
V37     Er64    10.003   1_556     S
Er38     V37    9.996   1_554     S
Er38     Er36    10.002   1_554     S
Er38     V69    10.003   1_565     S
V39     Er40    9.996   .     S
Er40     Er34    10.002   1_556     S
Er40     V47    10.003   .     S
V41     Er42    9.996   .     S
V41     V43    10.0   .     S
V41     Er96    10.003   .     S
Er42     Er48    10.002   1_455     S
Er42     V85    10.003   .     S
V43     Er44    9.996   1_455     S
V43     Er28    10.003   1_455     S
Er44     V35    10.003   1_556     S
Er44     V43    9.996   1_655     S
Er44     Er46    10.002   1_655     S
V45     Er46    9.996   1_655     S
V45     V47    10.0   .     S
V45     Er84    10.003   1_655     S
Er46     V45    9.996   1_455     S
Er46     Er44    10.002   1_455     S
Er46     V89    10.003   1_556     S
V47     Er48    9.996   .     S
Er48     Er42    10.002   1_655     S
V49     Er50    9.996   .     S
V49     V51    10.0   .     S
V49     Er78    10.003   .     S
Er50     Er54    10.002   .     S
V51     Er52    9.996   .     S
V51     Er62    10.003   .     S
Er52     Er56    10.002   .     S
Er52     V91    10.003   .     S
V53     Er54    9.996   .     S
V53     V55    10.0   .     S
V53     Er94    10.003   .     S
Er54     V59    10.003   .     S
V55     Er56    9.996   .     S
Er56     V75    10.003   .     S
V57     Er58    9.996   .     S
V57     V59    10.0   .     S
Er58     Er62    10.002   .     S
Er58     V67    10.003   .     S
V59     Er60    9.996   .     S
Er60     Er64    10.002   .     S
Er60     V93    10.003   1_554     S
V61     Er62    9.996   .     S
V61     V63    10.0   .     S
V61     Er92    10.003   .     S
V63     Er64    9.996   .     S
V63     Er70    10.003   .     S
Er64     V37    10.003   1_554     S
V65     Er66    9.996   1_565     S
V65     V67    10.0   .     S
V65     Er14    10.003   1_565     S
Er66     V65    9.996   1_545     S
Er66     Er70    10.002   1_545     S
V67     Er68    9.996   .     S
Er68     Er72    10.002   1_565     S
V69     Er70    9.996   1_545     S
V69     V71    10.0   .     S
V69     Er38    10.003   1_545     S
Er70     V69    9.996   1_565     S
Er70     Er66    10.002   1_565     S
V71     Er72    9.996   .     S
Er72     Er68    10.002   1_545     S
V73     Er74    9.996   .     S
V73     V75    10.0   .     S
Er74     Er78    10.002   .     S
Er74     V87    10.003   .     S
V75     Er76    9.996   .     S
Er76     Er80    10.002   .     S
V77     Er78    9.996   .     S
V77     V79    10.0   .     S
V79     Er80    9.996   .     S
V79     Er82    10.003   .     S
V81     Er82    9.996   .     S
V81     V83    10.0   .     S
Er82     Er86    10.002   .     S
V83     Er84    9.996   .     S
V83     Er90    10.003   .     S
Er84     V45    10.003   1_455     S
Er84     Er88    10.002   .     S
V85     Er86    9.996   .     S
V85     V87    10.0   .     S
Er86     V95    10.003   .     S
V87     Er88    9.996   .     S
Er88     V17    10.003   1_455     S
V89     Er90    9.996   1_554     S
V89     V91    10.0   .     S
V89     Er46    10.003   1_554     S
Er90     V89    9.996   1_556     S
Er90     Er94    10.002   1_556     S
V91     Er92    9.996   .     S
Er92     Er96    10.002   1_554     S
V93     Er94    9.996   1_556     S
V93     V95    10.0   .     S
V93     Er60    10.003   1_556     S
Er94     V93    9.996   1_554     S
Er94     Er90    10.002   1_554     S
V95     Er96    9.996   .     S
Er96     Er92    10.002   1_556     S
