data_sjta
_audit_creation_date              2020-02-02
_audit_creation_method            'Pymatgen'
_symmetry_space_group_name_H-M    'P1'
_symmetry_Int_Tables_number       1
loop_
_symmetry_equiv_pos_as_xyz
  x,y,z
_cell_length_a                    69.0691
_cell_length_b                    69.0691
_cell_length_c                    83.6604
_cell_angle_alpha                 90.0
_cell_angle_beta                 90.0
_cell_angle_gamma                 120.0
loop_
_atom_site_label
_atom_site_type_symbol
_atom_site_fract_x
_atom_site_fract_y
_atom_site_fract_z
N1     N     0.7656   0.9022   0.6092
N2     N     0.7656   0.8635   0.7241
H3     H     0.6472   0.7541   0.6504
H4     H     0.6472   0.8932   0.683
B5     B     0.9665   0.8726   0.7663
Be6     Be     0.9033   0.9734   0.783
B7     B     0.8726   0.9665   0.9003
Be8     Be     0.9734   0.9033   0.8836
N9     N     0.9022   0.7656   0.0574
N10     N     0.8635   0.7656   0.9426
H11     H     0.7541   0.6472   0.0163
H12     H     0.8932   0.6472   0.9837
B13     B     0.9061   0.8726   0.2337
Be14     Be     0.0701   0.9734   0.217
B15     B     0.0939   0.9665   0.0997
Be16     Be     0.9299   0.9033   0.1164
B17     B     0.0335   0.9061   0.567
Be18     Be     0.0967   0.0701   0.5503
B19     B     0.1274   0.0939   0.433
Be20     Be     0.0266   0.9299   0.4497
N21     N     0.0978   0.8635   0.2759
N22     N     0.1365   0.9022   0.3908
H23     H     0.1068   0.7541   0.3496
H24     H     0.2459   0.8932   0.317
N25     N     0.2344   0.0978   0.6092
N26     N     0.2344   0.1365   0.7241
H27     H     0.3528   0.2459   0.6504
H28     H     0.3528   0.1068   0.683
B29     B     0.1274   0.0335   0.9003
Be30     Be     0.0266   0.0967   0.8836
B31     B     0.0335   0.1274   0.7663
Be32     Be     0.0967   0.0266   0.783
N33     N     0.0978   0.2344   0.0574
N34     N     0.1365   0.2344   0.9426
H35     H     0.2459   0.3528   0.0163
H36     H     0.1068   0.3528   0.9837
B37     B     0.0939   0.1274   0.2337
Be38     Be     0.9299   0.0266   0.217
B39     B     0.9061   0.0335   0.0997
Be40     Be     0.0701   0.0967   0.1164
B41     B     0.9665   0.0939   0.567
Be42     Be     0.9033   0.9299   0.5503
B43     B     0.8726   0.9061   0.433
Be44     Be     0.9734   0.0701   0.4497
N45     N     0.9022   0.1365   0.2759
N46     N     0.8635   0.0978   0.3908
H47     H     0.7541   0.1068   0.317
H48     H     0.8932   0.2459   0.3496
S49     S     0.2425   0.8483   0.6807
He50     He     0.0925   0.7262   0.7155
Li51     Li     0.1475   0.7242   0.6055
C52     C     0.1041   0.8376   0.634
S53     S     0.7575   0.1517   0.6807
He54     He     0.9075   0.2738   0.7155
Li55     Li     0.8525   0.2758   0.6055
C56     C     0.8959   0.1624   0.634
Er57     Er     0.9241   0.5466   0.5286
Ti58     Ti     0.0883   0.6037   0.5226
V59     V     0.9113   0.5263   0.41
Ce60     Ce     0.078   0.6128   0.4039
Er61     Er     0.0759   0.4534   0.5286
Ti62     Ti     0.9117   0.3963   0.5226
V63     V     0.0887   0.4737   0.41
Ce64     Ce     0.922   0.3872   0.4039
He65     He     0.0925   0.3662   0.6179
S66     S     0.2425   0.3941   0.6526
Li67     Li     0.1475   0.4234   0.7278
C68     C     0.1041   0.2664   0.6993
He69     He     0.9075   0.6338   0.6179
S70     S     0.7575   0.6059   0.6526
Li71     Li     0.8525   0.5766   0.7278
C72     C     0.8959   0.7336   0.6993
Er73     Er     0.0759   0.6225   0.8047
Ti74     Ti     0.9117   0.5154   0.8108
V75     V     0.0887   0.615   0.9234
Ce76     Ce     0.922   0.5348   0.9294
Er77     Er     0.9241   0.3775   0.8047
Ti78     Ti     0.0883   0.4846   0.8108
V79     V     0.9113   0.385   0.9234
Ce80     Ce     0.078   0.4652   0.9294
He81     He     0.6338   0.9075   0.0488
S82     S     0.6059   0.7575   0.014
Li83     Li     0.5766   0.8525   0.9389
C84     C     0.7336   0.8959   0.9673
S85     S     0.3941   0.2425   0.014
He86     He     0.3662   0.0925   0.0488
Li87     Li     0.4234   0.1475   0.9389
C88     C     0.2664   0.1041   0.9673
Er89     Er     0.6225   0.0759   0.8619
Ti90     Ti     0.5154   0.9117   0.8559
V91     V     0.615   0.0887   0.7433
Ce92     Ce     0.5348   0.922   0.7373
Er93     Er     0.3775   0.9241   0.8619
Ti94     Ti     0.4846   0.0883   0.8559
V95     V     0.385   0.9113   0.7433
Ce96     Ce     0.4652   0.078   0.7373
S97     S     0.8483   0.2425   0.986
He98     He     0.7262   0.0925   0.9512
Li99     Li     0.7242   0.1475   0.0611
C100     C     0.8376   0.1041   0.0327
He101     He     0.2738   0.9075   0.9512
S102     S     0.1517   0.7575   0.986
Li103     Li     0.2758   0.8525   0.0611
C104     C     0.1624   0.8959   0.0327
Er105     Er     0.5466   0.9241   0.1381
Ti106     Ti     0.6037   0.0883   0.1441
V107     V     0.5263   0.9113   0.2567
Ce108     Ce     0.6128   0.078   0.2627
Er109     Er     0.4534   0.0759   0.1381
Ti110     Ti     0.3963   0.9117   0.1441
V111     V     0.4737   0.0887   0.2567
Ce112     Ce     0.3872   0.922   0.2627
S113     S     0.6059   0.8483   0.3193
He114     He     0.6338   0.7262   0.2845
Li115     Li     0.5766   0.7242   0.3945
C116     C     0.7336   0.8376   0.366
He117     He     0.3662   0.2738   0.2845
S118     S     0.3941   0.1517   0.3193
Li119     Li     0.4234   0.2758   0.3945
C120     C     0.2664   0.1624   0.366
Er121     Er     0.6225   0.5466   0.4714
Ti122     Ti     0.5154   0.6037   0.4774
V123     V     0.615   0.5263   0.59
Ce124     Ce     0.5348   0.6128   0.5961
Er125     Er     0.3775   0.4534   0.4714
Ti126     Ti     0.4846   0.3963   0.4774
V127     V     0.385   0.4737   0.59
Ce128     Ce     0.4652   0.3872   0.5961
S129     S     0.8483   0.6059   0.3474
He130     He     0.7262   0.6338   0.3821
Li131     Li     0.7242   0.5766   0.2722
C132     C     0.8376   0.7336   0.3007
He133     He     0.2738   0.3662   0.3821
S134     S     0.1517   0.3941   0.3474
Li135     Li     0.2758   0.4234   0.2722
C136     C     0.1624   0.2664   0.3007
Er137     Er     0.5466   0.6225   0.1953
Ti138     Ti     0.6037   0.5154   0.1892
V139     V     0.5263   0.615   0.0766
Ce140     Ce     0.6128   0.5348   0.0706
Er141     Er     0.4534   0.3775   0.1953
Ti142     Ti     0.3963   0.4846   0.1892
V143     V     0.4737   0.385   0.0766
Ce144     Ce     0.3872   0.4652   0.0706
loop_
_geom_bond_atom_site_label_1
_geom_bond_atom_site_label_2
_geom_bond_distance
_geom_bond_site_symmetry_2
_ccdc_geom_bond_type
N1     H4    10.01   .     S
N1     H3    9.984   .     S
N1     Be42    10.01   .     S
N1     N2    9.972   .     S
N2     H4    9.984   .     S
N2     H3    10.01   .     S
N2     Be6    10.01   .     S
H3     H4    9.987   .     S
H3     Ce124    10.019   .     S
H4     Ce92    10.019   .     S
B5     Be6    9.992   .     S
B5     Be8    10.003   .     S
B5     Be32    10.011   1_665     S
B5     C72    10.031   .     S
Be6     B7    10.003   .     S
Be6     B31    10.011   1_665     S
B7     Be8    9.992   .     S
B7     Be30    10.011   1_665     S
B7     C84    10.031   .     S
Be8     B29    10.011   1_665     S
Be8     N10    10.01   .     S
N9     H12    10.01   1_554     S
N9     H11    9.984   .     S
N9     Be16    10.01   .     S
N9     N10    9.972   1_554     S
N10     H12    9.984   .     S
N10     H11    10.01   1_556     S
N10     N9    9.972   1_556     S
H11     H12    9.987   1_554     S
H11     N10    10.01   1_554     S
H11     Ce140    10.019   .     S
H12     N9    10.01   1_556     S
H12     H11    9.987   1_556     S
H12     Ce76    10.019   .     S
B13     Be14    9.992   1_655     S
B13     Be16    10.003   .     S
B13     Be38    10.011   1_565     S
B13     C132    10.031   .     S
Be14     B13    9.992   1_455     S
Be14     B15    10.003   .     S
Be14     B37    10.011   1_565     S
Be14     N21    10.01   .     S
B15     Be16    9.992   1_455     S
B15     Be40    10.011   1_565     S
B15     C104    10.031   .     S
Be16     B15    9.992   1_655     S
Be16     B39    10.011   1_565     S
B17     Be18    9.992   1_565     S
B17     Be20    10.003   .     S
B17     Be42    10.011   1_455     S
B17     C52    10.031   .     S
Be18     B17    9.992   1_545     S
Be18     B19    10.003   .     S
Be18     B41    10.011   1_455     S
Be18     N25    10.01   .     S
B19     Be20    9.992   1_545     S
B19     Be44    10.011   1_455     S
B19     C120    10.031   .     S
Be20     B19    9.992   1_565     S
Be20     B43    10.011   1_455     S
Be20     N22    10.01   .     S
N21     H24    9.984   .     S
N21     H23    10.01   .     S
N21     N22    9.972   .     S
N22     H24    10.01   .     S
N22     H23    9.984   .     S
H23     H24    9.987   .     S
H23     Ce60    10.019   .     S
H24     Ce112    10.019   .     S
N25     H27    9.984   .     S
N25     H28    10.01   .     S
N25     N26    9.972   .     S
N26     H27    10.01   .     S
N26     H28    9.984   .     S
N26     Be32    10.01   .     S
H27     H28    9.987   .     S
H27     Ce128    10.019   .     S
H28     Ce96    10.019   .     S
B29     Be8    10.011   1_445     S
B29     Be30    9.992   .     S
B29     Be32    10.003   .     S
B29     C88    10.031   .     S
Be30     B31    10.003   .     S
Be30     B7    10.011   1_445     S
Be30     N34    10.01   .     S
B31     Be6    10.011   1_445     S
B31     Be32    9.992   .     S
B31     C68    10.031   .     S
Be32     B5    10.011   1_445     S
N33     H35    9.984   .     S
N33     H36    10.01   1_554     S
N33     Be40    10.01   .     S
N33     N34    9.972   1_554     S
N34     H35    10.01   1_556     S
N34     H36    9.984   .     S
N34     N33    9.972   1_556     S
H35     N34    10.01   1_554     S
H35     H36    9.987   1_554     S
H35     Ce144    10.019   .     S
H36     H35    9.987   1_556     S
H36     N33    10.01   1_556     S
H36     Ce80    10.019   .     S
B37     Be14    10.011   1_545     S
B37     Be38    9.992   1_455     S
B37     Be40    10.003   .     S
B37     C136    10.031   .     S
Be38     B37    9.992   1_655     S
Be38     B39    10.003   .     S
Be38     B13    10.011   1_545     S
Be38     N45    10.01   .     S
B39     Be16    10.011   1_545     S
B39     Be40    9.992   1_655     S
B39     C100    10.031   .     S
Be40     B39    9.992   1_455     S
Be40     B15    10.011   1_545     S
B41     Be18    10.011   1_655     S
B41     Be42    9.992   1_545     S
B41     Be44    10.003   .     S
B41     C56    10.031   .     S
Be42     B41    9.992   1_565     S
Be42     B43    10.003   .     S
Be42     B17    10.011   1_655     S
B43     Be20    10.011   1_655     S
B43     Be44    9.992   1_565     S
B43     C116    10.031   .     S
Be44     B43    9.992   1_545     S
Be44     B19    10.011   1_655     S
Be44     N46    10.01   .     S
N45     H48    10.01   .     S
N45     H47    9.984   .     S
N45     N46    9.972   .     S
N46     H48    9.984   .     S
N46     H47    10.01   .     S
H47     H48    9.987   .     S
H47     Ce108    10.019   .     S
H48     Ce64    10.019   .     S
S49     C52    10.006   .     S
S49     Li51    9.995   .     S
S49     V95    10.019   .     S
S49     He50    9.978   .     S
He50     C52    10.008   .     S
He50     Er73    10.01   .     S
He50     Li51    9.982   .     S
Li51     C52    9.983   .     S
Li51     Ti58    10.002   .     S
S53     C56    10.006   .     S
S53     Li55    9.995   .     S
S53     V91    10.019   .     S
S53     He54    9.978   .     S
He54     C56    10.008   .     S
He54     Er77    10.01   .     S
He54     Li55    9.982   .     S
Li55     C56    9.983   .     S
Li55     Ti62    10.002   .     S
Er57     Ti58    9.985   1_655     S
Er57     Ti62    9.995   .     S
Er57     V59    10.002   .     S
Er57     He69    10.01   .     S
Ti58     Er57    9.985   1_455     S
Ti58     Ce60    9.993   .     S
Ti58     Er61    9.995   .     S
V59     Ce60    9.99   1_655     S
V59     Ce64    10.013   .     S
V59     S129    10.019   .     S
Ce60     V59    9.99   1_455     S
Ce60     V63    10.013   .     S
Er61     Ti62    9.985   1_455     S
Er61     V63    10.002   .     S
Er61     He65    10.01   .     S
Ti62     Er61    9.985   1_655     S
Ti62     Ce64    9.993   .     S
V63     Ce64    9.99   1_455     S
V63     S134    10.019   .     S
Ce64     V63    9.99   1_655     S
He65     C68    10.008   .     S
He65     S66    9.978   .     S
He65     Li67    9.982   .     S
S66     C68    10.006   .     S
S66     Li67    9.995   .     S
S66     V127    10.019   .     S
Li67     C68    9.983   .     S
Li67     Ti78    10.002   .     S
He69     C72    10.008   .     S
He69     S70    9.978   .     S
He69     Li71    9.982   .     S
S70     C72    10.006   .     S
S70     Li71    9.995   .     S
S70     V123    10.019   .     S
Li71     C72    9.983   .     S
Li71     Ti74    10.002   .     S
Er73     Ti74    9.985   1_455     S
Er73     Ti78    9.995   .     S
Er73     V75    10.002   .     S
Ti74     Er73    9.985   1_655     S
Ti74     Ce76    9.993   .     S
Ti74     Er77    9.995   .     S
V75     Ce76    9.99   1_455     S
V75     Ce80    10.013   .     S
V75     S102    10.019   .     S
Ce76     V75    9.99   1_655     S
Ce76     V79    10.013   .     S
Er77     Ti78    9.985   1_655     S
Er77     V79    10.002   .     S
Ti78     Er77    9.985   1_455     S
Ti78     Ce80    9.993   .     S
V79     Ce80    9.99   1_655     S
V79     S97    10.019   .     S
Ce80     V79    9.99   1_455     S
He81     C84    10.008   1_554     S
He81     Er105    10.01   .     S
He81     S82    9.978   .     S
He81     Li83    9.982   1_554     S
S82     C84    10.006   1_554     S
S82     Li83    9.995   1_554     S
S82     V139    10.019   .     S
Li83     S82    9.995   1_556     S
Li83     C84    9.983   .     S
Li83     Ti90    10.002   .     S
Li83     He81    9.982   1_556     S
C84     He81    10.008   1_556     S
C84     S82    10.006   1_556     S
S85     C88    10.006   1_554     S
S85     Li87    9.995   1_554     S
S85     V143    10.019   .     S
S85     He86    9.978   .     S
He86     C88    10.008   1_554     S
He86     Er109    10.01   .     S
He86     Li87    9.982   1_554     S
Li87     S85    9.995   1_556     S
Li87     C88    9.983   .     S
Li87     Ti94    10.002   .     S
Li87     He86    9.982   1_556     S
C88     He86    10.008   1_556     S
C88     S85    10.006   1_556     S
Er89     Ti90    9.985   1_545     S
Er89     Ti94    9.995   .     S
Er89     V91    10.002   .     S
Er89     He98    10.01   .     S
Ti90     Er89    9.985   1_565     S
Ti90     Ce92    9.993   .     S
Ti90     Er93    9.995   .     S
V91     Ce92    9.99   1_545     S
V91     Ce96    10.013   .     S
Ce92     V91    9.99   1_565     S
Ce92     V95    10.013   .     S
Er93     Ti94    9.985   1_565     S
Er93     V95    10.002   .     S
Er93     He101    10.01   .     S
Ti94     Er93    9.985   1_545     S
Ti94     Ce96    9.993   .     S
V95     Ce96    9.99   1_565     S
Ce96     V95    9.99   1_545     S
S97     C100    10.006   1_556     S
S97     Li99    9.995   1_556     S
S97     He98    9.978   .     S
He98     C100    10.008   1_556     S
He98     Li99    9.982   1_556     S
Li99     S97    9.995   1_554     S
Li99     C100    9.983   .     S
Li99     Ti106    10.002   .     S
Li99     He98    9.982   1_554     S
C100     He98    10.008   1_554     S
C100     S97    10.006   1_554     S
He101     C104    10.008   1_556     S
He101     S102    9.978   .     S
He101     Li103    9.982   1_556     S
S102     C104    10.006   1_556     S
S102     Li103    9.995   1_556     S
Li103     S102    9.995   1_554     S
Li103     C104    9.983   .     S
Li103     Ti110    10.002   .     S
Li103     He101    9.982   1_554     S
C104     He101    10.008   1_554     S
C104     S102    10.006   1_554     S
Er105     Ti106    9.985   1_565     S
Er105     Ti110    9.995   .     S
Er105     V107    10.002   .     S
Ti106     Er105    9.985   1_545     S
Ti106     Ce108    9.993   .     S
Ti106     Er109    9.995   .     S
V107     Ce108    9.99   1_565     S
V107     Ce112    10.013   .     S
V107     S113    10.019   .     S
Ce108     V107    9.99   1_545     S
Ce108     V111    10.013   .     S
Er109     Ti110    9.985   1_545     S
Er109     V111    10.002   .     S
Ti110     Er109    9.985   1_565     S
Ti110     Ce112    9.993   .     S
V111     Ce112    9.99   1_545     S
V111     S118    10.019   .     S
Ce112     V111    9.99   1_565     S
S113     C116    10.006   .     S
S113     Li115    9.995   .     S
S113     He114    9.978   .     S
He114     C116    10.008   .     S
He114     Er137    10.01   .     S
He114     Li115    9.982   .     S
Li115     C116    9.983   .     S
Li115     Ti122    10.002   .     S
He117     C120    10.008   .     S
He117     Er141    10.01   .     S
He117     S118    9.978   .     S
He117     Li119    9.982   .     S
S118     C120    10.006   .     S
S118     Li119    9.995   .     S
Li119     C120    9.983   .     S
Li119     Ti126    10.002   .     S
Er121     Ti122    9.985   .     S
Er121     Ti126    9.995   .     S
Er121     V123    10.002   .     S
Er121     He130    10.01   .     S
Ti122     Ce124    9.993   .     S
Ti122     Er125    9.995   .     S
V123     Ce124    9.99   .     S
V123     Ce128    10.013   .     S
Ce124     V127    10.013   .     S
Er125     Ti126    9.985   .     S
Er125     V127    10.002   .     S
Er125     He133    10.01   .     S
Ti126     Ce128    9.993   .     S
V127     Ce128    9.99   .     S
S129     C132    10.006   .     S
S129     Li131    9.995   .     S
S129     He130    9.978   .     S
He130     C132    10.008   .     S
He130     Li131    9.982   .     S
Li131     C132    9.983   .     S
Li131     Ti138    10.002   .     S
He133     C136    10.008   .     S
He133     S134    9.978   .     S
He133     Li135    9.982   .     S
S134     C136    10.006   .     S
S134     Li135    9.995   .     S
Li135     C136    9.983   .     S
Li135     Ti142    10.002   .     S
Er137     Ti138    9.985   .     S
Er137     Ti142    9.995   .     S
Er137     V139    10.002   .     S
Ti138     Ce140    9.993   .     S
Ti138     Er141    9.995   .     S
V139     Ce140    9.99   .     S
V139     Ce144    10.013   .     S
Ce140     V143    10.013   .     S
Er141     Ti142    9.985   .     S
Er141     V143    10.002   .     S
Ti142     Ce144    9.993   .     S
V143     Ce144    9.99   .     S
