data_skya
_audit_creation_date              2020-02-02
_audit_creation_method            'Pymatgen'
_symmetry_space_group_name_H-M    'P1'
_symmetry_Int_Tables_number       1
loop_
_symmetry_equiv_pos_as_xyz
  x,y,z
_cell_length_a                    74.7735
_cell_length_b                    74.7735
_cell_length_c                    74.7735
_cell_angle_alpha                 90.0
_cell_angle_beta                 90.0
_cell_angle_gamma                 90.0
loop_
_atom_site_label
_atom_site_type_symbol
_atom_site_fract_x
_atom_site_fract_y
_atom_site_fract_z
Ce1     Ce     0.6162   0.8548   0.0668
Ce2     Ce     0.6162   0.8548   0.9332
Ti3     Ti     0.6787   0.7573   0.0
Ce4     Ce     0.3838   0.8548   0.0668
Ce5     Ce     0.3838   0.8548   0.9332
Ti6     Ti     0.3213   0.7573   0.0
Ce7     Ce     0.3548   0.8838   0.5668
Ce8     Ce     0.3548   0.8838   0.4332
Ti9     Ti     0.2573   0.8213   0.5
Ce10     Ce     0.6452   0.8838   0.5668
Ce11     Ce     0.6452   0.8838   0.4332
Ti12     Ti     0.7427   0.8213   0.5
V13     V     0.4332   0.9331   0.6634
V14     V     0.4332   0.0669   0.6634
Er15     Er     0.3563   0.0   0.7498
V16     V     0.5668   0.9331   0.6634
V17     V     0.5668   0.0669   0.6634
Er18     Er     0.6437   0.0   0.7498
V19     V     0.4331   0.9332   0.8366
V20     V     0.5669   0.9332   0.8366
Er21     Er     0.5   0.8563   0.7502
V22     V     0.4331   0.0668   0.8366
V23     V     0.5669   0.0668   0.8366
Er24     Er     0.5   0.1437   0.7502
Ce25     Ce     0.6162   0.1452   0.0668
Ce26     Ce     0.6162   0.1452   0.9332
Ti27     Ti     0.6787   0.2427   0.0
Ce28     Ce     0.6452   0.1162   0.4332
Ce29     Ce     0.6452   0.1162   0.5668
Ti30     Ti     0.7427   0.1787   0.5
Ce31     Ce     0.3838   0.1452   0.0668
Ce32     Ce     0.3838   0.1452   0.9332
Ti33     Ti     0.3213   0.2427   0.0
Ce34     Ce     0.3548   0.1162   0.5668
Ce35     Ce     0.3548   0.1162   0.4332
Ti36     Ti     0.2573   0.1787   0.5
V37     V     0.4331   0.9332   0.1634
V38     V     0.5669   0.9332   0.1634
Er39     Er     0.5   0.8563   0.2498
V40     V     0.4331   0.0668   0.1634
V41     V     0.5669   0.0668   0.1634
Er42     Er     0.5   0.1437   0.2498
V43     V     0.5668   0.9331   0.3366
V44     V     0.5668   0.0669   0.3366
Er45     Er     0.6437   0.0   0.2502
V46     V     0.4332   0.9331   0.3366
V47     V     0.4332   0.0669   0.3366
Er48     Er     0.3563   0.0   0.2502
Ce49     Ce     0.8548   0.0668   0.6162
Ce50     Ce     0.8548   0.9332   0.6162
Ti51     Ti     0.7573   0.0   0.6787
Ce52     Ce     0.8548   0.0668   0.3838
Ce53     Ce     0.8548   0.9332   0.3838
Ti54     Ti     0.7573   0.0   0.3213
Ce55     Ce     0.1452   0.0668   0.6162
Ce56     Ce     0.1452   0.9332   0.6162
Ti57     Ti     0.2427   0.0   0.6787
Ce58     Ce     0.1162   0.4332   0.6452
Ce59     Ce     0.1162   0.5668   0.6452
Ti60     Ti     0.1787   0.5   0.7427
Ce61     Ce     0.1452   0.0668   0.3838
Ce62     Ce     0.1452   0.9332   0.3838
Ti63     Ti     0.2427   0.0   0.3213
Ce64     Ce     0.1162   0.5668   0.3548
Ce65     Ce     0.1162   0.4332   0.3548
Ti66     Ti     0.1787   0.5   0.2573
V67     V     0.9332   0.1634   0.4331
V68     V     0.9332   0.1634   0.5669
Er69     Er     0.8563   0.2498   0.5
V70     V     0.0668   0.1634   0.4331
V71     V     0.0668   0.1634   0.5669
Er72     Er     0.1437   0.2498   0.5
V73     V     0.9331   0.3366   0.5668
V74     V     0.0669   0.3366   0.5668
Er75     Er     0.0   0.2502   0.6437
V76     V     0.9331   0.3366   0.4332
V77     V     0.0669   0.3366   0.4332
Er78     Er     0.0   0.2502   0.3563
Ce79     Ce     0.8838   0.5668   0.3548
Ce80     Ce     0.8838   0.4332   0.3548
Ti81     Ti     0.8213   0.5   0.2573
Ce82     Ce     0.8838   0.5668   0.6452
Ce83     Ce     0.8838   0.4332   0.6452
Ti84     Ti     0.8213   0.5   0.7427
V85     V     0.9331   0.6634   0.4332
V86     V     0.0669   0.6634   0.4332
Er87     Er     0.0   0.7498   0.3563
V88     V     0.9331   0.6634   0.5668
V89     V     0.0669   0.6634   0.5668
Er90     Er     0.0   0.7498   0.6437
V91     V     0.9332   0.8366   0.4331
V92     V     0.9332   0.8366   0.5669
Er93     Er     0.8563   0.7502   0.5
V94     V     0.0668   0.8366   0.4331
V95     V     0.0668   0.8366   0.5669
Er96     Er     0.1437   0.7502   0.5
Ce97     Ce     0.0668   0.6162   0.8548
Ce98     Ce     0.9332   0.6162   0.8548
Ti99     Ti     0.0   0.6787   0.7573
Ce100     Ce     0.0668   0.3838   0.8548
Ce101     Ce     0.9332   0.3838   0.8548
Ti102     Ti     0.0   0.3213   0.7573
Ce103     Ce     0.5668   0.3548   0.8838
Ce104     Ce     0.4332   0.3548   0.8838
Ti105     Ti     0.5   0.2573   0.8213
Ce106     Ce     0.5668   0.6452   0.8838
Ce107     Ce     0.4332   0.6452   0.8838
Ti108     Ti     0.5   0.7427   0.8213
V109     V     0.6634   0.4332   0.9331
V110     V     0.6634   0.4332   0.0669
Er111     Er     0.7498   0.3563   0.0
V112     V     0.6634   0.5668   0.9331
V113     V     0.6634   0.5668   0.0669
Er114     Er     0.7498   0.6437   0.0
V115     V     0.8366   0.4331   0.9332
V116     V     0.8366   0.5669   0.9332
Er117     Er     0.7502   0.5   0.8563
V118     V     0.8366   0.4331   0.0668
V119     V     0.8366   0.5669   0.0668
Er120     Er     0.7502   0.5   0.1437
Ce121     Ce     0.0668   0.6162   0.1452
Ce122     Ce     0.9332   0.6162   0.1452
Ti123     Ti     0.0   0.6787   0.2427
Ce124     Ce     0.4332   0.6452   0.1162
Ce125     Ce     0.5668   0.6452   0.1162
Ti126     Ti     0.5   0.7427   0.1787
Ce127     Ce     0.0668   0.3838   0.1452
Ce128     Ce     0.9332   0.3838   0.1452
Ti129     Ti     0.0   0.3213   0.2427
Ce130     Ce     0.5668   0.3548   0.1162
Ce131     Ce     0.4332   0.3548   0.1162
Ti132     Ti     0.5   0.2573   0.1787
V133     V     0.1634   0.4331   0.9332
V134     V     0.1634   0.5669   0.9332
Er135     Er     0.2498   0.5   0.8563
V136     V     0.1634   0.4331   0.0668
V137     V     0.1634   0.5669   0.0668
Er138     Er     0.2498   0.5   0.1437
V139     V     0.3366   0.5668   0.9331
V140     V     0.3366   0.5668   0.0669
Er141     Er     0.2502   0.6437   0.0
V142     V     0.3366   0.4332   0.9331
V143     V     0.3366   0.4332   0.0669
Er144     Er     0.2502   0.3563   0.0
loop_
_geom_bond_atom_site_label_1
_geom_bond_atom_site_label_2
_geom_bond_distance
_geom_bond_site_symmetry_2
_ccdc_geom_bond_type
Ce1     Ce2    9.99   1_554     S
Ce1     Ti3    10.001   .     S
Ce1     V38    10.007   .     S
Ce2     Ce1    9.99   1_556     S
Ce2     Ti3    10.001   1_556     S
Ce2     V20    10.007   .     S
Ti3     Ce2    10.001   1_554     S
Ti3     Er114    10.015   .     S
Ce4     Ce5    9.99   1_554     S
Ce4     Ti6    10.001   .     S
Ce4     V37    10.007   .     S
Ce5     Ce4    9.99   1_556     S
Ce5     Ti6    10.001   1_556     S
Ce5     V19    10.007   .     S
Ti6     Ce5    10.001   1_554     S
Ti6     Er141    10.015   .     S
Ce7     Ce8    9.99   .     S
Ce7     Ti9    10.001   .     S
Ce7     V13    10.007   .     S
Ce8     Ti9    10.001   .     S
Ce8     V46    10.007   .     S
Ti9     Er96    10.015   .     S
Ce10     Ce11    9.99   .     S
Ce10     Ti12    10.001   .     S
Ce10     V16    10.007   .     S
Ce11     Ti12    10.001   .     S
Ce11     V43    10.007   .     S
Ti12     Er93    10.015   .     S
V13     Er15    9.988   1_565     S
V13     V14    10.002   1_565     S
V13     V16    9.991   .     S
V13     Er21    10.004   .     S
V14     Er15    9.988   .     S
V14     V13    10.002   1_545     S
V14     V17    9.991   .     S
V14     Er24    10.004   .     S
V14     Ce34    10.007   .     S
Er15     V13    9.988   1_545     S
Er15     V19    10.004   1_545     S
Er15     V22    10.004   .     S
Er15     Ti57    10.015   .     S
V16     Er18    9.988   1_565     S
V16     V17    10.002   1_565     S
V16     Er21    10.004   .     S
V17     Er18    9.988   .     S
V17     V16    10.002   1_545     S
V17     Er24    10.004   .     S
V17     Ce29    10.007   .     S
Er18     V23    10.004   .     S
Er18     V20    10.004   1_545     S
Er18     V16    9.988   1_545     S
Er18     Ti51    10.015   .     S
V19     Er15    10.004   1_565     S
V19     Er21    9.988   .     S
V19     V20    10.002   .     S
V19     V22    9.991   1_565     S
V20     Er18    10.004   1_565     S
V20     Er21    9.988   .     S
V20     V23    9.991   1_565     S
Er21     Ti108    10.015   .     S
V22     Er24    9.988   .     S
V22     V23    10.002   .     S
V22     V19    9.991   1_545     S
V22     Ce32    10.007   .     S
V23     Er24    9.988   .     S
V23     V20    9.991   1_545     S
V23     Ce26    10.007   .     S
Er24     Ti105    10.015   .     S
Ce25     Ti27    10.001   .     S
Ce25     Ce26    9.99   1_554     S
Ce25     V41    10.007   .     S
Ce26     Ti27    10.001   1_556     S
Ce26     Ce25    9.99   1_556     S
Ti27     Ce26    10.001   1_554     S
Ti27     Er111    10.015   .     S
Ce28     Ce29    9.99   .     S
Ce28     Ti30    10.001   .     S
Ce28     V44    10.007   .     S
Ce29     Ti30    10.001   .     S
Ti30     Er69    10.015   .     S
Ce31     Ce32    9.99   1_554     S
Ce31     Ti33    10.001   .     S
Ce31     V40    10.007   .     S
Ce32     Ce31    9.99   1_556     S
Ce32     Ti33    10.001   1_556     S
Ti33     Ce32    10.001   1_554     S
Ti33     Er144    10.015   .     S
Ce34     Ce35    9.99   .     S
Ce34     Ti36    10.001   .     S
Ce35     Ti36    10.001   .     S
Ce35     V47    10.007   .     S
Ti36     Er72    10.015   .     S
V37     V38    10.002   .     S
V37     Er39    9.988   .     S
V37     V40    9.991   1_565     S
V37     Er48    10.004   1_565     S
V38     Er39    9.988   .     S
V38     V41    9.991   1_565     S
V38     Er45    10.004   1_565     S
Er39     V43    10.004   .     S
Er39     V46    10.004   .     S
Er39     Ti126    10.015   .     S
V40     V41    10.002   .     S
V40     Er42    9.988   .     S
V40     V37    9.991   1_545     S
V40     Er48    10.004   .     S
V41     Er42    9.988   .     S
V41     V38    9.991   1_545     S
V41     Er45    10.004   .     S
Er42     V47    10.004   .     S
Er42     V44    10.004   .     S
Er42     Ti132    10.015   .     S
V43     Er45    9.988   1_565     S
V43     V44    10.002   1_565     S
V43     V46    9.991   .     S
V44     Er45    9.988   .     S
V44     V43    10.002   1_545     S
V44     V47    9.991   .     S
Er45     V38    10.004   1_545     S
Er45     V43    9.988   1_545     S
Er45     Ti54    10.015   .     S
V46     Er48    9.988   1_565     S
V46     V47    10.002   1_565     S
V47     Er48    9.988   .     S
V47     V46    10.002   1_545     S
Er48     V46    9.988   1_545     S
Er48     V37    10.004   1_545     S
Er48     Ti63    10.015   .     S
Ce49     Ce50    9.99   1_545     S
Ce49     Ti51    10.001   .     S
Ce49     V68    10.007   .     S
Ce50     Ce49    9.99   1_565     S
Ce50     Ti51    10.001   1_565     S
Ce50     V92    10.007   .     S
Ti51     Ce50    10.001   1_545     S
Ce52     Ce53    9.99   1_545     S
Ce52     Ti54    10.001   .     S
Ce52     V67    10.007   .     S
Ce53     Ce52    9.99   1_565     S
Ce53     Ti54    10.001   1_565     S
Ce53     V91    10.007   .     S
Ti54     Ce53    10.001   1_545     S
Ce55     Ce56    9.99   1_545     S
Ce55     Ti57    10.001   .     S
Ce55     V71    10.007   .     S
Ce56     Ce55    9.99   1_565     S
Ce56     Ti57    10.001   1_565     S
Ce56     V95    10.007   .     S
Ti57     Ce56    10.001   1_545     S
Ce58     Ce59    9.99   .     S
Ce58     Ti60    10.001   .     S
Ce58     V74    10.007   .     S
Ce59     Ti60    10.001   .     S
Ce59     V89    10.007   .     S
Ti60     Er135    10.015   .     S
Ce61     Ce62    9.99   1_545     S
Ce61     Ti63    10.001   .     S
Ce61     V70    10.007   .     S
Ce62     Ce61    9.99   1_565     S
Ce62     Ti63    10.001   1_565     S
Ce62     V94    10.007   .     S
Ti63     Ce62    10.001   1_545     S
Ce64     Ce65    9.99   .     S
Ce64     Ti66    10.001   .     S
Ce64     V86    10.007   .     S
Ce65     Ti66    10.001   .     S
Ce65     V77    10.007   .     S
Ti66     Er138    10.015   .     S
V67     V68    10.002   .     S
V67     Er69    9.988   .     S
V67     V70    9.991   1_655     S
V67     Er78    10.004   1_655     S
V68     Er69    9.988   .     S
V68     V71    9.991   1_655     S
V68     Er75    10.004   1_655     S
Er69     V73    10.004   .     S
Er69     V76    10.004   .     S
V70     V71    10.002   .     S
V70     Er72    9.988   .     S
V70     V67    9.991   1_455     S
V70     Er78    10.004   .     S
V71     Er72    9.988   .     S
V71     V68    9.991   1_455     S
V71     Er75    10.004   .     S
Er72     V77    10.004   .     S
Er72     V74    10.004   .     S
V73     Er75    9.988   1_655     S
V73     V74    10.002   1_655     S
V73     V76    9.991   .     S
V73     Ce83    10.007   .     S
V74     Er75    9.988   .     S
V74     V73    10.002   1_455     S
V74     V77    9.991   .     S
Er75     V68    10.004   1_455     S
Er75     V73    9.988   1_455     S
Er75     Ti102    10.015   .     S
V76     Er78    9.988   1_655     S
V76     V77    10.002   1_655     S
V76     Ce80    10.007   .     S
V77     Er78    9.988   .     S
V77     V76    10.002   1_455     S
Er78     V76    9.988   1_455     S
Er78     V67    10.004   1_455     S
Er78     Ti129    10.015   .     S
Ce79     Ce80    9.99   .     S
Ce79     Ti81    10.001   .     S
Ce79     V85    10.007   .     S
Ce80     Ti81    10.001   .     S
Ti81     Er120    10.015   .     S
Ce82     Ce83    9.99   .     S
Ce82     Ti84    10.001   .     S
Ce82     V88    10.007   .     S
Ce83     Ti84    10.001   .     S
Ti84     Er117    10.015   .     S
V85     Er87    9.988   1_655     S
V85     V86    10.002   1_655     S
V85     V88    9.991   .     S
V85     Er93    10.004   .     S
V86     Er87    9.988   .     S
V86     V85    10.002   1_455     S
V86     V89    9.991   .     S
V86     Er96    10.004   .     S
Er87     V85    9.988   1_455     S
Er87     V91    10.004   1_455     S
Er87     V94    10.004   .     S
Er87     Ti123    10.015   .     S
V88     Er90    9.988   1_655     S
V88     V89    10.002   1_655     S
V88     Er93    10.004   .     S
V89     Er90    9.988   .     S
V89     V88    10.002   1_455     S
V89     Er96    10.004   .     S
Er90     V95    10.004   .     S
Er90     V92    10.004   1_455     S
Er90     V88    9.988   1_455     S
Er90     Ti99    10.015   .     S
V91     Er87    10.004   1_655     S
V91     Er93    9.988   .     S
V91     V92    10.002   .     S
V91     V94    9.991   1_655     S
V92     Er90    10.004   1_655     S
V92     Er93    9.988   .     S
V92     V95    9.991   1_655     S
V94     Er96    9.988   .     S
V94     V95    10.002   .     S
V94     V91    9.991   1_455     S
V95     Er96    9.988   .     S
V95     V92    9.991   1_455     S
Ce97     Ce98    9.99   1_455     S
Ce97     Ti99    10.001   .     S
Ce97     V134    10.007   .     S
Ce98     Ce97    9.99   1_655     S
Ce98     Ti99    10.001   1_655     S
Ce98     V116    10.007   .     S
Ti99     Ce98    10.001   1_455     S
Ce100     Ce101    9.99   1_455     S
Ce100     Ti102    10.001   .     S
Ce100     V133    10.007   .     S
Ce101     Ce100    9.99   1_655     S
Ce101     Ti102    10.001   1_655     S
Ce101     V115    10.007   .     S
Ti102     Ce101    10.001   1_455     S
Ce103     Ce104    9.99   .     S
Ce103     Ti105    10.001   .     S
Ce103     V109    10.007   .     S
Ce104     Ti105    10.001   .     S
Ce104     V142    10.007   .     S
Ce106     Ce107    9.99   .     S
Ce106     Ti108    10.001   .     S
Ce106     V112    10.007   .     S
Ce107     Ti108    10.001   .     S
Ce107     V139    10.007   .     S
V109     Er111    9.988   1_556     S
V109     V110    10.002   1_556     S
V109     V112    9.991   .     S
V109     Er117    10.004   .     S
V110     Er111    9.988   .     S
V110     V109    10.002   1_554     S
V110     V113    9.991   .     S
V110     Er120    10.004   .     S
V110     Ce130    10.007   .     S
Er111     V109    9.988   1_554     S
Er111     V115    10.004   1_554     S
Er111     V118    10.004   .     S
V112     Er114    9.988   1_556     S
V112     V113    10.002   1_556     S
V112     Er117    10.004   .     S
V113     Er114    9.988   .     S
V113     V112    10.002   1_554     S
V113     Er120    10.004   .     S
V113     Ce125    10.007   .     S
Er114     V119    10.004   .     S
Er114     V116    10.004   1_554     S
Er114     V112    9.988   1_554     S
V115     Er111    10.004   1_556     S
V115     Er117    9.988   .     S
V115     V116    10.002   .     S
V115     V118    9.991   1_556     S
V116     Er114    10.004   1_556     S
V116     Er117    9.988   .     S
V116     V119    9.991   1_556     S
V118     Er120    9.988   .     S
V118     V119    10.002   .     S
V118     V115    9.991   1_554     S
V118     Ce128    10.007   .     S
V119     Er120    9.988   .     S
V119     V116    9.991   1_554     S
V119     Ce122    10.007   .     S
Ce121     Ti123    10.001   .     S
Ce121     Ce122    9.99   1_455     S
Ce121     V137    10.007   .     S
Ce122     Ti123    10.001   1_655     S
Ce122     Ce121    9.99   1_655     S
Ti123     Ce122    10.001   1_455     S
Ce124     Ce125    9.99   .     S
Ce124     Ti126    10.001   .     S
Ce124     V140    10.007   .     S
Ce125     Ti126    10.001   .     S
Ce127     Ce128    9.99   1_455     S
Ce127     Ti129    10.001   .     S
Ce127     V136    10.007   .     S
Ce128     Ce127    9.99   1_655     S
Ce128     Ti129    10.001   1_655     S
Ti129     Ce128    10.001   1_455     S
Ce130     Ce131    9.99   .     S
Ce130     Ti132    10.001   .     S
Ce131     Ti132    10.001   .     S
Ce131     V143    10.007   .     S
V133     V134    10.002   .     S
V133     Er135    9.988   .     S
V133     V136    9.991   1_556     S
V133     Er144    10.004   1_556     S
V134     Er135    9.988   .     S
V134     V137    9.991   1_556     S
V134     Er141    10.004   1_556     S
Er135     V139    10.004   .     S
Er135     V142    10.004   .     S
V136     V137    10.002   .     S
V136     Er138    9.988   .     S
V136     V133    9.991   1_554     S
V136     Er144    10.004   .     S
V137     Er138    9.988   .     S
V137     V134    9.991   1_554     S
V137     Er141    10.004   .     S
Er138     V143    10.004   .     S
Er138     V140    10.004   .     S
V139     Er141    9.988   1_556     S
V139     V140    10.002   1_556     S
V139     V142    9.991   .     S
V140     Er141    9.988   .     S
V140     V139    10.002   1_554     S
V140     V143    9.991   .     S
Er141     V134    10.004   1_554     S
Er141     V139    9.988   1_554     S
V142     Er144    9.988   1_556     S
V142     V143    10.002   1_556     S
V143     Er144    9.988   .     S
V143     V142    10.002   1_554     S
Er144     V142    9.988   1_554     S
Er144     V133    10.004   1_554     S
