data_smv
_audit_creation_date              2020-02-02
_audit_creation_method            'Pymatgen'
_symmetry_space_group_name_H-M    'P1'
_symmetry_Int_Tables_number       1
loop_
_symmetry_equiv_pos_as_xyz
  x,y,z
_cell_length_a                    45.0002
_cell_length_b                    45.0002
_cell_length_c                    19.9998
_cell_angle_alpha                 90.0
_cell_angle_beta                 90.0
_cell_angle_gamma                 120.0
loop_
_atom_site_label
_atom_site_type_symbol
_atom_site_fract_x
_atom_site_fract_y
_atom_site_fract_z
V1     V     0.8889   0.3333   0.375
V2     V     0.8889   0.3333   0.875
V3     V     0.1111   0.4444   0.125
V4     V     0.1111   0.4444   0.625
V5     V     0.8889   0.5556   0.375
V6     V     0.8889   0.5556   0.875
V7     V     0.1111   0.6667   0.125
V8     V     0.1111   0.6667   0.625
V9     V     0.5556   0.8889   0.125
V10     V     0.5556   0.8889   0.625
V11     V     0.6667   0.1111   0.375
V12     V     0.6667   0.1111   0.875
V13     V     0.3333   0.8889   0.125
V14     V     0.3333   0.8889   0.625
V15     V     0.4444   0.1111   0.375
V16     V     0.4444   0.1111   0.875
V17     V     0.4444   0.3333   0.375
V18     V     0.4444   0.3333   0.875
V19     V     0.3333   0.4444   0.125
V20     V     0.3333   0.4444   0.625
V21     V     0.6667   0.5556   0.375
V22     V     0.6667   0.5556   0.875
V23     V     0.5556   0.6667   0.125
V24     V     0.5556   0.6667   0.625
loop_
_geom_bond_atom_site_label_1
_geom_bond_atom_site_label_2
_geom_bond_distance
_geom_bond_site_symmetry_2
_ccdc_geom_bond_type
V1     V5    10.0   .     S
V1     V2    10.0   1_554     S
V1     V2    10.0   .     S
V1     V4    10.0   1_655     S
V1     V3    10.0   1_655     S
V1     V11    10.0   .     S
V2     V6    10.0   .     S
V2     V1    10.0   1_556     S
V2     V3    10.0   1_656     S
V2     V4    10.0   1_655     S
V2     V12    10.0   .     S
V3     V4    10.0   .     S
V3     V4    10.0   1_554     S
V3     V2    10.0   1_454     S
V3     V1    10.0   1_455     S
V3     V7    10.0   .     S
V3     V19    10.0   .     S
V4     V3    10.0   1_556     S
V4     V1    10.0   1_455     S
V4     V2    10.0   1_455     S
V4     V8    10.0   .     S
V4     V20    10.0   .     S
V5     V6    10.0   1_554     S
V5     V6    10.0   .     S
V5     V7    10.0   1_655     S
V5     V8    10.0   1_655     S
V5     V21    10.0   .     S
V6     V5    10.0   1_556     S
V6     V8    10.0   1_655     S
V6     V7    10.0   1_656     S
V6     V22    10.0   .     S
V7     V8    10.0   .     S
V7     V8    10.0   1_554     S
V7     V5    10.0   1_455     S
V7     V6    10.0   1_454     S
V7     V13    10.0   .     S
V8     V7    10.0   1_556     S
V8     V6    10.0   1_455     S
V8     V5    10.0   1_455     S
V8     V14    10.0   .     S
V9     V13    10.0   .     S
V9     V10    10.0   .     S
V9     V10    10.0   1_554     S
V9     V11    10.0   1_565     S
V9     V12    10.0   1_564     S
V9     V23    10.0   .     S
V10     V14    10.0   .     S
V10     V9    10.0   1_556     S
V10     V12    10.0   1_565     S
V10     V11    10.0   1_565     S
V10     V24    10.0   .     S
V11     V12    10.0   1_554     S
V11     V12    10.0   .     S
V11     V9    10.0   1_545     S
V11     V10    10.0   1_545     S
V11     V15    10.0   .     S
V12     V11    10.0   1_556     S
V12     V10    10.0   1_545     S
V12     V9    10.0   1_546     S
V12     V16    10.0   .     S
V13     V14    10.0   .     S
V13     V14    10.0   1_554     S
V13     V16    10.0   1_564     S
V13     V15    10.0   1_565     S
V14     V13    10.0   1_556     S
V14     V15    10.0   1_565     S
V14     V16    10.0   1_565     S
V15     V16    10.0   1_554     S
V15     V16    10.0   .     S
V15     V14    10.0   1_545     S
V15     V13    10.0   1_545     S
V15     V17    10.0   .     S
V16     V15    10.0   1_556     S
V16     V13    10.0   1_546     S
V16     V14    10.0   1_545     S
V16     V18    10.0   .     S
V17     V21    10.0   .     S
V17     V18    10.0   1_554     S
V17     V18    10.0   .     S
V17     V19    10.0   .     S
V17     V20    10.0   .     S
V18     V22    10.0   .     S
V18     V17    10.0   1_556     S
V18     V20    10.0   .     S
V18     V19    10.0   1_556     S
V19     V20    10.0   .     S
V19     V20    10.0   1_554     S
V19     V18    10.0   1_554     S
V19     V23    10.0   .     S
V20     V19    10.0   1_556     S
V20     V24    10.0   .     S
V21     V22    10.0   1_554     S
V21     V22    10.0   .     S
V21     V24    10.0   .     S
V21     V23    10.0   .     S
V22     V21    10.0   1_556     S
V22     V23    10.0   1_556     S
V22     V24    10.0   .     S
V23     V22    10.0   1_554     S
V23     V24    10.0   .     S
V23     V24    10.0   1_554     S
V24     V23    10.0   1_556     S
