data_sng
_audit_creation_date              2020-02-02
_audit_creation_method            'Pymatgen'
_symmetry_space_group_name_H-M    'P1'
_symmetry_Int_Tables_number       1
loop_
_symmetry_equiv_pos_as_xyz
  x,y,z
_cell_length_a                    38.9007
_cell_length_b                    38.9007
_cell_length_c                    38.9007
_cell_angle_alpha                 90.0
_cell_angle_beta                 90.0
_cell_angle_gamma                 90.0
loop_
_atom_site_label
_atom_site_type_symbol
_atom_site_fract_x
_atom_site_fract_y
_atom_site_fract_z
V1     V     0.5   0.3715   0.292
V2     V     0.3715   0.292   0.5
V3     V     0.292   0.5   0.3715
V4     V     0.5   0.3715   0.708
V5     V     0.3715   0.708   0.5
V6     V     0.708   0.5   0.3715
V7     V     0.5   0.6285   0.292
V8     V     0.6285   0.708   0.5
V9     V     0.292   0.5   0.6285
V10     V     0.5   0.6285   0.708
V11     V     0.6285   0.292   0.5
V12     V     0.708   0.5   0.6285
V13     V     0.292   0.0   0.1285
V14     V     0.292   0.0   0.8715
V15     V     0.3715   0.208   0.0
V16     V     0.3715   0.792   0.0
V17     V     0.5   0.1285   0.208
V18     V     0.5   0.8715   0.208
V19     V     0.5   0.1285   0.792
V20     V     0.6285   0.208   0.0
V21     V     0.5   0.8715   0.792
V22     V     0.708   0.0   0.8715
V23     V     0.6285   0.792   0.0
V24     V     0.708   0.0   0.1285
V25     V     0.8715   0.292   0.0
V26     V     0.1285   0.292   0.0
V27     V     0.0   0.3715   0.208
V28     V     0.0   0.3715   0.792
V29     V     0.208   0.5   0.1285
V30     V     0.208   0.5   0.8715
V31     V     0.792   0.5   0.8715
V32     V     0.792   0.5   0.1285
V33     V     0.0   0.6285   0.208
V34     V     0.8715   0.708   0.0
V35     V     0.0   0.6285   0.792
V36     V     0.1285   0.708   0.0
V37     V     0.0   0.8715   0.292
V38     V     0.0   0.1285   0.292
V39     V     0.208   0.0   0.3715
V40     V     0.792   0.0   0.3715
V41     V     0.8715   0.208   0.5
V42     V     0.1285   0.208   0.5
V43     V     0.8715   0.792   0.5
V44     V     0.1285   0.792   0.5
V45     V     0.208   0.0   0.6285
V46     V     0.0   0.1285   0.708
V47     V     0.792   0.0   0.6285
V48     V     0.0   0.8715   0.708
loop_
_geom_bond_atom_site_label_1
_geom_bond_atom_site_label_2
_geom_bond_distance
_geom_bond_site_symmetry_2
_ccdc_geom_bond_type
V1     V6    10.0   .     S
V1     V3    10.0   .     S
V1     V2    10.0   .     S
V1     V11    10.0   .     S
V1     V7    10.0   .     S
V1     V17    10.0   .     S
V2     V4    10.0   .     S
V2     V3    10.0   .     S
V2     V9    10.0   .     S
V2     V11    10.0   .     S
V2     V42    10.0   .     S
V3     V5    10.0   .     S
V3     V7    10.0   .     S
V3     V9    10.0   .     S
V3     V29    10.0   .     S
V4     V12    10.0   .     S
V4     V9    10.0   .     S
V4     V11    10.0   .     S
V4     V10    10.0   .     S
V4     V19    10.0   .     S
V5     V10    10.0   .     S
V5     V7    10.0   .     S
V5     V9    10.0   .     S
V5     V8    10.0   .     S
V5     V44    10.0   .     S
V6     V8    10.0   .     S
V6     V11    10.0   .     S
V6     V7    10.0   .     S
V6     V12    10.0   .     S
V6     V32    10.0   .     S
V7     V8    10.0   .     S
V7     V18    10.0   .     S
V8     V10    10.0   .     S
V8     V12    10.0   .     S
V8     V43    10.0   .     S
V9     V10    10.0   .     S
V9     V30    10.0   .     S
V10     V12    10.0   .     S
V10     V21    10.0   .     S
V11     V12    10.0   .     S
V11     V41    10.0   .     S
V12     V31    10.0   .     S
V13     V15    10.0   .     S
V13     V16    10.0   1_545     S
V13     V17    10.0   .     S
V13     V18    10.0   1_545     S
V13     V14    10.0   1_554     S
V13     V39    10.0   .     S
V14     V16    10.0   1_546     S
V14     V15    10.0   1_556     S
V14     V19    10.0   .     S
V14     V21    10.0   1_545     S
V14     V13    10.0   1_556     S
V14     V45    10.0   .     S
V15     V14    10.0   1_554     S
V15     V19    10.0   1_554     S
V15     V17    10.0   .     S
V15     V20    10.0   .     S
V15     V26    10.0   .     S
V16     V13    10.0   1_565     S
V16     V14    10.0   1_564     S
V16     V21    10.0   1_554     S
V16     V18    10.0   .     S
V16     V23    10.0   .     S
V16     V36    10.0   .     S
V17     V24    10.0   .     S
V17     V20    10.0   .     S
V17     V18    10.0   1_545     S
V18     V24    10.0   1_565     S
V18     V13    10.0   1_565     S
V18     V23    10.0   .     S
V18     V17    10.0   1_565     S
V19     V15    10.0   1_556     S
V19     V22    10.0   .     S
V19     V20    10.0   1_556     S
V19     V21    10.0   1_545     S
V20     V19    10.0   1_554     S
V20     V22    10.0   1_554     S
V20     V24    10.0   .     S
V20     V25    10.0   .     S
V21     V16    10.0   1_556     S
V21     V22    10.0   1_565     S
V21     V14    10.0   1_565     S
V21     V23    10.0   1_556     S
V21     V19    10.0   1_565     S
V22     V21    10.0   1_545     S
V22     V23    10.0   1_546     S
V22     V20    10.0   1_556     S
V22     V24    10.0   1_556     S
V22     V47    10.0   .     S
V23     V22    10.0   1_564     S
V23     V21    10.0   1_554     S
V23     V24    10.0   1_565     S
V23     V34    10.0   .     S
V24     V18    10.0   1_545     S
V24     V23    10.0   1_545     S
V24     V22    10.0   1_554     S
V24     V40    10.0   .     S
V25     V28    10.0   1_654     S
V25     V27    10.0   1_655     S
V25     V31    10.0   1_554     S
V25     V32    10.0   .     S
V25     V26    10.0   1_655     S
V26     V27    10.0   .     S
V26     V28    10.0   1_554     S
V26     V29    10.0   .     S
V26     V30    10.0   1_554     S
V26     V25    10.0   1_455     S
V27     V25    10.0   1_455     S
V27     V32    10.0   1_455     S
V27     V29    10.0   .     S
V27     V33    10.0   .     S
V27     V38    10.0   .     S
V28     V25    10.0   1_456     S
V28     V26    10.0   1_556     S
V28     V31    10.0   1_455     S
V28     V30    10.0   .     S
V28     V35    10.0   .     S
V28     V46    10.0   .     S
V29     V36    10.0   .     S
V29     V33    10.0   .     S
V29     V30    10.0   1_554     S
V30     V36    10.0   1_556     S
V30     V26    10.0   1_556     S
V30     V35    10.0   .     S
V30     V29    10.0   1_556     S
V31     V28    10.0   1_655     S
V31     V34    10.0   1_556     S
V31     V25    10.0   1_556     S
V31     V35    10.0   1_655     S
V31     V32    10.0   1_556     S
V32     V27    10.0   1_655     S
V32     V34    10.0   .     S
V32     V33    10.0   1_655     S
V32     V31    10.0   1_554     S
V33     V32    10.0   1_455     S
V33     V34    10.0   1_455     S
V33     V36    10.0   .     S
V33     V37    10.0   .     S
V34     V31    10.0   1_554     S
V34     V33    10.0   1_655     S
V34     V35    10.0   1_654     S
V34     V36    10.0   1_655     S
V35     V34    10.0   1_456     S
V35     V31    10.0   1_455     S
V35     V36    10.0   1_556     S
V35     V48    10.0   .     S
V36     V30    10.0   1_554     S
V36     V35    10.0   1_554     S
V36     V34    10.0   1_455     S
V37     V40    10.0   1_465     S
V37     V39    10.0   1_565     S
V37     V43    10.0   1_455     S
V37     V44    10.0   .     S
V37     V38    10.0   1_565     S
V38     V39    10.0   .     S
V38     V40    10.0   1_455     S
V38     V41    10.0   1_455     S
V38     V42    10.0   .     S
V38     V37    10.0   1_545     S
V39     V37    10.0   1_545     S
V39     V44    10.0   1_545     S
V39     V42    10.0   .     S
V39     V45    10.0   .     S
V40     V37    10.0   1_645     S
V40     V38    10.0   1_655     S
V40     V43    10.0   1_545     S
V40     V41    10.0   .     S
V40     V47    10.0   .     S
V41     V46    10.0   1_655     S
V41     V38    10.0   1_655     S
V41     V47    10.0   .     S
V41     V42    10.0   1_655     S
V42     V46    10.0   .     S
V42     V45    10.0   .     S
V42     V41    10.0   1_455     S
V43     V40    10.0   1_565     S
V43     V48    10.0   1_655     S
V43     V37    10.0   1_655     S
V43     V47    10.0   1_565     S
V43     V44    10.0   1_655     S
V44     V39    10.0   1_565     S
V44     V48    10.0   .     S
V44     V45    10.0   1_565     S
V44     V43    10.0   1_455     S
V45     V44    10.0   1_545     S
V45     V46    10.0   .     S
V45     V48    10.0   1_545     S
V46     V41    10.0   1_455     S
V46     V47    10.0   1_455     S
V46     V48    10.0   1_545     S
V47     V46    10.0   1_655     S
V47     V43    10.0   1_545     S
V47     V48    10.0   1_645     S
V48     V43    10.0   1_455     S
V48     V45    10.0   1_565     S
V48     V47    10.0   1_465     S
V48     V46    10.0   1_565     S
