data_snl
_audit_creation_date              2020-02-02
_audit_creation_method            'Pymatgen'
_symmetry_space_group_name_H-M    'P1'
_symmetry_Int_Tables_number       1
loop_
_symmetry_equiv_pos_as_xyz
  x,y,z
_cell_length_a                    39.3648
_cell_length_b                    39.3648
_cell_length_c                    20.0
_cell_angle_alpha                 90.0
_cell_angle_beta                 90.0
_cell_angle_gamma                 90.0
loop_
_atom_site_label
_atom_site_type_symbol
_atom_site_fract_x
_atom_site_fract_y
_atom_site_fract_z
V1     V     0.627   0.877   0.1875
V2     V     0.627   0.877   0.6875
V3     V     0.873   0.877   0.0625
V4     V     0.873   0.877   0.5625
V5     V     0.873   0.123   0.4375
V6     V     0.873   0.123   0.9375
V7     V     0.627   0.123   0.3125
V8     V     0.627   0.123   0.8125
V9     V     0.127   0.877   0.0625
V10     V     0.127   0.877   0.5625
V11     V     0.373   0.877   0.1875
V12     V     0.373   0.877   0.6875
V13     V     0.373   0.123   0.3125
V14     V     0.373   0.123   0.8125
V15     V     0.127   0.123   0.4375
V16     V     0.127   0.123   0.9375
V17     V     0.873   0.377   0.4375
V18     V     0.873   0.377   0.9375
V19     V     0.873   0.623   0.0625
V20     V     0.873   0.623   0.5625
V21     V     0.627   0.623   0.1875
V22     V     0.627   0.623   0.6875
V23     V     0.627   0.377   0.3125
V24     V     0.627   0.377   0.8125
V25     V     0.127   0.623   0.0625
V26     V     0.127   0.623   0.5625
V27     V     0.127   0.377   0.4375
V28     V     0.127   0.377   0.9375
V29     V     0.373   0.377   0.3125
V30     V     0.373   0.377   0.8125
V31     V     0.373   0.623   0.1875
V32     V     0.373   0.623   0.6875
loop_
_geom_bond_atom_site_label_1
_geom_bond_atom_site_label_2
_geom_bond_distance
_geom_bond_site_symmetry_2
_ccdc_geom_bond_type
V1     V3    10.0   .     S
V1     V7    10.0   1_565     S
V1     V2    10.0   .     S
V1     V2    10.0   1_554     S
V1     V11    10.0   .     S
V1     V21    10.0   .     S
V2     V4    10.0   .     S
V2     V8    10.0   1_565     S
V2     V1    10.0   1_556     S
V2     V12    10.0   .     S
V2     V22    10.0   .     S
V3     V6    10.0   1_564     S
V3     V4    10.0   .     S
V3     V4    10.0   1_554     S
V3     V9    10.0   1_655     S
V3     V19    10.0   .     S
V4     V5    10.0   1_565     S
V4     V3    10.0   1_556     S
V4     V10    10.0   1_655     S
V4     V20    10.0   .     S
V5     V4    10.0   1_545     S
V5     V7    10.0   .     S
V5     V6    10.0   1_554     S
V5     V6    10.0   .     S
V5     V17    10.0   .     S
V5     V15    10.0   1_655     S
V6     V3    10.0   1_546     S
V6     V8    10.0   .     S
V6     V5    10.0   1_556     S
V6     V18    10.0   .     S
V6     V16    10.0   1_655     S
V7     V1    10.0   1_545     S
V7     V8    10.0   1_554     S
V7     V8    10.0   .     S
V7     V23    10.0   .     S
V7     V13    10.0   .     S
V8     V2    10.0   1_545     S
V8     V7    10.0   1_556     S
V8     V24    10.0   .     S
V8     V14    10.0   .     S
V9     V11    10.0   .     S
V9     V16    10.0   1_564     S
V9     V10    10.0   .     S
V9     V10    10.0   1_554     S
V9     V25    10.0   .     S
V9     V3    10.0   1_455     S
V10     V12    10.0   .     S
V10     V15    10.0   1_565     S
V10     V9    10.0   1_556     S
V10     V26    10.0   .     S
V10     V4    10.0   1_455     S
V11     V13    10.0   1_565     S
V11     V12    10.0   .     S
V11     V12    10.0   1_554     S
V11     V31    10.0   .     S
V12     V14    10.0   1_565     S
V12     V11    10.0   1_556     S
V12     V32    10.0   .     S
V13     V11    10.0   1_545     S
V13     V15    10.0   .     S
V13     V14    10.0   1_554     S
V13     V14    10.0   .     S
V13     V29    10.0   .     S
V14     V12    10.0   1_545     S
V14     V16    10.0   .     S
V14     V13    10.0   1_556     S
V14     V30    10.0   .     S
V15     V10    10.0   1_545     S
V15     V16    10.0   1_554     S
V15     V16    10.0   .     S
V15     V5    10.0   1_455     S
V15     V27    10.0   .     S
V16     V9    10.0   1_546     S
V16     V15    10.0   1_556     S
V16     V6    10.0   1_455     S
V16     V28    10.0   .     S
V17     V20    10.0   .     S
V17     V23    10.0   .     S
V17     V18    10.0   1_554     S
V17     V18    10.0   .     S
V17     V27    10.0   1_655     S
V18     V19    10.0   1_556     S
V18     V24    10.0   .     S
V18     V17    10.0   1_556     S
V18     V28    10.0   1_655     S
V19     V18    10.0   1_554     S
V19     V21    10.0   .     S
V19     V20    10.0   .     S
V19     V20    10.0   1_554     S
V19     V25    10.0   1_655     S
V20     V22    10.0   .     S
V20     V19    10.0   1_556     S
V20     V26    10.0   1_655     S
V21     V23    10.0   .     S
V21     V22    10.0   .     S
V21     V22    10.0   1_554     S
V21     V31    10.0   .     S
V22     V24    10.0   .     S
V22     V21    10.0   1_556     S
V22     V32    10.0   .     S
V23     V24    10.0   1_554     S
V23     V24    10.0   .     S
V23     V29    10.0   .     S
V24     V23    10.0   1_556     S
V24     V30    10.0   .     S
V25     V28    10.0   1_554     S
V25     V31    10.0   .     S
V25     V26    10.0   .     S
V25     V26    10.0   1_554     S
V25     V19    10.0   1_455     S
V26     V27    10.0   .     S
V26     V32    10.0   .     S
V26     V25    10.0   1_556     S
V26     V20    10.0   1_455     S
V27     V29    10.0   .     S
V27     V28    10.0   1_554     S
V27     V28    10.0   .     S
V27     V17    10.0   1_455     S
V28     V25    10.0   1_556     S
V28     V30    10.0   .     S
V28     V27    10.0   1_556     S
V28     V18    10.0   1_455     S
V29     V31    10.0   .     S
V29     V30    10.0   1_554     S
V29     V30    10.0   .     S
V30     V32    10.0   .     S
V30     V29    10.0   1_556     S
V31     V32    10.0   .     S
V31     V32    10.0   1_554     S
V32     V31    10.0   1_556     S
