data_snvx_star
_audit_creation_date              2020-02-02
_audit_creation_method            'Pymatgen'
_symmetry_space_group_name_H-M    'P1'
_symmetry_Int_Tables_number       1
loop_
_symmetry_equiv_pos_as_xyz
  x,y,z
_cell_length_a                    30.4858
_cell_length_b                    30.4858
_cell_length_c                    30.4858
_cell_angle_alpha                 90.0
_cell_angle_beta                 90.0
_cell_angle_gamma                 90.0
loop_
_atom_site_label
_atom_site_type_symbol
_atom_site_fract_x
_atom_site_fract_y
_atom_site_fract_z
V1     V     0.3737   0.8334   0.1138
V2     V     0.6263   0.8862   0.1666
V3     V     0.3737   0.8862   0.8334
V4     V     0.6263   0.8334   0.8862
V5     V     0.3737   0.1138   0.1666
V6     V     0.6263   0.1666   0.1138
V7     V     0.3737   0.1666   0.8862
V8     V     0.6263   0.1138   0.8334
V9     V     0.1138   0.3737   0.8334
V10     V     0.1666   0.6263   0.8862
V11     V     0.1666   0.3737   0.1138
V12     V     0.1138   0.6263   0.1666
V13     V     0.8334   0.3737   0.8862
V14     V     0.8862   0.6263   0.8334
V15     V     0.8862   0.3737   0.1666
V16     V     0.8334   0.6263   0.1138
V17     V     0.8862   0.8334   0.3737
V18     V     0.8334   0.8862   0.6263
V19     V     0.8334   0.1138   0.3737
V20     V     0.8862   0.1666   0.6263
V21     V     0.1138   0.1666   0.3737
V22     V     0.1666   0.1138   0.6263
V23     V     0.1666   0.8862   0.3737
V24     V     0.1138   0.8334   0.6263
loop_
_geom_bond_atom_site_label_1
_geom_bond_atom_site_label_2
_geom_bond_distance
_geom_bond_site_symmetry_2
_ccdc_geom_bond_type
V1     V2    8.032   .     S
V1     V5    8.7   1_565     S
V1     V3    8.7   1_554     S
V1     V10    11.307   1_554     S
V1     V6    12.749   1_565     S
V1     V23    10.255   .     S
V1     V12    10.255   .     S
V2     V6    8.7   1_565     S
V2     V4    8.7   1_554     S
V2     V19    11.307   1_565     S
V2     V3    12.749   1_554     S
V2     V17    10.255   .     S
V2     V16    10.255   .     S
V3     V4    8.032   .     S
V3     V1    8.7   1_556     S
V3     V7    8.7   1_565     S
V3     V22    11.307   1_565     S
V3     V2    12.749   1_556     S
V3     V10    10.255   .     S
V3     V24    10.255   .     S
V4     V2    8.7   1_556     S
V4     V8    8.7   1_565     S
V4     V16    11.307   1_556     S
V4     V7    12.749   1_565     S
V4     V14    10.255   .     S
V4     V18    10.255   .     S
V5     V6    8.032   .     S
V5     V1    8.7   1_545     S
V5     V7    8.7   1_554     S
V5     V23    11.307   1_545     S
V5     V8    12.749   1_554     S
V5     V21    10.255   .     S
V5     V11    10.255   .     S
V6     V2    8.7   1_545     S
V6     V8    8.7   1_554     S
V6     V13    11.307   1_554     S
V6     V1    12.749   1_545     S
V6     V15    10.255   .     S
V6     V19    10.255   .     S
V7     V8    8.032   .     S
V7     V3    8.7   1_545     S
V7     V5    8.7   1_556     S
V7     V11    11.307   1_556     S
V7     V4    12.749   1_545     S
V7     V9    10.255   .     S
V7     V22    10.255   .     S
V8     V4    8.7   1_545     S
V8     V6    8.7   1_556     S
V8     V18    11.307   1_545     S
V8     V5    12.749   1_556     S
V8     V13    10.255   .     S
V8     V20    10.255   .     S
V9     V10    8.032   .     S
V9     V11    8.7   1_556     S
V9     V13    8.7   1_455     S
V9     V20    11.307   1_455     S
V9     V12    12.749   1_556     S
V9     V22    10.255   .     S
V10     V12    8.7   1_556     S
V10     V14    8.7   1_455     S
V10     V1    11.307   1_556     S
V10     V13    12.749   1_455     S
V10     V24    10.255   .     S
V11     V12    8.032   .     S
V11     V9    8.7   1_554     S
V11     V15    8.7   1_455     S
V11     V7    11.307   1_554     S
V11     V16    12.749   1_455     S
V11     V21    10.255   .     S
V12     V10    8.7   1_554     S
V12     V16    8.7   1_455     S
V12     V17    11.307   1_455     S
V12     V9    12.749   1_554     S
V12     V23    10.255   .     S
V13     V14    8.032   .     S
V13     V9    8.7   1_655     S
V13     V15    8.7   1_556     S
V13     V6    11.307   1_556     S
V13     V10    12.749   1_655     S
V13     V20    10.255   .     S
V14     V10    8.7   1_655     S
V14     V16    8.7   1_556     S
V14     V24    11.307   1_655     S
V14     V15    12.749   1_556     S
V14     V18    10.255   .     S
V15     V16    8.032   .     S
V15     V13    8.7   1_554     S
V15     V11    8.7   1_655     S
V15     V21    11.307   1_655     S
V15     V14    12.749   1_554     S
V15     V19    10.255   .     S
V16     V14    8.7   1_554     S
V16     V12    8.7   1_655     S
V16     V4    11.307   1_554     S
V16     V11    12.749   1_655     S
V16     V17    10.255   .     S
V17     V18    8.032   .     S
V17     V23    8.7   1_655     S
V17     V19    8.7   1_565     S
V17     V12    11.307   1_655     S
V17     V20    12.749   1_565     S
V18     V24    8.7   1_655     S
V18     V20    8.7   1_565     S
V18     V8    11.307   1_565     S
V18     V23    12.749   1_655     S
V19     V20    8.032   .     S
V19     V17    8.7   1_545     S
V19     V21    8.7   1_655     S
V19     V2    11.307   1_545     S
V19     V22    12.749   1_655     S
V20     V18    8.7   1_545     S
V20     V22    8.7   1_655     S
V20     V9    11.307   1_655     S
V20     V17    12.749   1_545     S
V21     V22    8.032   .     S
V21     V19    8.7   1_455     S
V21     V23    8.7   1_545     S
V21     V15    11.307   1_455     S
V21     V24    12.749   1_545     S
V22     V20    8.7   1_455     S
V22     V24    8.7   1_545     S
V22     V3    11.307   1_545     S
V22     V19    12.749   1_455     S
V23     V24    8.032   .     S
V23     V17    8.7   1_455     S
V23     V21    8.7   1_565     S
V23     V5    11.307   1_565     S
V23     V18    12.749   1_455     S
V24     V18    8.7   1_455     S
V24     V22    8.7   1_565     S
V24     V14    11.307   1_455     S
V24     V21    12.749   1_565     S
