data_sode
_audit_creation_date              2020-02-02
_audit_creation_method            'Pymatgen'
_symmetry_space_group_name_H-M    'P1'
_symmetry_Int_Tables_number       1
loop_
_symmetry_equiv_pos_as_xyz
  x,y,z
_cell_length_a                    34.1422
_cell_length_b                    34.1422
_cell_length_c                    34.1422
_cell_angle_alpha                 90.0
_cell_angle_beta                 90.0
_cell_angle_gamma                 90.0
loop_
_atom_site_label
_atom_site_type_symbol
_atom_site_fract_x
_atom_site_fract_y
_atom_site_fract_z
V1     V     0.6464   0.6464   0.0
V2     V     0.6464   0.3535   0.0
V3     V     0.3535   0.6464   0.0
V4     V     0.3535   0.3535   0.0
V5     V     0.3535   0.0   0.6464
V6     V     0.3535   0.0   0.3535
V7     V     0.6464   0.0   0.6464
V8     V     0.6464   0.0   0.3535
V9     V     0.0   0.3535   0.6464
V10     V     0.0   0.3535   0.3535
V11     V     0.0   0.6464   0.3535
V12     V     0.0   0.6464   0.6464
V13     V     0.1464   0.5   0.1464
V14     V     0.1464   0.1464   0.5
V15     V     0.5   0.1464   0.1464
V16     V     0.8536   0.5   0.1464
V17     V     0.5   0.8536   0.1464
V18     V     0.8536   0.1464   0.5
V19     V     0.1464   0.8536   0.5
V20     V     0.1464   0.5   0.8536
V21     V     0.5   0.1464   0.8536
V22     V     0.5   0.8536   0.8536
V23     V     0.8536   0.5   0.8536
V24     V     0.8536   0.8536   0.5
loop_
_geom_bond_atom_site_label_1
_geom_bond_atom_site_label_2
_geom_bond_distance
_geom_bond_site_symmetry_2
_ccdc_geom_bond_type
V1     V22    10.0   1_554     S
V1     V17    10.0   .     S
V1     V3    10.0   .     S
V1     V16    10.0   .     S
V1     V23    10.0   1_554     S
V1     V2    10.0   .     S
V2     V23    10.0   1_554     S
V2     V16    10.0   .     S
V2     V15    10.0   .     S
V2     V21    10.0   1_554     S
V2     V4    10.0   .     S
V3     V17    10.0   .     S
V3     V22    10.0   1_554     S
V3     V20    10.0   1_554     S
V3     V13    10.0   .     S
V3     V4    10.0   .     S
V4     V21    10.0   1_554     S
V4     V15    10.0   .     S
V4     V13    10.0   .     S
V4     V20    10.0   1_554     S
V5     V14    10.0   .     S
V5     V19    10.0   1_545     S
V5     V6    10.0   .     S
V5     V22    10.0   1_545     S
V5     V21    10.0   .     S
V5     V7    10.0   .     S
V6     V19    10.0   1_545     S
V6     V14    10.0   .     S
V6     V15    10.0   .     S
V6     V17    10.0   1_545     S
V6     V8    10.0   .     S
V7     V24    10.0   1_545     S
V7     V18    10.0   .     S
V7     V8    10.0   .     S
V7     V21    10.0   .     S
V7     V22    10.0   1_545     S
V8     V18    10.0   .     S
V8     V24    10.0   1_545     S
V8     V17    10.0   1_545     S
V8     V15    10.0   .     S
V9     V18    10.0   1_455     S
V9     V14    10.0   .     S
V9     V10    10.0   .     S
V9     V20    10.0   .     S
V9     V23    10.0   1_455     S
V9     V12    10.0   .     S
V10     V14    10.0   .     S
V10     V18    10.0   1_455     S
V10     V16    10.0   1_455     S
V10     V13    10.0   .     S
V10     V11    10.0   .     S
V11     V13    10.0   .     S
V11     V16    10.0   1_455     S
V11     V24    10.0   1_455     S
V11     V19    10.0   .     S
V11     V12    10.0   .     S
V12     V23    10.0   1_455     S
V12     V20    10.0   .     S
V12     V19    10.0   .     S
V12     V24    10.0   1_455     S
V13     V20    10.0   1_554     S
V13     V16    10.0   1_455     S
V14     V19    10.0   1_545     S
V14     V18    10.0   1_455     S
V15     V21    10.0   1_554     S
V15     V17    10.0   1_545     S
V16     V23    10.0   1_554     S
V16     V10    10.0   1_655     S
V16     V11    10.0   1_655     S
V16     V13    10.0   1_655     S
V17     V22    10.0   1_554     S
V17     V8    10.0   1_565     S
V17     V6    10.0   1_565     S
V17     V15    10.0   1_565     S
V18     V24    10.0   1_545     S
V18     V10    10.0   1_655     S
V18     V9    10.0   1_655     S
V18     V14    10.0   1_655     S
V19     V5    10.0   1_565     S
V19     V6    10.0   1_565     S
V19     V14    10.0   1_565     S
V19     V24    10.0   1_455     S
V20     V4    10.0   1_556     S
V20     V3    10.0   1_556     S
V20     V13    10.0   1_556     S
V20     V23    10.0   1_455     S
V21     V4    10.0   1_556     S
V21     V2    10.0   1_556     S
V21     V15    10.0   1_556     S
V21     V22    10.0   1_545     S
V22     V1    10.0   1_556     S
V22     V3    10.0   1_556     S
V22     V17    10.0   1_556     S
V22     V5    10.0   1_565     S
V22     V7    10.0   1_565     S
V22     V21    10.0   1_565     S
V23     V2    10.0   1_556     S
V23     V1    10.0   1_556     S
V23     V16    10.0   1_556     S
V23     V12    10.0   1_655     S
V23     V9    10.0   1_655     S
V23     V20    10.0   1_655     S
V24     V7    10.0   1_565     S
V24     V8    10.0   1_565     S
V24     V18    10.0   1_565     S
V24     V11    10.0   1_655     S
V24     V12    10.0   1_655     S
V24     V19    10.0   1_655     S
