data_soe
_audit_creation_date              2020-02-02
_audit_creation_method            'Pymatgen'
_symmetry_space_group_name_H-M    'P1'
_symmetry_Int_Tables_number       1
loop_
_symmetry_equiv_pos_as_xyz
  x,y,z
_cell_length_a                    34.0377
_cell_length_b                    29.2504
_cell_length_c                    20.0
_cell_angle_alpha                 90.0
_cell_angle_beta                 90.0
_cell_angle_gamma                 90.0
loop_
_atom_site_label
_atom_site_type_symbol
_atom_site_fract_x
_atom_site_fract_y
_atom_site_fract_z
V1     V     0.3777   0.5846   0.1878
V2     V     0.3777   0.5846   0.6878
V3     V     0.6223   0.4154   0.3122
V4     V     0.6223   0.4154   0.8122
V5     V     0.6223   0.0846   0.4378
V6     V     0.6223   0.0846   0.9378
V7     V     0.3777   0.9155   0.0622
V8     V     0.3777   0.9155   0.5622
V9     V     0.8777   0.5846   0.3122
V10     V     0.8777   0.5846   0.8122
V11     V     0.1223   0.4154   0.1878
V12     V     0.1223   0.4154   0.6878
V13     V     0.1223   0.0846   0.0622
V14     V     0.1223   0.0846   0.5622
V15     V     0.8777   0.9155   0.4378
V16     V     0.8777   0.9155   0.9378
loop_
_geom_bond_atom_site_label_1
_geom_bond_atom_site_label_2
_geom_bond_distance
_geom_bond_site_symmetry_2
_ccdc_geom_bond_type
V1     V3    10.0   .     S
V1     V2    10.0   .     S
V1     V2    10.0   1_554     S
V1     V7    10.0   .     S
V1     V11    10.0   .     S
V2     V4    10.0   .     S
V2     V1    10.0   1_556     S
V2     V8    10.0   .     S
V2     V12    10.0   .     S
V3     V4    10.0   1_554     S
V3     V4    10.0   .     S
V3     V5    10.0   .     S
V3     V9    10.0   .     S
V4     V3    10.0   1_556     S
V4     V6    10.0   .     S
V4     V10    10.0   .     S
V5     V8    10.0   1_545     S
V5     V6    10.0   1_554     S
V5     V6    10.0   .     S
V5     V15    10.0   1_545     S
V6     V7    10.0   1_546     S
V6     V5    10.0   1_556     S
V6     V16    10.0   1_545     S
V7     V6    10.0   1_564     S
V7     V8    10.0   .     S
V7     V8    10.0   1_554     S
V7     V13    10.0   1_565     S
V8     V5    10.0   1_565     S
V8     V7    10.0   1_556     S
V8     V14    10.0   1_565     S
V9     V11    10.0   1_655     S
V9     V10    10.0   1_554     S
V9     V10    10.0   .     S
V9     V15    10.0   .     S
V10     V12    10.0   1_655     S
V10     V9    10.0   1_556     S
V10     V16    10.0   .     S
V11     V9    10.0   1_455     S
V11     V12    10.0   .     S
V11     V12    10.0   1_554     S
V11     V13    10.0   .     S
V12     V10    10.0   1_455     S
V12     V11    10.0   1_556     S
V12     V14    10.0   .     S
V13     V16    10.0   1_444     S
V13     V14    10.0   .     S
V13     V14    10.0   1_554     S
V13     V7    10.0   1_545     S
V14     V15    10.0   1_445     S
V14     V13    10.0   1_556     S
V14     V8    10.0   1_545     S
V15     V14    10.0   1_665     S
V15     V16    10.0   1_554     S
V15     V16    10.0   .     S
V15     V5    10.0   1_565     S
V16     V13    10.0   1_666     S
V16     V15    10.0   1_556     S
V16     V6    10.0   1_565     S
