data_sog
_audit_creation_date              2020-02-02
_audit_creation_method            'Pymatgen'
_symmetry_space_group_name_H-M    'P1'
_symmetry_Int_Tables_number       1
loop_
_symmetry_equiv_pos_as_xyz
  x,y,z
_cell_length_a                    63.418
_cell_length_b                    20.0
_cell_length_c                    66.1998
_cell_angle_alpha                 90.0
_cell_angle_beta                 90.0
_cell_angle_gamma                 90.0
loop_
_atom_site_label
_atom_site_type_symbol
_atom_site_fract_x
_atom_site_fract_y
_atom_site_fract_z
V1     V     0.8044   0.0487   0.0496
V2     V     0.8044   0.5487   0.0496
V3     V     0.8044   0.0763   0.2004
V4     V     0.8044   0.5763   0.2004
V5     V     0.9456   0.3263   0.0496
V6     V     0.9456   0.8263   0.0496
V7     V     0.9456   0.2987   0.2004
V8     V     0.9456   0.7987   0.2004
V9     V     0.8044   0.2987   0.5496
V10     V     0.8044   0.7987   0.5496
V11     V     0.8044   0.3263   0.7004
V12     V     0.8044   0.8263   0.7004
V13     V     0.9456   0.0763   0.5496
V14     V     0.9456   0.5763   0.5496
V15     V     0.9456   0.0487   0.7004
V16     V     0.9456   0.5487   0.7004
V17     V     0.4456   0.3263   0.5496
V18     V     0.4456   0.8263   0.5496
V19     V     0.4456   0.2987   0.7004
V20     V     0.4456   0.7987   0.7004
V21     V     0.3044   0.0487   0.5496
V22     V     0.3044   0.5487   0.5496
V23     V     0.3044   0.0763   0.7004
V24     V     0.3044   0.5763   0.7004
V25     V     0.5544   0.4237   0.9504
V26     V     0.5544   0.9237   0.9504
V27     V     0.5544   0.4513   0.7996
V28     V     0.5544   0.9513   0.7996
V29     V     0.6956   0.2013   0.9504
V30     V     0.6956   0.7013   0.9504
V31     V     0.6956   0.1737   0.7996
V32     V     0.6956   0.6737   0.7996
V33     V     0.0544   0.4237   0.4504
V34     V     0.0544   0.9237   0.4504
V35     V     0.0544   0.4513   0.2996
V36     V     0.0544   0.9513   0.2996
V37     V     0.1956   0.2013   0.4504
V38     V     0.1956   0.7013   0.4504
V39     V     0.1956   0.1737   0.2996
V40     V     0.1956   0.6737   0.2996
V41     V     0.1956   0.4513   0.9504
V42     V     0.1956   0.9513   0.9504
V43     V     0.1956   0.4237   0.7996
V44     V     0.1956   0.9237   0.7996
V45     V     0.0544   0.1737   0.9504
V46     V     0.0544   0.6737   0.9504
V47     V     0.0544   0.2013   0.7996
V48     V     0.0544   0.7013   0.7996
V49     V     0.3044   0.2987   0.0496
V50     V     0.3044   0.7987   0.0496
V51     V     0.3044   0.3263   0.2004
V52     V     0.3044   0.8263   0.2004
V53     V     0.4456   0.0763   0.0496
V54     V     0.4456   0.5763   0.0496
V55     V     0.4456   0.0487   0.2004
V56     V     0.4456   0.5487   0.2004
V57     V     0.5544   0.1737   0.4504
V58     V     0.5544   0.6737   0.4504
V59     V     0.5544   0.2013   0.2996
V60     V     0.5544   0.7013   0.2996
V61     V     0.6956   0.4513   0.4504
V62     V     0.6956   0.9513   0.4504
V63     V     0.6956   0.4237   0.2996
V64     V     0.6956   0.9237   0.2996
loop_
_geom_bond_atom_site_label_1
_geom_bond_atom_site_label_2
_geom_bond_distance
_geom_bond_site_symmetry_2
_ccdc_geom_bond_type
V1     V3    10.0   .     S
V1     V6    10.0   1_545     S
V1     V2    10.0   .     S
V1     V2    10.0   1_545     S
V1     V29    10.001   1_554     S
V2     V4    10.0   .     S
V2     V5    10.0   .     S
V2     V1    10.0   1_565     S
V2     V30    10.001   1_554     S
V3     V7    10.0   .     S
V3     V4    10.0   .     S
V3     V4    10.0   1_545     S
V3     V64    10.001   1_545     S
V4     V8    10.0   .     S
V4     V3    10.0   1_565     S
V4     V63    10.001   .     S
V5     V7    10.0   .     S
V5     V6    10.0   1_545     S
V5     V6    10.0   .     S
V5     V45    10.001   1_654     S
V6     V8    10.0   .     S
V6     V1    10.0   1_565     S
V6     V5    10.0   1_565     S
V6     V46    10.001   1_654     S
V7     V8    10.0   1_545     S
V7     V8    10.0   .     S
V7     V35    10.001   1_655     S
V8     V7    10.0   1_565     S
V8     V36    10.001   1_655     S
V9     V11    10.0   .     S
V9     V13    10.0   .     S
V9     V10    10.0   1_545     S
V9     V10    10.0   .     S
V9     V61    10.001   .     S
V10     V12    10.0   .     S
V10     V14    10.0   .     S
V10     V9    10.0   1_565     S
V10     V62    10.001   .     S
V11     V16    10.0   .     S
V11     V12    10.0   1_545     S
V11     V12    10.0   .     S
V11     V31    10.001   .     S
V12     V15    10.0   1_565     S
V12     V11    10.0   1_565     S
V12     V32    10.001   .     S
V13     V15    10.0   .     S
V13     V14    10.0   .     S
V13     V14    10.0   1_545     S
V13     V34    10.001   1_645     S
V14     V16    10.0   .     S
V14     V13    10.0   1_565     S
V14     V33    10.001   1_655     S
V15     V12    10.0   1_545     S
V15     V16    10.0   .     S
V15     V16    10.0   1_545     S
V15     V47    10.001   1_655     S
V16     V15    10.0   1_565     S
V16     V48    10.001   1_655     S
V17     V19    10.0   .     S
V17     V22    10.0   .     S
V17     V18    10.0   1_545     S
V17     V18    10.0   .     S
V17     V57    10.001   .     S
V18     V20    10.0   .     S
V18     V21    10.0   1_565     S
V18     V17    10.0   1_565     S
V18     V58    10.001   .     S
V19     V23    10.0   .     S
V19     V20    10.0   1_545     S
V19     V20    10.0   .     S
V19     V27    10.001   .     S
V20     V24    10.0   .     S
V20     V19    10.0   1_565     S
V20     V28    10.001   .     S
V21     V23    10.0   .     S
V21     V18    10.0   1_545     S
V21     V22    10.0   .     S
V21     V22    10.0   1_545     S
V21     V37    10.001   .     S
V22     V24    10.0   .     S
V22     V21    10.0   1_565     S
V22     V38    10.001   .     S
V23     V24    10.0   .     S
V23     V24    10.0   1_545     S
V23     V44    10.001   1_545     S
V24     V23    10.0   1_565     S
V24     V43    10.001   .     S
V25     V27    10.0   .     S
V25     V29    10.0   .     S
V25     V26    10.0   1_545     S
V25     V26    10.0   .     S
V25     V54    10.001   1_556     S
V26     V28    10.0   .     S
V26     V30    10.0   .     S
V26     V25    10.0   1_565     S
V26     V53    10.001   1_566     S
V27     V32    10.0   .     S
V27     V28    10.0   1_545     S
V27     V28    10.0   .     S
V28     V31    10.0   1_565     S
V28     V27    10.0   1_565     S
V29     V1    10.001   1_556     S
V29     V31    10.0   .     S
V29     V30    10.0   .     S
V29     V30    10.0   1_545     S
V30     V2    10.001   1_556     S
V30     V32    10.0   .     S
V30     V29    10.0   1_565     S
V31     V28    10.0   1_545     S
V31     V32    10.0   .     S
V31     V32    10.0   1_545     S
V32     V31    10.0   1_565     S
V33     V35    10.0   .     S
V33     V37    10.0   .     S
V33     V34    10.0   1_545     S
V33     V34    10.0   .     S
V33     V14    10.001   1_455     S
V34     V36    10.0   .     S
V34     V38    10.0   .     S
V34     V33    10.0   1_565     S
V34     V13    10.001   1_465     S
V35     V40    10.0   .     S
V35     V36    10.0   1_545     S
V35     V36    10.0   .     S
V35     V7    10.001   1_455     S
V36     V39    10.0   1_565     S
V36     V35    10.0   1_565     S
V36     V8    10.001   1_455     S
V37     V39    10.0   .     S
V37     V38    10.0   .     S
V37     V38    10.0   1_545     S
V38     V40    10.0   .     S
V38     V37    10.0   1_565     S
V39     V36    10.0   1_545     S
V39     V40    10.0   .     S
V39     V40    10.0   1_545     S
V39     V51    10.001   .     S
V40     V39    10.0   1_565     S
V40     V52    10.001   .     S
V41     V43    10.0   .     S
V41     V46    10.0   .     S
V41     V42    10.0   1_545     S
V41     V42    10.0   .     S
V41     V49    10.001   1_556     S
V42     V44    10.0   .     S
V42     V45    10.0   1_565     S
V42     V41    10.0   1_565     S
V42     V50    10.001   1_556     S
V43     V47    10.0   .     S
V43     V44    10.0   1_545     S
V43     V44    10.0   .     S
V44     V48    10.0   .     S
V44     V43    10.0   1_565     S
V44     V23    10.001   1_565     S
V45     V47    10.0   .     S
V45     V42    10.0   1_545     S
V45     V46    10.0   .     S
V45     V46    10.0   1_545     S
V45     V5    10.001   1_456     S
V46     V48    10.0   .     S
V46     V45    10.0   1_565     S
V46     V6    10.001   1_456     S
V47     V48    10.0   .     S
V47     V48    10.0   1_545     S
V47     V15    10.001   1_455     S
V48     V47    10.0   1_565     S
V48     V16    10.001   1_455     S
V49     V51    10.0   .     S
V49     V53    10.0   .     S
V49     V50    10.0   1_545     S
V49     V50    10.0   .     S
V49     V41    10.001   1_554     S
V50     V52    10.0   .     S
V50     V54    10.0   .     S
V50     V49    10.0   1_565     S
V50     V42    10.001   1_554     S
V51     V56    10.0   .     S
V51     V52    10.0   1_545     S
V51     V52    10.0   .     S
V52     V55    10.0   1_565     S
V52     V51    10.0   1_565     S
V53     V26    10.001   1_544     S
V53     V55    10.0   .     S
V53     V54    10.0   .     S
V53     V54    10.0   1_545     S
V54     V25    10.001   1_554     S
V54     V56    10.0   .     S
V54     V53    10.0   1_565     S
V55     V52    10.0   1_545     S
V55     V56    10.0   .     S
V55     V56    10.0   1_545     S
V55     V59    10.001   .     S
V56     V55    10.0   1_565     S
V56     V60    10.001   .     S
V57     V59    10.0   .     S
V57     V62    10.0   1_545     S
V57     V58    10.0   .     S
V57     V58    10.0   1_545     S
V58     V60    10.0   .     S
V58     V61    10.0   .     S
V58     V57    10.0   1_565     S
V59     V63    10.0   .     S
V59     V60    10.0   .     S
V59     V60    10.0   1_545     S
V60     V64    10.0   .     S
V60     V59    10.0   1_565     S
V61     V63    10.0   .     S
V61     V62    10.0   1_545     S
V61     V62    10.0   .     S
V62     V64    10.0   .     S
V62     V57    10.0   1_565     S
V62     V61    10.0   1_565     S
V63     V64    10.0   1_545     S
V63     V64    10.0   .     S
V64     V3    10.001   1_565     S
V64     V63    10.0   1_565     S
