data_soj
_audit_creation_date              2020-02-02
_audit_creation_method            'Pymatgen'
_symmetry_space_group_name_H-M    'P1'
_symmetry_Int_Tables_number       1
loop_
_symmetry_equiv_pos_as_xyz
  x,y,z
_cell_length_a                    18.3606
_cell_length_b                    24.7247
_cell_length_c                    16.7588
_cell_angle_alpha                 90.0
_cell_angle_beta                 90.0
_cell_angle_gamma                 90.0
loop_
_atom_site_label
_atom_site_type_symbol
_atom_site_fract_x
_atom_site_fract_y
_atom_site_fract_z
V1     V     0.8521   0.1698   0.5005
V2     V     0.3521   0.3302   0.4995
V3     V     0.6479   0.3302   0.0005
V4     V     0.1479   0.1698   0.9995
V5     V     0.3521   0.6698   0.9995
V6     V     0.6479   0.6698   0.5005
V7     V     0.8521   0.8302   0.0005
V8     V     0.1479   0.8302   0.4995
loop_
_geom_bond_atom_site_label_1
_geom_bond_atom_site_label_2
_geom_bond_distance
_geom_bond_site_symmetry_2
_ccdc_geom_bond_type
V1     V2    10.0   .     S
V1     V3    10.0   .     S
V1     V2    10.0   1_655     S
V1     V3    10.0   1_556     S
V1     V4    10.0   1_654     S
V1     V8    10.0   1_645     S
V2     V1    10.0   1_455     S
V2     V4    10.0   .     S
V2     V3    10.0   1_556     S
V2     V4    10.0   1_554     S
V2     V6    10.0   .     S
V3     V4    10.0   1_654     S
V3     V1    10.0   1_554     S
V3     V2    10.0   1_554     S
V3     V4    10.0   1_554     S
V3     V5    10.0   1_554     S
V4     V3    10.0   1_456     S
V4     V3    10.0   1_556     S
V4     V2    10.0   1_556     S
V4     V1    10.0   1_456     S
V4     V7    10.0   1_446     S
V5     V7    10.0   1_556     S
V5     V8    10.0   .     S
V5     V7    10.0   1_456     S
V5     V8    10.0   1_556     S
V5     V6    10.0   1_556     S
V5     V3    10.0   1_556     S
V6     V7    10.0   1_556     S
V6     V8    10.0   .     S
V6     V8    10.0   1_655     S
V6     V7    10.0   .     S
V6     V5    10.0   1_554     S
V7     V5    10.0   1_554     S
V7     V6    10.0   1_554     S
V7     V5    10.0   1_654     S
V7     V8    10.0   1_654     S
V7     V4    10.0   1_664     S
V8     V5    10.0   1_554     S
V8     V6    10.0   1_455     S
V8     V7    10.0   1_456     S
V8     V1    10.0   1_465     S
