data_som
_audit_creation_date              2020-02-02
_audit_creation_method            'Pymatgen'
_symmetry_space_group_name_H-M    'P1'
_symmetry_Int_Tables_number       1
loop_
_symmetry_equiv_pos_as_xyz
  x,y,z
_cell_length_a                    20.0
_cell_length_b                    38.6689
_cell_length_c                    79.1542
_cell_angle_alpha                 90.0
_cell_angle_beta                 90.0
_cell_angle_gamma                 90.0
loop_
_atom_site_label
_atom_site_type_symbol
_atom_site_fract_x
_atom_site_fract_y
_atom_site_fract_z
V1     V     0.1382   0.5018   0.3131
V2     V     0.6382   0.5018   0.3131
V3     V     0.2368   0.5018   0.4369
V4     V     0.7368   0.5018   0.4369
V5     V     0.4868   0.7482   0.3131
V6     V     0.9869   0.7482   0.3131
V7     V     0.3882   0.7482   0.4369
V8     V     0.8882   0.7482   0.4369
V9     V     0.2368   0.2482   0.3131
V10     V     0.7368   0.2482   0.3131
V11     V     0.1382   0.2482   0.4369
V12     V     0.6382   0.2482   0.4369
V13     V     0.3882   0.0018   0.3131
V14     V     0.8882   0.0018   0.3131
V15     V     0.4868   0.0018   0.4369
V16     V     0.9869   0.0018   0.4369
V17     V     0.2632   0.4982   0.5631
V18     V     0.7632   0.4982   0.5631
V19     V     0.3618   0.4982   0.6869
V20     V     0.8619   0.4982   0.6869
V21     V     0.0132   0.2518   0.6869
V22     V     0.5132   0.2518   0.6869
V23     V     0.1118   0.2518   0.5631
V24     V     0.6118   0.2518   0.5631
V25     V     0.0132   0.9982   0.5631
V26     V     0.5132   0.9982   0.5631
V27     V     0.1118   0.9982   0.6869
V28     V     0.6118   0.9982   0.6869
V29     V     0.3618   0.7518   0.5631
V30     V     0.8619   0.7518   0.5631
V31     V     0.2632   0.7518   0.6869
V32     V     0.7632   0.7518   0.6869
V33     V     0.4868   0.5018   0.9369
V34     V     0.9869   0.5018   0.9369
V35     V     0.3882   0.5018   0.8131
V36     V     0.8882   0.5018   0.8131
V37     V     0.1382   0.7482   0.9369
V38     V     0.6382   0.7482   0.9369
V39     V     0.2368   0.7482   0.8131
V40     V     0.7368   0.7482   0.8131
V41     V     0.3882   0.2482   0.9369
V42     V     0.8882   0.2482   0.9369
V43     V     0.4868   0.2482   0.8131
V44     V     0.9869   0.2482   0.8131
V45     V     0.2368   0.0018   0.9369
V46     V     0.7368   0.0018   0.9369
V47     V     0.1382   0.0018   0.8131
V48     V     0.6382   0.0018   0.8131
V49     V     0.1118   0.4982   0.1869
V50     V     0.6118   0.4982   0.1869
V51     V     0.0132   0.4982   0.0631
V52     V     0.5132   0.4982   0.0631
V53     V     0.2632   0.2518   0.1869
V54     V     0.7632   0.2518   0.1869
V55     V     0.3618   0.2518   0.0631
V56     V     0.8619   0.2518   0.0631
V57     V     0.3618   0.9982   0.1869
V58     V     0.8619   0.9982   0.1869
V59     V     0.2632   0.9982   0.0631
V60     V     0.7632   0.9982   0.0631
V61     V     0.0132   0.7518   0.1869
V62     V     0.5132   0.7518   0.1869
V63     V     0.1118   0.7518   0.0631
V64     V     0.6118   0.7518   0.0631
loop_
_geom_bond_atom_site_label_1
_geom_bond_atom_site_label_2
_geom_bond_distance
_geom_bond_site_symmetry_2
_ccdc_geom_bond_type
V1     V3    9.999   .     S
V1     V6    10.0   1_455     S
V1     V2    10.0   .     S
V1     V2    10.0   1_455     S
V1     V9    10.0   .     S
V1     V49    10.001   .     S
V2     V4    9.999   .     S
V2     V5    10.0   .     S
V2     V1    10.0   1_655     S
V2     V10    10.0   .     S
V2     V50    10.001   .     S
V3     V7    10.0   .     S
V3     V4    10.0   .     S
V3     V4    10.0   1_455     S
V3     V11    10.0   .     S
V3     V17    10.001   .     S
V4     V8    10.0   .     S
V4     V3    10.0   1_655     S
V4     V12    10.0   .     S
V4     V18    10.001   .     S
V5     V7    9.999   .     S
V5     V6    10.0   1_455     S
V5     V6    10.0   .     S
V5     V13    10.0   1_565     S
V5     V62    10.001   .     S
V6     V8    9.999   .     S
V6     V1    10.0   1_655     S
V6     V5    10.0   1_655     S
V6     V14    10.0   1_565     S
V6     V61    10.001   1_655     S
V7     V8    10.0   1_455     S
V7     V8    10.0   .     S
V7     V15    10.0   1_565     S
V7     V29    10.001   .     S
V8     V7    10.0   1_655     S
V8     V16    10.0   1_565     S
V8     V30    10.001   .     S
V9     V11    9.999   .     S
V9     V13    10.0   .     S
V9     V10    10.0   .     S
V9     V10    10.0   1_455     S
V9     V53    10.001   .     S
V10     V12    9.999   .     S
V10     V14    10.0   .     S
V10     V9    10.0   1_655     S
V10     V54    10.001   .     S
V11     V16    10.0   1_455     S
V11     V12    10.0   .     S
V11     V12    10.0   1_455     S
V11     V23    10.001   .     S
V12     V15    10.0   .     S
V12     V11    10.0   1_655     S
V12     V24    10.001   .     S
V13     V15    9.999   .     S
V13     V14    10.0   1_455     S
V13     V14    10.0   .     S
V13     V5    10.0   1_545     S
V13     V57    10.001   1_545     S
V14     V16    9.999   .     S
V14     V13    10.0   1_655     S
V14     V6    10.0   1_545     S
V14     V58    10.001   1_545     S
V15     V16    10.0   1_455     S
V15     V16    10.0   .     S
V15     V7    10.0   1_545     S
V15     V26    10.001   1_545     S
V16     V11    10.0   1_655     S
V16     V15    10.0   1_655     S
V16     V8    10.0   1_545     S
V16     V25    10.001   1_645     S
V17     V19    9.999   .     S
V17     V23    10.0   .     S
V17     V18    10.0   1_455     S
V17     V18    10.0   .     S
V17     V29    10.0   .     S
V18     V20    9.999   .     S
V18     V24    10.0   .     S
V18     V17    10.0   1_655     S
V18     V30    10.0   .     S
V19     V22    10.0   .     S
V19     V20    10.0   1_455     S
V19     V20    10.0   .     S
V19     V31    10.0   .     S
V19     V35    10.001   .     S
V20     V21    10.0   1_655     S
V20     V19    10.0   1_655     S
V20     V32    10.0   .     S
V20     V36    10.001   .     S
V21     V23    9.999   .     S
V21     V20    10.0   1_455     S
V21     V22    10.0   .     S
V21     V22    10.0   1_455     S
V21     V27    10.0   1_545     S
V21     V44    10.001   1_455     S
V22     V24    9.999   .     S
V22     V21    10.0   1_655     S
V22     V28    10.0   1_545     S
V22     V43    10.001   .     S
V23     V24    10.0   .     S
V23     V24    10.0   1_455     S
V23     V25    10.0   1_545     S
V24     V23    10.0   1_655     S
V24     V26    10.0   1_545     S
V25     V27    9.999   .     S
V25     V30    10.0   1_455     S
V25     V26    10.0   .     S
V25     V26    10.0   1_455     S
V25     V23    10.0   1_565     S
V25     V16    10.001   1_465     S
V26     V28    9.999   .     S
V26     V29    10.0   .     S
V26     V25    10.0   1_655     S
V26     V24    10.0   1_565     S
V26     V15    10.001   1_565     S
V27     V31    10.0   .     S
V27     V28    10.0   .     S
V27     V28    10.0   1_455     S
V27     V21    10.0   1_565     S
V27     V47    10.001   1_565     S
V28     V32    10.0   .     S
V28     V27    10.0   1_655     S
V28     V22    10.0   1_565     S
V28     V48    10.001   1_565     S
V29     V31    9.999   .     S
V29     V30    10.0   1_455     S
V29     V30    10.0   .     S
V30     V32    9.999   .     S
V30     V25    10.0   1_655     S
V30     V29    10.0   1_655     S
V31     V32    10.0   1_455     S
V31     V32    10.0   .     S
V31     V39    10.001   .     S
V32     V31    10.0   1_655     S
V32     V40    10.001   .     S
V33     V35    9.999   .     S
V33     V38    10.0   .     S
V33     V34    10.0   1_455     S
V33     V34    10.0   .     S
V33     V41    10.0   .     S
V33     V52    10.001   1_556     S
V34     V36    9.999   .     S
V34     V37    10.0   1_655     S
V34     V33    10.0   1_655     S
V34     V42    10.0   .     S
V34     V51    10.001   1_656     S
V35     V39    10.0   .     S
V35     V36    10.0   1_455     S
V35     V36    10.0   .     S
V35     V43    10.0   .     S
V36     V40    10.0   .     S
V36     V35    10.0   1_655     S
V36     V44    10.0   .     S
V37     V39    9.999   .     S
V37     V34    10.0   1_455     S
V37     V38    10.0   .     S
V37     V38    10.0   1_455     S
V37     V45    10.0   1_565     S
V37     V63    10.001   1_556     S
V38     V40    9.999   .     S
V38     V37    10.0   1_655     S
V38     V46    10.0   1_565     S
V38     V64    10.001   1_556     S
V39     V40    10.0   .     S
V39     V40    10.0   1_455     S
V39     V47    10.0   1_565     S
V40     V39    10.0   1_655     S
V40     V48    10.0   1_565     S
V41     V43    9.999   .     S
V41     V45    10.0   .     S
V41     V42    10.0   1_455     S
V41     V42    10.0   .     S
V41     V55    10.001   1_556     S
V42     V44    9.999   .     S
V42     V46    10.0   .     S
V42     V41    10.0   1_655     S
V42     V56    10.001   1_556     S
V43     V48    10.0   .     S
V43     V44    10.0   1_455     S
V43     V44    10.0   .     S
V44     V47    10.0   1_655     S
V44     V43    10.0   1_655     S
V44     V21    10.001   1_655     S
V45     V47    9.999   .     S
V45     V46    10.0   .     S
V45     V46    10.0   1_455     S
V45     V37    10.0   1_545     S
V45     V59    10.001   1_546     S
V46     V48    9.999   .     S
V46     V45    10.0   1_655     S
V46     V38    10.0   1_545     S
V46     V60    10.001   1_546     S
V47     V44    10.0   1_455     S
V47     V48    10.0   .     S
V47     V48    10.0   1_455     S
V47     V39    10.0   1_545     S
V47     V27    10.001   1_545     S
V48     V47    10.0   1_655     S
V48     V40    10.0   1_545     S
V48     V28    10.001   1_545     S
V49     V51    9.999   .     S
V49     V53    10.0   .     S
V49     V50    10.0   .     S
V49     V50    10.0   1_455     S
V49     V61    10.0   .     S
V50     V52    9.999   .     S
V50     V54    10.0   .     S
V50     V49    10.0   1_655     S
V50     V62    10.0   .     S
V51     V56    10.0   1_455     S
V51     V52    10.0   .     S
V51     V52    10.0   1_455     S
V51     V63    10.0   .     S
V51     V34    10.001   1_454     S
V52     V55    10.0   .     S
V52     V51    10.0   1_655     S
V52     V64    10.0   .     S
V52     V33    10.001   1_554     S
V53     V55    9.999   .     S
V53     V54    10.0   1_455     S
V53     V54    10.0   .     S
V53     V57    10.0   1_545     S
V54     V56    9.999   .     S
V54     V53    10.0   1_655     S
V54     V58    10.0   1_545     S
V55     V56    10.0   1_455     S
V55     V56    10.0   .     S
V55     V59    10.0   1_545     S
V55     V41    10.001   1_554     S
V56     V51    10.0   1_655     S
V56     V55    10.0   1_655     S
V56     V60    10.0   1_545     S
V56     V42    10.001   1_554     S
V57     V59    9.999   .     S
V57     V62    10.0   .     S
V57     V58    10.0   1_455     S
V57     V58    10.0   .     S
V57     V53    10.0   1_565     S
V57     V13    10.001   1_565     S
V58     V60    9.999   .     S
V58     V61    10.0   1_655     S
V58     V57    10.0   1_655     S
V58     V54    10.0   1_565     S
V58     V14    10.001   1_565     S
V59     V63    10.0   .     S
V59     V60    10.0   1_455     S
V59     V60    10.0   .     S
V59     V55    10.0   1_565     S
V59     V45    10.001   1_564     S
V60     V64    10.0   .     S
V60     V59    10.0   1_655     S
V60     V56    10.0   1_565     S
V60     V46    10.001   1_564     S
V61     V63    9.999   .     S
V61     V58    10.0   1_455     S
V61     V62    10.0   .     S
V61     V62    10.0   1_455     S
V61     V6    10.001   1_455     S
V62     V64    9.999   .     S
V62     V61    10.0   1_655     S
V63     V64    10.0   .     S
V63     V64    10.0   1_455     S
V63     V37    10.001   1_554     S
V64     V63    10.0   1_655     S
V64     V38    10.001   1_554     S
