data_son
_audit_creation_date              2020-02-02
_audit_creation_method            'Pymatgen'
_symmetry_space_group_name_H-M    'P1'
_symmetry_Int_Tables_number       1
loop_
_symmetry_equiv_pos_as_xyz
  x,y,z
_cell_length_a                    73.9948
_cell_length_b                    38.626
_cell_length_c                    20.0
_cell_angle_alpha                 90.0
_cell_angle_beta                 90.0
_cell_angle_gamma                 90.0
loop_
_atom_site_label
_atom_site_type_symbol
_atom_site_fract_x
_atom_site_fract_y
_atom_site_fract_z
V1     V     0.689   0.5023   0.2329
V2     V     0.689   0.5023   0.7329
V3     V     0.5609   0.5023   0.3921
V4     V     0.5609   0.5023   0.8921
V5     V     0.689   0.7477   0.3921
V6     V     0.689   0.7477   0.8921
V7     V     0.5609   0.7477   0.2329
V8     V     0.5609   0.7477   0.7329
V9     V     0.689   0.0023   0.4829
V10     V     0.689   0.0023   0.9829
V11     V     0.5609   0.0023   0.1421
V12     V     0.5609   0.0023   0.6421
V13     V     0.689   0.2477   0.1421
V14     V     0.689   0.2477   0.6421
V15     V     0.5609   0.2477   0.4829
V16     V     0.5609   0.2477   0.9829
V17     V     0.939   0.4977   0.3579
V18     V     0.939   0.4977   0.8579
V19     V     0.8109   0.4977   0.0171
V20     V     0.8109   0.4977   0.5171
V21     V     0.939   0.2523   0.0171
V22     V     0.939   0.2523   0.5171
V23     V     0.8109   0.2523   0.3579
V24     V     0.8109   0.2523   0.8579
V25     V     0.939   0.7523   0.2671
V26     V     0.939   0.7523   0.7671
V27     V     0.8109   0.7523   0.1079
V28     V     0.8109   0.7523   0.6079
V29     V     0.939   0.9977   0.1079
V30     V     0.939   0.9977   0.6079
V31     V     0.8109   0.9977   0.2671
V32     V     0.8109   0.9977   0.7671
V33     V     0.189   0.0023   0.2329
V34     V     0.189   0.0023   0.7329
V35     V     0.061   0.0023   0.3921
V36     V     0.061   0.0023   0.8921
V37     V     0.061   0.2477   0.2329
V38     V     0.061   0.2477   0.7329
V39     V     0.189   0.2477   0.3921
V40     V     0.189   0.2477   0.8921
V41     V     0.061   0.7477   0.4829
V42     V     0.061   0.7477   0.9829
V43     V     0.189   0.7477   0.1421
V44     V     0.189   0.7477   0.6421
V45     V     0.061   0.5023   0.1421
V46     V     0.061   0.5023   0.6421
V47     V     0.189   0.5023   0.4829
V48     V     0.189   0.5023   0.9829
V49     V     0.439   0.4977   0.1079
V50     V     0.439   0.4977   0.6079
V51     V     0.311   0.4977   0.2671
V52     V     0.311   0.4977   0.7671
V53     V     0.439   0.2523   0.2671
V54     V     0.439   0.2523   0.7671
V55     V     0.311   0.2523   0.1079
V56     V     0.311   0.2523   0.6079
V57     V     0.439   0.7523   0.0171
V58     V     0.439   0.7523   0.5171
V59     V     0.311   0.7523   0.3579
V60     V     0.311   0.7523   0.8579
V61     V     0.439   0.9977   0.3579
V62     V     0.439   0.9977   0.8579
V63     V     0.311   0.9977   0.0171
V64     V     0.311   0.9977   0.5171
loop_
_geom_bond_atom_site_label_1
_geom_bond_atom_site_label_2
_geom_bond_distance
_geom_bond_site_symmetry_2
_ccdc_geom_bond_type
V1     V3    10.0   .     S
V1     V5    10.0   .     S
V1     V2    10.0   .     S
V1     V2    10.0   1_554     S
V1     V13    10.0   .     S
V1     V19    10.0   .     S
V2     V4    10.0   .     S
V2     V6    10.0   .     S
V2     V1    10.0   1_556     S
V2     V14    10.0   .     S
V2     V20    10.0   .     S
V3     V7    10.0   .     S
V3     V4    10.0   1_554     S
V3     V4    10.0   .     S
V3     V15    10.0   .     S
V3     V50    10.0   .     S
V4     V8    10.0   .     S
V4     V3    10.0   1_556     S
V4     V16    10.0   .     S
V4     V49    10.0   1_556     S
V5     V7    10.0   .     S
V5     V6    10.0   1_554     S
V5     V6    10.0   .     S
V5     V9    10.0   1_565     S
V5     V28    10.0   .     S
V6     V8    10.0   .     S
V6     V5    10.0   1_556     S
V6     V10    10.0   1_565     S
V6     V27    10.0   1_556     S
V7     V8    10.0   .     S
V7     V8    10.0   1_554     S
V7     V11    10.0   1_565     S
V7     V57    10.0   .     S
V8     V7    10.0   1_556     S
V8     V12    10.0   1_565     S
V8     V58    10.0   .     S
V9     V12    10.0   .     S
V9     V14    10.0   .     S
V9     V10    10.0   1_554     S
V9     V10    10.0   .     S
V9     V5    10.0   1_545     S
V9     V31    10.0   1_545     S
V10     V11    10.0   1_556     S
V10     V13    10.0   1_556     S
V10     V9    10.0   1_556     S
V10     V6    10.0   1_545     S
V10     V32    10.0   1_545     S
V11     V7    10.0   1_545     S
V11     V10    10.0   1_554     S
V11     V16    10.0   1_554     S
V11     V12    10.0   .     S
V11     V12    10.0   1_554     S
V11     V61    10.0   1_545     S
V12     V8    10.0   1_545     S
V12     V15    10.0   .     S
V12     V11    10.0   1_556     S
V12     V62    10.0   1_545     S
V13     V16    10.0   1_554     S
V13     V10    10.0   1_554     S
V13     V14    10.0   .     S
V13     V14    10.0   1_554     S
V13     V23    10.0   .     S
V14     V15    10.0   .     S
V14     V13    10.0   1_556     S
V14     V24    10.0   .     S
V15     V16    10.0   1_554     S
V15     V16    10.0   .     S
V15     V53    10.0   .     S
V16     V13    10.0   1_556     S
V16     V11    10.0   1_556     S
V16     V15    10.0   1_556     S
V16     V54    10.0   .     S
V17     V20    10.0   .     S
V17     V22    10.0   .     S
V17     V18    10.0   1_554     S
V17     V18    10.0   .     S
V17     V25    10.0   .     S
V17     V45    10.0   1_655     S
V18     V19    10.0   1_556     S
V18     V21    10.0   1_556     S
V18     V17    10.0   1_556     S
V18     V26    10.0   .     S
V18     V46    10.0   1_655     S
V19     V18    10.0   1_554     S
V19     V24    10.0   1_554     S
V19     V20    10.0   .     S
V19     V20    10.0   1_554     S
V19     V27    10.0   .     S
V20     V23    10.0   .     S
V20     V19    10.0   1_556     S
V20     V28    10.0   .     S
V21     V24    10.0   1_554     S
V21     V18    10.0   1_554     S
V21     V22    10.0   .     S
V21     V22    10.0   1_554     S
V21     V29    10.0   1_545     S
V21     V37    10.0   1_655     S
V22     V23    10.0   .     S
V22     V21    10.0   1_556     S
V22     V30    10.0   1_545     S
V22     V38    10.0   1_655     S
V23     V24    10.0   1_554     S
V23     V24    10.0   .     S
V23     V31    10.0   1_545     S
V24     V21    10.0   1_556     S
V24     V19    10.0   1_556     S
V24     V23    10.0   1_556     S
V24     V32    10.0   1_545     S
V25     V27    10.0   .     S
V25     V29    10.0   .     S
V25     V26    10.0   1_554     S
V25     V26    10.0   .     S
V25     V41    10.0   1_655     S
V26     V28    10.0   .     S
V26     V30    10.0   .     S
V26     V25    10.0   1_556     S
V26     V42    10.0   1_655     S
V27     V31    10.0   .     S
V27     V28    10.0   .     S
V27     V28    10.0   1_554     S
V27     V6    10.0   1_554     S
V28     V32    10.0   .     S
V28     V27    10.0   1_556     S
V29     V31    10.0   .     S
V29     V30    10.0   .     S
V29     V30    10.0   1_554     S
V29     V21    10.0   1_565     S
V29     V36    10.0   1_664     S
V30     V32    10.0   .     S
V30     V29    10.0   1_556     S
V30     V22    10.0   1_565     S
V30     V35    10.0   1_665     S
V31     V32    10.0   1_554     S
V31     V32    10.0   .     S
V31     V23    10.0   1_565     S
V31     V9    10.0   1_565     S
V32     V31    10.0   1_556     S
V32     V24    10.0   1_565     S
V32     V10    10.0   1_565     S
V33     V35    10.0   .     S
V33     V39    10.0   .     S
V33     V34    10.0   .     S
V33     V34    10.0   1_554     S
V33     V43    10.0   1_545     S
V33     V63    10.0   1_545     S
V34     V36    10.0   .     S
V34     V40    10.0   .     S
V34     V33    10.0   1_556     S
V34     V44    10.0   1_545     S
V34     V64    10.0   1_545     S
V35     V30    10.0   1_445     S
V35     V37    10.0   .     S
V35     V36    10.0   1_554     S
V35     V36    10.0   .     S
V35     V41    10.0   1_545     S
V36     V29    10.0   1_446     S
V36     V38    10.0   .     S
V36     V35    10.0   1_556     S
V36     V42    10.0   1_545     S
V37     V21    10.0   1_455     S
V37     V39    10.0   .     S
V37     V38    10.0   .     S
V37     V38    10.0   1_554     S
V37     V45    10.0   .     S
V38     V22    10.0   1_455     S
V38     V40    10.0   .     S
V38     V37    10.0   1_556     S
V38     V46    10.0   .     S
V39     V40    10.0   1_554     S
V39     V40    10.0   .     S
V39     V47    10.0   .     S
V39     V56    10.0   .     S
V40     V39    10.0   1_556     S
V40     V48    10.0   .     S
V40     V55    10.0   1_556     S
V41     V25    10.0   1_455     S
V41     V44    10.0   .     S
V41     V46    10.0   .     S
V41     V42    10.0   1_554     S
V41     V42    10.0   .     S
V41     V35    10.0   1_565     S
V42     V26    10.0   1_455     S
V42     V43    10.0   1_556     S
V42     V45    10.0   1_556     S
V42     V41    10.0   1_556     S
V42     V36    10.0   1_565     S
V43     V33    10.0   1_565     S
V43     V42    10.0   1_554     S
V43     V48    10.0   1_554     S
V43     V44    10.0   .     S
V43     V44    10.0   1_554     S
V43     V59    10.0   .     S
V44     V34    10.0   1_565     S
V44     V47    10.0   .     S
V44     V43    10.0   1_556     S
V44     V60    10.0   .     S
V45     V17    10.0   1_455     S
V45     V48    10.0   1_554     S
V45     V42    10.0   1_554     S
V45     V46    10.0   .     S
V45     V46    10.0   1_554     S
V46     V18    10.0   1_455     S
V46     V47    10.0   .     S
V46     V45    10.0   1_556     S
V47     V48    10.0   1_554     S
V47     V48    10.0   .     S
V47     V51    10.0   .     S
V48     V45    10.0   1_556     S
V48     V43    10.0   1_556     S
V48     V47    10.0   1_556     S
V48     V52    10.0   .     S
V49     V4    10.0   1_554     S
V49     V51    10.0   .     S
V49     V53    10.0   .     S
V49     V50    10.0   .     S
V49     V50    10.0   1_554     S
V49     V57    10.0   .     S
V50     V52    10.0   .     S
V50     V54    10.0   .     S
V50     V49    10.0   1_556     S
V50     V58    10.0   .     S
V51     V55    10.0   .     S
V51     V52    10.0   1_554     S
V51     V52    10.0   .     S
V51     V59    10.0   .     S
V52     V56    10.0   .     S
V52     V51    10.0   1_556     S
V52     V60    10.0   .     S
V53     V55    10.0   .     S
V53     V54    10.0   1_554     S
V53     V54    10.0   .     S
V53     V61    10.0   1_545     S
V54     V56    10.0   .     S
V54     V53    10.0   1_556     S
V54     V62    10.0   1_545     S
V55     V56    10.0   .     S
V55     V56    10.0   1_554     S
V55     V63    10.0   1_545     S
V55     V40    10.0   1_554     S
V56     V55    10.0   1_556     S
V56     V64    10.0   1_545     S
V57     V60    10.0   1_554     S
V57     V62    10.0   1_554     S
V57     V58    10.0   .     S
V57     V58    10.0   1_554     S
V58     V59    10.0   .     S
V58     V61    10.0   .     S
V58     V57    10.0   1_556     S
V59     V64    10.0   .     S
V59     V60    10.0   1_554     S
V59     V60    10.0   .     S
V60     V57    10.0   1_556     S
V60     V63    10.0   1_556     S
V60     V59    10.0   1_556     S
V61     V11    10.0   1_565     S
V61     V64    10.0   .     S
V61     V62    10.0   1_554     S
V61     V62    10.0   .     S
V61     V53    10.0   1_565     S
V62     V12    10.0   1_565     S
V62     V63    10.0   1_556     S
V62     V57    10.0   1_556     S
V62     V61    10.0   1_556     S
V62     V54    10.0   1_565     S
V63     V62    10.0   1_554     S
V63     V60    10.0   1_554     S
V63     V64    10.0   .     S
V63     V64    10.0   1_554     S
V63     V55    10.0   1_565     S
V63     V33    10.0   1_565     S
V64     V63    10.0   1_556     S
V64     V56    10.0   1_565     S
V64     V34    10.0   1_565     S
