data_soo
_audit_creation_date              2020-02-02
_audit_creation_method            'Pymatgen'
_symmetry_space_group_name_H-M    'P1'
_symmetry_Int_Tables_number       1
loop_
_symmetry_equiv_pos_as_xyz
  x,y,z
_cell_length_a                    78.6371
_cell_length_b                    37.3202
_cell_length_c                    20.0002
_cell_angle_alpha                 90.0
_cell_angle_beta                 90.0
_cell_angle_gamma                 90.0
loop_
_atom_site_label
_atom_site_type_symbol
_atom_site_fract_x
_atom_site_fract_y
_atom_site_fract_z
V1     V     0.6886   0.259   0.0625
V2     V     0.6886   0.259   0.5625
V3     V     0.5614   0.259   0.0625
V4     V     0.5614   0.259   0.5625
V5     V     0.6886   0.991   0.0625
V6     V     0.6886   0.991   0.5625
V7     V     0.5614   0.991   0.0625
V8     V     0.5614   0.991   0.5625
V9     V     0.6886   0.759   0.3125
V10     V     0.6886   0.759   0.8125
V11     V     0.5614   0.759   0.3125
V12     V     0.5614   0.759   0.8125
V13     V     0.6886   0.491   0.3125
V14     V     0.6886   0.491   0.8125
V15     V     0.5614   0.491   0.3125
V16     V     0.5614   0.491   0.8125
V17     V     0.3114   0.241   0.1875
V18     V     0.3114   0.241   0.6875
V19     V     0.4386   0.241   0.1875
V20     V     0.4386   0.241   0.6875
V21     V     0.4386   0.509   0.1875
V22     V     0.4386   0.509   0.6875
V23     V     0.3114   0.509   0.1875
V24     V     0.3114   0.509   0.6875
V25     V     0.4386   0.741   0.4375
V26     V     0.4386   0.741   0.9375
V27     V     0.3114   0.741   0.4375
V28     V     0.3114   0.741   0.9375
V29     V     0.3114   0.009   0.4375
V30     V     0.3114   0.009   0.9375
V31     V     0.4386   0.009   0.4375
V32     V     0.4386   0.009   0.9375
V33     V     0.0614   0.259   0.3125
V34     V     0.0614   0.259   0.8125
V35     V     0.1886   0.259   0.3125
V36     V     0.1886   0.259   0.8125
V37     V     0.0614   0.991   0.3125
V38     V     0.0614   0.991   0.8125
V39     V     0.1886   0.991   0.3125
V40     V     0.1886   0.991   0.8125
V41     V     0.0614   0.759   0.0625
V42     V     0.0614   0.759   0.5625
V43     V     0.1886   0.759   0.0625
V44     V     0.1886   0.759   0.5625
V45     V     0.0614   0.491   0.0625
V46     V     0.0614   0.491   0.5625
V47     V     0.1886   0.491   0.0625
V48     V     0.1886   0.491   0.5625
V49     V     0.8114   0.741   0.1875
V50     V     0.8114   0.741   0.6875
V51     V     0.9386   0.741   0.1875
V52     V     0.9386   0.741   0.6875
V53     V     0.8114   0.009   0.1875
V54     V     0.8114   0.009   0.6875
V55     V     0.9386   0.009   0.1875
V56     V     0.9386   0.009   0.6875
V57     V     0.8114   0.241   0.4375
V58     V     0.8114   0.241   0.9375
V59     V     0.9386   0.241   0.4375
V60     V     0.9386   0.241   0.9375
V61     V     0.8114   0.509   0.4375
V62     V     0.8114   0.509   0.9375
V63     V     0.9386   0.509   0.4375
V64     V     0.9386   0.509   0.9375
loop_
_geom_bond_atom_site_label_1
_geom_bond_atom_site_label_2
_geom_bond_distance
_geom_bond_site_symmetry_2
_ccdc_geom_bond_type
V1     V3    9.999   .     S
V1     V5    10.0   1_545     S
V1     V2    10.0   .     S
V1     V2    10.0   1_554     S
V1     V13    10.0   .     S
V1     V14    10.0   1_554     S
V1     V58    10.0   1_554     S
V2     V4    9.999   .     S
V2     V6    10.0   1_545     S
V2     V1    10.0   1_556     S
V2     V14    10.0   .     S
V2     V13    10.0   .     S
V2     V57    10.0   .     S
V3     V7    10.0   1_545     S
V3     V4    10.0   .     S
V3     V4    10.0   1_554     S
V3     V16    10.0   1_554     S
V3     V15    10.0   .     S
V3     V19    10.0   .     S
V4     V8    10.0   1_545     S
V4     V3    10.0   1_556     S
V4     V15    10.0   .     S
V4     V16    10.0   .     S
V4     V20    10.0   .     S
V5     V7    9.999   .     S
V5     V1    10.0   1_565     S
V5     V6    10.0   .     S
V5     V6    10.0   1_554     S
V5     V10    10.0   1_554     S
V5     V9    10.0   .     S
V5     V53    10.0   1_565     S
V6     V8    9.999   .     S
V6     V2    10.0   1_565     S
V6     V5    10.0   1_556     S
V6     V9    10.0   .     S
V6     V10    10.0   .     S
V6     V54    10.0   1_565     S
V7     V3    10.0   1_565     S
V7     V8    10.0   .     S
V7     V8    10.0   1_554     S
V7     V11    10.0   .     S
V7     V12    10.0   1_554     S
V7     V32    10.0   1_564     S
V8     V4    10.0   1_565     S
V8     V7    10.0   1_556     S
V8     V12    10.0   .     S
V8     V11    10.0   .     S
V8     V31    10.0   1_565     S
V9     V11    9.999   .     S
V9     V13    10.0   .     S
V9     V10    10.0   1_554     S
V9     V10    10.0   .     S
V9     V49    10.0   .     S
V10     V5    10.0   1_556     S
V10     V12    9.999   .     S
V10     V14    10.0   .     S
V10     V9    10.0   1_556     S
V10     V50    10.0   .     S
V11     V15    10.0   .     S
V11     V12    10.0   1_554     S
V11     V12    10.0   .     S
V11     V25    10.0   .     S
V12     V7    10.0   1_556     S
V12     V16    10.0   .     S
V12     V11    10.0   1_556     S
V12     V26    10.0   .     S
V13     V15    9.999   .     S
V13     V14    10.0   1_554     S
V13     V14    10.0   .     S
V13     V61    10.0   .     S
V14     V1    10.0   1_556     S
V14     V16    9.999   .     S
V14     V13    10.0   1_556     S
V14     V62    10.0   .     S
V15     V16    10.0   1_554     S
V15     V16    10.0   .     S
V15     V21    10.0   .     S
V16     V15    10.0   1_556     S
V16     V3    10.0   1_556     S
V16     V22    10.0   .     S
V17     V19    9.999   .     S
V17     V23    10.0   .     S
V17     V18    10.0   .     S
V17     V18    10.0   1_554     S
V17     V30    10.0   1_554     S
V17     V29    10.0   .     S
V17     V35    10.0   .     S
V18     V20    9.999   .     S
V18     V24    10.0   .     S
V18     V17    10.0   1_556     S
V18     V29    10.0   .     S
V18     V30    10.0   .     S
V18     V36    10.0   .     S
V19     V21    10.0   .     S
V19     V20    10.0   .     S
V19     V20    10.0   1_554     S
V19     V31    10.0   .     S
V19     V32    10.0   1_554     S
V20     V22    10.0   .     S
V20     V19    10.0   1_556     S
V20     V32    10.0   .     S
V20     V31    10.0   .     S
V21     V23    9.999   .     S
V21     V22    10.0   .     S
V21     V22    10.0   1_554     S
V21     V26    10.0   1_554     S
V21     V25    10.0   .     S
V22     V24    9.999   .     S
V22     V21    10.0   1_556     S
V22     V25    10.0   .     S
V22     V26    10.0   .     S
V23     V24    10.0   .     S
V23     V24    10.0   1_554     S
V23     V27    10.0   .     S
V23     V28    10.0   1_554     S
V23     V47    10.0   .     S
V24     V23    10.0   1_556     S
V24     V28    10.0   .     S
V24     V27    10.0   .     S
V24     V48    10.0   .     S
V25     V27    9.999   .     S
V25     V31    10.0   1_565     S
V25     V26    10.0   1_554     S
V25     V26    10.0   .     S
V26     V21    10.0   1_556     S
V26     V28    9.999   .     S
V26     V32    10.0   1_565     S
V26     V25    10.0   1_556     S
V27     V29    10.0   1_565     S
V27     V28    10.0   1_554     S
V27     V28    10.0   .     S
V27     V44    10.0   .     S
V28     V23    10.0   1_556     S
V28     V30    10.0   1_565     S
V28     V27    10.0   1_556     S
V28     V43    10.0   1_556     S
V29     V31    9.999   .     S
V29     V27    10.0   1_545     S
V29     V30    10.0   1_554     S
V29     V30    10.0   .     S
V29     V39    10.0   1_545     S
V30     V17    10.0   1_556     S
V30     V32    9.999   .     S
V30     V28    10.0   1_545     S
V30     V29    10.0   1_556     S
V30     V40    10.0   1_545     S
V31     V25    10.0   1_545     S
V31     V32    10.0   1_554     S
V31     V32    10.0   .     S
V31     V8    10.0   1_545     S
V32     V26    10.0   1_545     S
V32     V31    10.0   1_556     S
V32     V19    10.0   1_556     S
V32     V7    10.0   1_546     S
V33     V45    10.0   .     S
V33     V46    10.0   .     S
V33     V35    9.999   .     S
V33     V37    10.0   1_545     S
V33     V34    10.0   1_554     S
V33     V34    10.0   .     S
V33     V59    10.0   1_455     S
V34     V46    10.0   .     S
V34     V45    10.0   1_556     S
V34     V36    9.999   .     S
V34     V38    10.0   1_545     S
V34     V33    10.0   1_556     S
V34     V60    10.0   1_455     S
V35     V48    10.0   .     S
V35     V47    10.0   .     S
V35     V39    10.0   1_545     S
V35     V36    10.0   1_554     S
V35     V36    10.0   .     S
V36     V47    10.0   1_556     S
V36     V48    10.0   .     S
V36     V40    10.0   1_545     S
V36     V35    10.0   1_556     S
V37     V39    9.999   .     S
V37     V33    10.0   1_565     S
V37     V38    10.0   1_554     S
V37     V38    10.0   .     S
V37     V42    10.0   .     S
V37     V41    10.0   .     S
V37     V55    10.0   1_465     S
V38     V40    9.999   .     S
V38     V34    10.0   1_565     S
V38     V37    10.0   1_556     S
V38     V41    10.0   1_556     S
V38     V42    10.0   .     S
V38     V56    10.0   1_465     S
V39     V29    10.0   1_565     S
V39     V43    10.0   .     S
V39     V44    10.0   .     S
V39     V35    10.0   1_565     S
V39     V40    10.0   1_554     S
V39     V40    10.0   .     S
V40     V30    10.0   1_565     S
V40     V44    10.0   .     S
V40     V43    10.0   1_556     S
V40     V36    10.0   1_565     S
V40     V39    10.0   1_556     S
V41     V43    9.999   .     S
V41     V45    10.0   .     S
V41     V42    10.0   .     S
V41     V42    10.0   1_554     S
V41     V38    10.0   1_554     S
V41     V51    10.0   1_455     S
V42     V44    9.999   .     S
V42     V46    10.0   .     S
V42     V41    10.0   1_556     S
V42     V52    10.0   1_455     S
V43     V28    10.0   1_554     S
V43     V40    10.0   1_554     S
V43     V47    10.0   .     S
V43     V44    10.0   .     S
V43     V44    10.0   1_554     S
V44     V48    10.0   .     S
V44     V43    10.0   1_556     S
V45     V34    10.0   1_554     S
V45     V47    9.999   .     S
V45     V46    10.0   .     S
V45     V46    10.0   1_554     S
V45     V64    10.0   1_454     S
V46     V48    9.999   .     S
V46     V45    10.0   1_556     S
V46     V63    10.0   1_455     S
V47     V36    10.0   1_554     S
V47     V48    10.0   .     S
V47     V48    10.0   1_554     S
V48     V47    10.0   1_556     S
V49     V62    10.0   1_554     S
V49     V61    10.0   .     S
V49     V51    9.999   .     S
V49     V53    10.0   1_565     S
V49     V50    10.0   .     S
V49     V50    10.0   1_554     S
V50     V61    10.0   .     S
V50     V62    10.0   .     S
V50     V52    9.999   .     S
V50     V54    10.0   1_565     S
V50     V49    10.0   1_556     S
V51     V63    10.0   .     S
V51     V64    10.0   1_554     S
V51     V55    10.0   1_565     S
V51     V52    10.0   .     S
V51     V52    10.0   1_554     S
V51     V41    10.0   1_655     S
V52     V64    10.0   .     S
V52     V63    10.0   .     S
V52     V56    10.0   1_565     S
V52     V51    10.0   1_556     S
V52     V42    10.0   1_655     S
V53     V55    9.999   .     S
V53     V49    10.0   1_545     S
V53     V54    10.0   .     S
V53     V54    10.0   1_554     S
V53     V57    10.0   .     S
V53     V58    10.0   1_554     S
V53     V5    10.0   1_545     S
V54     V56    9.999   .     S
V54     V50    10.0   1_545     S
V54     V53    10.0   1_556     S
V54     V58    10.0   .     S
V54     V57    10.0   .     S
V54     V6    10.0   1_545     S
V55     V51    10.0   1_545     S
V55     V56    10.0   .     S
V55     V56    10.0   1_554     S
V55     V60    10.0   1_554     S
V55     V59    10.0   .     S
V55     V37    10.0   1_645     S
V56     V52    10.0   1_545     S
V56     V55    10.0   1_556     S
V56     V59    10.0   .     S
V56     V60    10.0   .     S
V56     V38    10.0   1_645     S
V57     V59    9.999   .     S
V57     V61    10.0   .     S
V57     V58    10.0   1_554     S
V57     V58    10.0   .     S
V58     V60    9.999   .     S
V58     V62    10.0   .     S
V58     V57    10.0   1_556     S
V58     V53    10.0   1_556     S
V58     V1    10.0   1_556     S
V59     V63    10.0   .     S
V59     V60    10.0   1_554     S
V59     V60    10.0   .     S
V59     V33    10.0   1_655     S
V60     V55    10.0   1_556     S
V60     V64    10.0   .     S
V60     V59    10.0   1_556     S
V60     V34    10.0   1_655     S
V61     V63    9.999   .     S
V61     V62    10.0   1_554     S
V61     V62    10.0   .     S
V62     V49    10.0   1_556     S
V62     V64    9.999   .     S
V62     V61    10.0   1_556     S
V63     V64    10.0   1_554     S
V63     V64    10.0   .     S
V63     V46    10.0   1_655     S
V64     V51    10.0   1_556     S
V64     V63    10.0   1_556     S
V64     V45    10.0   1_656     S
