data_sop
_audit_creation_date              2020-02-02
_audit_creation_method            'Pymatgen'
_symmetry_space_group_name_H-M    'P1'
_symmetry_Int_Tables_number       1
loop_
_symmetry_equiv_pos_as_xyz
  x,y,z
_cell_length_a                    65.2399
_cell_length_b                    14.142
_cell_length_c                    34.1422
_cell_angle_alpha                 90.0
_cell_angle_beta                 90.0
_cell_angle_gamma                 90.0
loop_
_atom_site_label
_atom_site_type_symbol
_atom_site_fract_x
_atom_site_fract_y
_atom_site_fract_z
V1     V     0.6792   0.375   0.0214
V2     V     0.5708   0.375   0.2286
V3     V     0.6792   0.875   0.2286
V4     V     0.5708   0.875   0.0214
V5     V     0.6792   0.375   0.7286
V6     V     0.5708   0.375   0.5214
V7     V     0.6792   0.875   0.5214
V8     V     0.5708   0.875   0.7286
V9     V     0.8208   0.625   0.4786
V10     V     0.9292   0.625   0.2715
V11     V     0.8208   0.125   0.2715
V12     V     0.9292   0.125   0.4786
V13     V     0.8208   0.625   0.7714
V14     V     0.9292   0.625   0.9786
V15     V     0.8208   0.125   0.9786
V16     V     0.9292   0.125   0.7714
V17     V     0.4292   0.125   0.2715
V18     V     0.3208   0.125   0.4786
V19     V     0.4292   0.625   0.4786
V20     V     0.3208   0.625   0.2715
V21     V     0.4292   0.625   0.7714
V22     V     0.3208   0.625   0.9786
V23     V     0.3208   0.125   0.7714
V24     V     0.4292   0.125   0.9786
V25     V     0.0708   0.375   0.7286
V26     V     0.1792   0.375   0.5214
V27     V     0.1792   0.875   0.7286
V28     V     0.0708   0.875   0.5214
V29     V     0.0708   0.375   0.0214
V30     V     0.1792   0.375   0.2286
V31     V     0.1792   0.875   0.0214
V32     V     0.0708   0.875   0.2286
loop_
_geom_bond_atom_site_label_1
_geom_bond_atom_site_label_2
_geom_bond_distance
_geom_bond_site_symmetry_2
_ccdc_geom_bond_type
V1     V2    10.0   .     S
V1     V4    10.0   .     S
V1     V3    10.0   .     S
V1     V3    10.0   1_545     S
V1     V4    10.0   1_545     S
V1     V5    10.0   1_554     S
V1     V15    10.0   1_554     S
V2     V3    10.0   .     S
V2     V4    10.0   .     S
V2     V3    10.0   1_545     S
V2     V4    10.0   1_545     S
V2     V6    10.0   .     S
V2     V17    10.0   .     S
V3     V1    10.0   1_565     S
V3     V2    10.0   1_565     S
V3     V4    10.0   .     S
V3     V7    10.0   .     S
V3     V11    10.0   1_565     S
V4     V1    10.0   1_565     S
V4     V2    10.0   1_565     S
V4     V8    10.0   1_554     S
V4     V24    10.0   1_564     S
V5     V7    10.0   .     S
V5     V8    10.0   .     S
V5     V6    10.0   .     S
V5     V8    10.0   1_545     S
V5     V7    10.0   1_545     S
V5     V1    10.0   1_556     S
V5     V13    10.0   .     S
V6     V7    10.0   .     S
V6     V8    10.0   .     S
V6     V7    10.0   1_545     S
V6     V8    10.0   1_545     S
V6     V19    10.0   .     S
V7     V5    10.0   1_565     S
V7     V6    10.0   1_565     S
V7     V8    10.0   .     S
V7     V9    10.0   .     S
V8     V5    10.0   1_565     S
V8     V6    10.0   1_565     S
V8     V4    10.0   1_556     S
V8     V21    10.0   .     S
V9     V10    10.0   .     S
V9     V12    10.0   .     S
V9     V11    10.0   .     S
V9     V11    10.0   1_565     S
V9     V12    10.0   1_565     S
V9     V13    10.0   .     S
V10     V11    10.0   .     S
V10     V12    10.0   .     S
V10     V11    10.0   1_565     S
V10     V12    10.0   1_565     S
V10     V14    10.0   1_554     S
V10     V32    10.0   1_655     S
V11     V12    10.0   .     S
V11     V9    10.0   1_545     S
V11     V10    10.0   1_545     S
V11     V15    10.0   1_554     S
V11     V3    10.0   1_545     S
V12     V9    10.0   1_545     S
V12     V10    10.0   1_545     S
V12     V16    10.0   .     S
V12     V28    10.0   1_645     S
V13     V15    10.0   .     S
V13     V16    10.0   .     S
V13     V14    10.0   .     S
V13     V16    10.0   1_565     S
V13     V15    10.0   1_565     S
V14     V15    10.0   .     S
V14     V16    10.0   .     S
V14     V15    10.0   1_565     S
V14     V16    10.0   1_565     S
V14     V10    10.0   1_556     S
V14     V29    10.0   1_656     S
V15     V16    10.0   .     S
V15     V13    10.0   1_545     S
V15     V14    10.0   1_545     S
V15     V11    10.0   1_556     S
V15     V1    10.0   1_556     S
V16     V13    10.0   1_545     S
V16     V14    10.0   1_545     S
V16     V25    10.0   1_655     S
V17     V18    10.0   .     S
V17     V19    10.0   1_545     S
V17     V20    10.0   1_545     S
V17     V19    10.0   .     S
V17     V20    10.0   .     S
V17     V24    10.0   1_554     S
V18     V19    10.0   1_545     S
V18     V20    10.0   1_545     S
V18     V19    10.0   .     S
V18     V20    10.0   .     S
V18     V23    10.0   .     S
V18     V26    10.0   .     S
V19     V18    10.0   1_565     S
V19     V17    10.0   1_565     S
V19     V20    10.0   .     S
V19     V21    10.0   .     S
V20     V17    10.0   1_565     S
V20     V18    10.0   1_565     S
V20     V22    10.0   1_554     S
V20     V30    10.0   .     S
V21     V22    10.0   .     S
V21     V23    10.0   .     S
V21     V24    10.0   .     S
V21     V24    10.0   1_565     S
V21     V23    10.0   1_565     S
V22     V23    10.0   .     S
V22     V24    10.0   .     S
V22     V23    10.0   1_565     S
V22     V24    10.0   1_565     S
V22     V20    10.0   1_556     S
V22     V31    10.0   1_556     S
V23     V24    10.0   .     S
V23     V21    10.0   1_545     S
V23     V22    10.0   1_545     S
V23     V27    10.0   1_545     S
V24     V21    10.0   1_545     S
V24     V22    10.0   1_545     S
V24     V17    10.0   1_556     S
V24     V4    10.0   1_546     S
V25     V26    10.0   .     S
V25     V27    10.0   .     S
V25     V28    10.0   .     S
V25     V28    10.0   1_545     S
V25     V27    10.0   1_545     S
V25     V29    10.0   1_556     S
V25     V16    10.0   1_455     S
V26     V27    10.0   .     S
V26     V28    10.0   .     S
V26     V27    10.0   1_545     S
V26     V28    10.0   1_545     S
V26     V30    10.0   .     S
V27     V23    10.0   1_565     S
V27     V28    10.0   .     S
V27     V25    10.0   1_565     S
V27     V26    10.0   1_565     S
V27     V31    10.0   1_556     S
V28     V25    10.0   1_565     S
V28     V26    10.0   1_565     S
V28     V32    10.0   .     S
V28     V12    10.0   1_465     S
V29     V30    10.0   .     S
V29     V32    10.0   .     S
V29     V31    10.0   .     S
V29     V31    10.0   1_545     S
V29     V32    10.0   1_545     S
V29     V25    10.0   1_554     S
V29     V14    10.0   1_454     S
V30     V31    10.0   .     S
V30     V32    10.0   .     S
V30     V32    10.0   1_545     S
V30     V31    10.0   1_545     S
V31     V22    10.0   1_554     S
V31     V32    10.0   .     S
V31     V29    10.0   1_565     S
V31     V30    10.0   1_565     S
V31     V27    10.0   1_554     S
V32     V29    10.0   1_565     S
V32     V30    10.0   1_565     S
V32     V10    10.0   1_455     S
