data_sor
_audit_creation_date              2020-02-02
_audit_creation_method            'Pymatgen'
_symmetry_space_group_name_H-M    'P1'
_symmetry_Int_Tables_number       1
loop_
_symmetry_equiv_pos_as_xyz
  x,y,z
_cell_length_a                    73.3709
_cell_length_b                    38.7301
_cell_length_c                    20.0
_cell_angle_alpha                 90.0
_cell_angle_beta                 90.0
_cell_angle_gamma                 90.0
loop_
_atom_site_label
_atom_site_type_symbol
_atom_site_fract_x
_atom_site_fract_y
_atom_site_fract_z
V1     V     0.309   0.5   0.25
V2     V     0.309   0.5   0.75
V3     V     0.441   0.5   0.125
V4     V     0.441   0.5   0.625
V5     V     0.309   0.25   0.125
V6     V     0.309   0.25   0.625
V7     V     0.441   0.25   0.25
V8     V     0.441   0.25   0.75
V9     V     0.309   0.75   0.375
V10     V     0.309   0.75   0.875
V11     V     0.441   0.75   0.0
V12     V     0.441   0.75   0.5
V13     V     0.309   0.0   0.0
V14     V     0.309   0.0   0.5
V15     V     0.441   0.0   0.375
V16     V     0.441   0.0   0.875
V17     V     0.559   0.5   0.375
V18     V     0.559   0.5   0.875
V19     V     0.691   0.5   0.25
V20     V     0.691   0.5   0.75
V21     V     0.691   0.25   0.125
V22     V     0.691   0.25   0.625
V23     V     0.559   0.25   0.0
V24     V     0.559   0.25   0.5
V25     V     0.691   0.75   0.375
V26     V     0.691   0.75   0.875
V27     V     0.559   0.75   0.25
V28     V     0.559   0.75   0.75
V29     V     0.691   0.0   0.0
V30     V     0.691   0.0   0.5
V31     V     0.559   0.0   0.125
V32     V     0.559   0.0   0.625
V33     V     0.941   0.5   0.375
V34     V     0.941   0.5   0.875
V35     V     0.809   0.5   0.0
V36     V     0.809   0.5   0.5
V37     V     0.941   0.25   0.0
V38     V     0.941   0.25   0.5
V39     V     0.809   0.25   0.375
V40     V     0.809   0.25   0.875
V41     V     0.941   0.0   0.125
V42     V     0.941   0.0   0.625
V43     V     0.809   0.0   0.25
V44     V     0.809   0.0   0.75
V45     V     0.941   0.75   0.25
V46     V     0.941   0.75   0.75
V47     V     0.809   0.75   0.125
V48     V     0.809   0.75   0.625
V49     V     0.059   0.5   0.125
V50     V     0.059   0.5   0.625
V51     V     0.191   0.5   0.0
V52     V     0.191   0.5   0.5
V53     V     0.059   0.25   0.25
V54     V     0.059   0.25   0.75
V55     V     0.191   0.25   0.375
V56     V     0.191   0.25   0.875
V57     V     0.059   0.75   0.0
V58     V     0.059   0.75   0.5
V59     V     0.191   0.75   0.125
V60     V     0.191   0.75   0.625
V61     V     0.059   0.0   0.375
V62     V     0.059   0.0   0.875
V63     V     0.191   0.0   0.25
V64     V     0.191   0.0   0.75
loop_
_geom_bond_atom_site_label_1
_geom_bond_atom_site_label_2
_geom_bond_distance
_geom_bond_site_symmetry_2
_ccdc_geom_bond_type
V1     V3    10.0   .     S
V1     V2    10.0   1_554     S
V1     V2    10.0   .     S
V1     V5    10.0   .     S
V1     V9    10.0   .     S
V1     V52    10.0   .     S
V1     V51    10.0   .     S
V2     V4    10.0   .     S
V2     V1    10.0   1_556     S
V2     V6    10.0   .     S
V2     V10    10.0   .     S
V2     V51    10.0   1_556     S
V2     V52    10.0   .     S
V3     V4    10.0   .     S
V3     V4    10.0   1_554     S
V3     V7    10.0   .     S
V3     V11    10.0   .     S
V3     V18    10.0   1_554     S
V3     V17    10.0   .     S
V4     V3    10.0   1_556     S
V4     V8    10.0   .     S
V4     V12    10.0   .     S
V4     V17    10.0   .     S
V4     V18    10.0   .     S
V5     V7    10.0   .     S
V5     V6    10.0   .     S
V5     V6    10.0   1_554     S
V5     V13    10.0   .     S
V5     V56    10.0   1_554     S
V5     V55    10.0   .     S
V6     V8    10.0   .     S
V6     V5    10.0   1_556     S
V6     V14    10.0   .     S
V6     V55    10.0   .     S
V6     V56    10.0   .     S
V7     V8    10.0   1_554     S
V7     V8    10.0   .     S
V7     V15    10.0   .     S
V7     V24    10.0   .     S
V7     V23    10.0   .     S
V8     V7    10.0   1_556     S
V8     V16    10.0   .     S
V8     V23    10.0   1_556     S
V8     V24    10.0   .     S
V9     V12    10.0   .     S
V9     V10    10.0   1_554     S
V9     V10    10.0   .     S
V9     V14    10.0   1_565     S
V9     V59    10.0   .     S
V9     V60    10.0   .     S
V10     V11    10.0   1_556     S
V10     V9    10.0   1_556     S
V10     V13    10.0   1_566     S
V10     V60    10.0   .     S
V10     V59    10.0   1_556     S
V11     V10    10.0   1_554     S
V11     V12    10.0   .     S
V11     V12    10.0   1_554     S
V11     V16    10.0   1_564     S
V11     V27    10.0   .     S
V11     V28    10.0   1_554     S
V12     V11    10.0   1_556     S
V12     V15    10.0   1_565     S
V12     V28    10.0   .     S
V12     V27    10.0   .     S
V13     V16    10.0   1_554     S
V13     V14    10.0   .     S
V13     V14    10.0   1_554     S
V13     V10    10.0   1_544     S
V13     V63    10.0   .     S
V13     V64    10.0   1_554     S
V14     V15    10.0   .     S
V14     V13    10.0   1_556     S
V14     V9    10.0   1_545     S
V14     V64    10.0   .     S
V14     V63    10.0   .     S
V15     V16    10.0   1_554     S
V15     V16    10.0   .     S
V15     V12    10.0   1_545     S
V15     V31    10.0   .     S
V15     V32    10.0   .     S
V16     V13    10.0   1_556     S
V16     V15    10.0   1_556     S
V16     V11    10.0   1_546     S
V16     V32    10.0   .     S
V16     V31    10.0   1_556     S
V17     V19    10.0   .     S
V17     V18    10.0   1_554     S
V17     V18    10.0   .     S
V17     V24    10.0   .     S
V17     V27    10.0   .     S
V18     V3    10.0   1_556     S
V18     V20    10.0   .     S
V18     V17    10.0   1_556     S
V18     V23    10.0   1_556     S
V18     V28    10.0   .     S
V19     V35    10.0   .     S
V19     V36    10.0   .     S
V19     V20    10.0   1_554     S
V19     V20    10.0   .     S
V19     V25    10.0   .     S
V19     V21    10.0   .     S
V20     V36    10.0   .     S
V20     V35    10.0   1_556     S
V20     V19    10.0   1_556     S
V20     V26    10.0   .     S
V20     V22    10.0   .     S
V21     V39    10.0   .     S
V21     V40    10.0   1_554     S
V21     V23    10.0   .     S
V21     V22    10.0   .     S
V21     V22    10.0   1_554     S
V21     V29    10.0   .     S
V22     V40    10.0   .     S
V22     V39    10.0   .     S
V22     V24    10.0   .     S
V22     V21    10.0   1_556     S
V22     V30    10.0   .     S
V23     V8    10.0   1_554     S
V23     V18    10.0   1_554     S
V23     V24    10.0   .     S
V23     V24    10.0   1_554     S
V23     V31    10.0   .     S
V24     V23    10.0   1_556     S
V24     V32    10.0   .     S
V25     V48    10.0   .     S
V25     V47    10.0   .     S
V25     V27    10.0   .     S
V25     V26    10.0   1_554     S
V25     V26    10.0   .     S
V25     V30    10.0   1_565     S
V26     V47    10.0   1_556     S
V26     V48    10.0   .     S
V26     V28    10.0   .     S
V26     V25    10.0   1_556     S
V26     V29    10.0   1_566     S
V27     V28    10.0   1_554     S
V27     V28    10.0   .     S
V27     V31    10.0   1_565     S
V28     V11    10.0   1_556     S
V28     V27    10.0   1_556     S
V28     V32    10.0   1_565     S
V29     V31    10.0   .     S
V29     V30    10.0   .     S
V29     V30    10.0   1_554     S
V29     V26    10.0   1_544     S
V29     V44    10.0   1_554     S
V29     V43    10.0   .     S
V30     V32    10.0   .     S
V30     V29    10.0   1_556     S
V30     V25    10.0   1_545     S
V30     V43    10.0   .     S
V30     V44    10.0   .     S
V31     V16    10.0   1_554     S
V31     V32    10.0   .     S
V31     V32    10.0   1_554     S
V31     V27    10.0   1_545     S
V32     V31    10.0   1_556     S
V32     V28    10.0   1_545     S
V33     V36    10.0   .     S
V33     V34    10.0   1_554     S
V33     V34    10.0   .     S
V33     V38    10.0   .     S
V33     V45    10.0   .     S
V33     V49    10.0   1_655     S
V33     V50    10.0   1_655     S
V34     V35    10.0   1_556     S
V34     V33    10.0   1_556     S
V34     V37    10.0   1_556     S
V34     V46    10.0   .     S
V34     V50    10.0   1_655     S
V34     V49    10.0   1_656     S
V35     V20    10.0   1_554     S
V35     V34    10.0   1_554     S
V35     V36    10.0   .     S
V35     V36    10.0   1_554     S
V35     V40    10.0   1_554     S
V35     V47    10.0   .     S
V36     V35    10.0   1_556     S
V36     V39    10.0   .     S
V36     V48    10.0   .     S
V37     V34    10.0   1_554     S
V37     V40    10.0   1_554     S
V37     V38    10.0   .     S
V37     V38    10.0   1_554     S
V37     V41    10.0   .     S
V37     V53    10.0   1_655     S
V37     V54    10.0   1_654     S
V38     V39    10.0   .     S
V38     V37    10.0   1_556     S
V38     V42    10.0   .     S
V38     V54    10.0   1_655     S
V38     V53    10.0   1_655     S
V39     V40    10.0   1_554     S
V39     V40    10.0   .     S
V39     V43    10.0   .     S
V40     V21    10.0   1_556     S
V40     V35    10.0   1_556     S
V40     V37    10.0   1_556     S
V40     V39    10.0   1_556     S
V40     V44    10.0   .     S
V41     V43    10.0   .     S
V41     V42    10.0   .     S
V41     V42    10.0   1_554     S
V41     V45    10.0   1_545     S
V41     V62    10.0   1_654     S
V41     V61    10.0   1_655     S
V42     V44    10.0   .     S
V42     V41    10.0   1_556     S
V42     V46    10.0   1_545     S
V42     V61    10.0   1_655     S
V42     V62    10.0   1_655     S
V43     V44    10.0   1_554     S
V43     V44    10.0   .     S
V43     V47    10.0   1_545     S
V44     V29    10.0   1_556     S
V44     V43    10.0   1_556     S
V44     V48    10.0   1_545     S
V45     V47    10.0   .     S
V45     V46    10.0   1_554     S
V45     V46    10.0   .     S
V45     V41    10.0   1_565     S
V45     V58    10.0   1_655     S
V45     V57    10.0   1_655     S
V46     V48    10.0   .     S
V46     V45    10.0   1_556     S
V46     V42    10.0   1_565     S
V46     V57    10.0   1_656     S
V46     V58    10.0   1_655     S
V47     V26    10.0   1_554     S
V47     V48    10.0   .     S
V47     V48    10.0   1_554     S
V47     V43    10.0   1_565     S
V48     V47    10.0   1_556     S
V48     V44    10.0   1_565     S
V49     V33    10.0   1_455     S
V49     V34    10.0   1_454     S
V49     V51    10.0   .     S
V49     V50    10.0   .     S
V49     V50    10.0   1_554     S
V49     V53    10.0   .     S
V49     V57    10.0   .     S
V50     V34    10.0   1_455     S
V50     V33    10.0   1_455     S
V50     V52    10.0   .     S
V50     V49    10.0   1_556     S
V50     V54    10.0   .     S
V50     V58    10.0   .     S
V51     V2    10.0   1_554     S
V51     V52    10.0   .     S
V51     V52    10.0   1_554     S
V51     V59    10.0   .     S
V51     V56    10.0   1_554     S
V52     V51    10.0   1_556     S
V52     V60    10.0   .     S
V52     V55    10.0   .     S
V53     V37    10.0   1_455     S
V53     V38    10.0   1_455     S
V53     V55    10.0   .     S
V53     V54    10.0   1_554     S
V53     V54    10.0   .     S
V53     V61    10.0   .     S
V54     V38    10.0   1_455     S
V54     V37    10.0   1_456     S
V54     V56    10.0   .     S
V54     V53    10.0   1_556     S
V54     V62    10.0   .     S
V55     V56    10.0   1_554     S
V55     V56    10.0   .     S
V55     V63    10.0   .     S
V56     V5    10.0   1_556     S
V56     V51    10.0   1_556     S
V56     V55    10.0   1_556     S
V56     V64    10.0   .     S
V57     V46    10.0   1_454     S
V57     V45    10.0   1_455     S
V57     V59    10.0   .     S
V57     V58    10.0   .     S
V57     V58    10.0   1_554     S
V57     V62    10.0   1_564     S
V58     V45    10.0   1_455     S
V58     V46    10.0   1_455     S
V58     V60    10.0   .     S
V58     V57    10.0   1_556     S
V58     V61    10.0   1_565     S
V59     V10    10.0   1_554     S
V59     V60    10.0   .     S
V59     V60    10.0   1_554     S
V59     V63    10.0   1_565     S
V60     V59    10.0   1_556     S
V60     V64    10.0   1_565     S
V61     V42    10.0   1_455     S
V61     V41    10.0   1_455     S
V61     V63    10.0   .     S
V61     V62    10.0   1_554     S
V61     V62    10.0   .     S
V61     V58    10.0   1_545     S
V62     V41    10.0   1_456     S
V62     V42    10.0   1_455     S
V62     V64    10.0   .     S
V62     V61    10.0   1_556     S
V62     V57    10.0   1_546     S
V63     V64    10.0   1_554     S
V63     V64    10.0   .     S
V63     V59    10.0   1_545     S
V64     V13    10.0   1_556     S
V64     V63    10.0   1_556     S
V64     V60    10.0   1_545     S
