data_sot
_audit_creation_date              2020-02-02
_audit_creation_method            'Pymatgen'
_symmetry_space_group_name_H-M    'P1'
_symmetry_Int_Tables_number       1
loop_
_symmetry_equiv_pos_as_xyz
  x,y,z
_cell_length_a                    73.2782
_cell_length_b                    37.3207
_cell_length_c                    20.0
_cell_angle_alpha                 90.0
_cell_angle_beta                 90.0
_cell_angle_gamma                 90.0
loop_
_atom_site_label
_atom_site_type_symbol
_atom_site_fract_x
_atom_site_fract_y
_atom_site_fract_z
V1     V     0.3159   0.491   0.3125
V2     V     0.3159   0.491   0.8125
V3     V     0.3159   0.259   0.0625
V4     V     0.3159   0.259   0.5625
V5     V     0.4341   0.491   0.0625
V6     V     0.4341   0.491   0.5625
V7     V     0.4341   0.259   0.3125
V8     V     0.4341   0.259   0.8125
V9     V     0.4341   0.991   0.3125
V10     V     0.4341   0.991   0.8125
V11     V     0.4341   0.759   0.0625
V12     V     0.4341   0.759   0.5625
V13     V     0.3159   0.991   0.0625
V14     V     0.3159   0.991   0.5625
V15     V     0.3159   0.759   0.3125
V16     V     0.3159   0.759   0.8125
V17     V     0.0659   0.509   0.1875
V18     V     0.0659   0.509   0.6875
V19     V     0.0659   0.741   0.4375
V20     V     0.0659   0.741   0.9375
V21     V     0.1841   0.509   0.4375
V22     V     0.1841   0.509   0.9375
V23     V     0.1841   0.741   0.1875
V24     V     0.1841   0.741   0.6875
V25     V     0.0659   0.241   0.1875
V26     V     0.0659   0.241   0.6875
V27     V     0.0659   0.009   0.4375
V28     V     0.0659   0.009   0.9375
V29     V     0.1841   0.009   0.1875
V30     V     0.1841   0.009   0.6875
V31     V     0.1841   0.241   0.4375
V32     V     0.1841   0.241   0.9375
V33     V     0.6841   0.009   0.4375
V34     V     0.6841   0.009   0.9375
V35     V     0.6841   0.241   0.1875
V36     V     0.6841   0.241   0.6875
V37     V     0.5659   0.009   0.1875
V38     V     0.5659   0.009   0.6875
V39     V     0.5659   0.241   0.4375
V40     V     0.5659   0.241   0.9375
V41     V     0.8159   0.991   0.3125
V42     V     0.8159   0.991   0.8125
V43     V     0.8159   0.759   0.0625
V44     V     0.8159   0.759   0.5625
V45     V     0.9341   0.991   0.0625
V46     V     0.9341   0.991   0.5625
V47     V     0.9341   0.759   0.3125
V48     V     0.9341   0.759   0.8125
V49     V     0.6841   0.509   0.1875
V50     V     0.6841   0.509   0.6875
V51     V     0.6841   0.741   0.4375
V52     V     0.6841   0.741   0.9375
V53     V     0.5659   0.509   0.4375
V54     V     0.5659   0.509   0.9375
V55     V     0.5659   0.741   0.1875
V56     V     0.5659   0.741   0.6875
V57     V     0.8159   0.491   0.0625
V58     V     0.8159   0.491   0.5625
V59     V     0.8159   0.259   0.3125
V60     V     0.8159   0.259   0.8125
V61     V     0.9341   0.259   0.0625
V62     V     0.9341   0.259   0.5625
V63     V     0.9341   0.491   0.3125
V64     V     0.9341   0.491   0.8125
loop_
_geom_bond_atom_site_label_1
_geom_bond_atom_site_label_2
_geom_bond_distance
_geom_bond_site_symmetry_2
_ccdc_geom_bond_type
V1     V4    10.0   .     S
V1     V6    10.0   .     S
V1     V3    10.0   .     S
V1     V2    10.0   1_554     S
V1     V2    10.0   .     S
V1     V5    10.0   .     S
V1     V21    10.0   .     S
V1     V15    10.0   .     S
V2     V3    10.0   1_556     S
V2     V5    10.0   1_556     S
V2     V4    10.0   .     S
V2     V1    10.0   1_556     S
V2     V6    10.0   .     S
V2     V22    10.0   .     S
V2     V16    10.0   .     S
V3     V2    10.0   1_554     S
V3     V8    10.0   1_554     S
V3     V4    10.0   .     S
V3     V4    10.0   1_554     S
V3     V7    10.0   .     S
V3     V32    10.0   1_554     S
V3     V13    10.0   1_545     S
V4     V7    10.0   .     S
V4     V3    10.0   1_556     S
V4     V8    10.0   .     S
V4     V31    10.0   .     S
V4     V14    10.0   1_545     S
V5     V2    10.0   1_554     S
V5     V8    10.0   1_554     S
V5     V7    10.0   .     S
V5     V6    10.0   .     S
V5     V6    10.0   1_554     S
V5     V54    10.0   1_554     S
V5     V11    10.0   .     S
V6     V7    10.0   .     S
V6     V8    10.0   .     S
V6     V5    10.0   1_556     S
V6     V53    10.0   .     S
V6     V12    10.0   .     S
V7     V8    10.0   1_554     S
V7     V8    10.0   .     S
V7     V39    10.0   .     S
V7     V9    10.0   1_545     S
V8     V5    10.0   1_556     S
V8     V3    10.0   1_556     S
V8     V7    10.0   1_556     S
V8     V40    10.0   .     S
V8     V10    10.0   1_545     S
V9     V11    10.0   .     S
V9     V13    10.0   .     S
V9     V12    10.0   .     S
V9     V10    10.0   1_554     S
V9     V10    10.0   .     S
V9     V14    10.0   .     S
V9     V37    10.0   1_565     S
V9     V7    10.0   1_565     S
V10     V12    10.0   .     S
V10     V14    10.0   .     S
V10     V11    10.0   1_556     S
V10     V9    10.0   1_556     S
V10     V13    10.0   1_556     S
V10     V38    10.0   1_565     S
V10     V8    10.0   1_565     S
V11     V15    10.0   .     S
V11     V10    10.0   1_554     S
V11     V12    10.0   .     S
V11     V12    10.0   1_554     S
V11     V16    10.0   1_554     S
V11     V55    10.0   .     S
V12     V16    10.0   .     S
V12     V11    10.0   1_556     S
V12     V15    10.0   .     S
V12     V56    10.0   .     S
V13     V15    10.0   .     S
V13     V16    10.0   1_554     S
V13     V14    10.0   .     S
V13     V14    10.0   1_554     S
V13     V10    10.0   1_554     S
V13     V29    10.0   1_565     S
V13     V3    10.0   1_565     S
V14     V16    10.0   .     S
V14     V15    10.0   .     S
V14     V13    10.0   1_556     S
V14     V30    10.0   1_565     S
V14     V4    10.0   1_565     S
V15     V16    10.0   1_554     S
V15     V16    10.0   .     S
V15     V23    10.0   .     S
V16     V13    10.0   1_556     S
V16     V15    10.0   1_556     S
V16     V11    10.0   1_556     S
V16     V24    10.0   .     S
V17     V19    10.0   .     S
V17     V21    10.0   .     S
V17     V20    10.0   1_554     S
V17     V18    10.0   .     S
V17     V18    10.0   1_554     S
V17     V22    10.0   1_554     S
V17     V63    10.0   1_455     S
V17     V25    10.0   .     S
V18     V20    10.0   .     S
V18     V22    10.0   .     S
V18     V19    10.0   .     S
V18     V17    10.0   1_556     S
V18     V21    10.0   .     S
V18     V64    10.0   1_455     S
V18     V26    10.0   .     S
V19     V23    10.0   .     S
V19     V20    10.0   1_554     S
V19     V20    10.0   .     S
V19     V24    10.0   .     S
V19     V47    10.0   1_455     S
V19     V27    10.0   1_565     S
V20     V24    10.0   .     S
V20     V17    10.0   1_556     S
V20     V19    10.0   1_556     S
V20     V23    10.0   1_556     S
V20     V48    10.0   1_455     S
V20     V28    10.0   1_565     S
V21     V23    10.0   .     S
V21     V24    10.0   .     S
V21     V22    10.0   1_554     S
V21     V22    10.0   .     S
V21     V31    10.0   .     S
V22     V24    10.0   .     S
V22     V23    10.0   1_556     S
V22     V21    10.0   1_556     S
V22     V17    10.0   1_556     S
V22     V32    10.0   .     S
V23     V22    10.0   1_554     S
V23     V24    10.0   .     S
V23     V24    10.0   1_554     S
V23     V20    10.0   1_554     S
V23     V29    10.0   1_565     S
V24     V23    10.0   1_556     S
V24     V30    10.0   1_565     S
V25     V28    10.0   1_554     S
V25     V32    10.0   1_554     S
V25     V27    10.0   .     S
V25     V26    10.0   .     S
V25     V26    10.0   1_554     S
V25     V31    10.0   .     S
V25     V61    10.0   1_455     S
V26     V27    10.0   .     S
V26     V31    10.0   .     S
V26     V28    10.0   .     S
V26     V25    10.0   1_556     S
V26     V32    10.0   .     S
V26     V62    10.0   1_455     S
V27     V30    10.0   .     S
V27     V28    10.0   1_554     S
V27     V28    10.0   .     S
V27     V29    10.0   .     S
V27     V46    10.0   1_445     S
V27     V19    10.0   1_545     S
V28     V25    10.0   1_556     S
V28     V29    10.0   1_556     S
V28     V27    10.0   1_556     S
V28     V30    10.0   .     S
V28     V45    10.0   1_446     S
V28     V20    10.0   1_545     S
V29     V32    10.0   1_554     S
V29     V28    10.0   1_554     S
V29     V31    10.0   .     S
V29     V30    10.0   .     S
V29     V30    10.0   1_554     S
V29     V13    10.0   1_545     S
V29     V23    10.0   1_545     S
V30     V31    10.0   .     S
V30     V32    10.0   .     S
V30     V29    10.0   1_556     S
V30     V14    10.0   1_545     S
V30     V24    10.0   1_545     S
V31     V32    10.0   1_554     S
V31     V32    10.0   .     S
V32     V29    10.0   1_556     S
V32     V25    10.0   1_556     S
V32     V31    10.0   1_556     S
V32     V3    10.0   1_556     S
V33     V35    10.0   .     S
V33     V37    10.0   .     S
V33     V36    10.0   .     S
V33     V34    10.0   1_554     S
V33     V34    10.0   .     S
V33     V38    10.0   .     S
V33     V41    10.0   1_545     S
V33     V51    10.0   1_545     S
V34     V36    10.0   .     S
V34     V38    10.0   .     S
V34     V35    10.0   1_556     S
V34     V33    10.0   1_556     S
V34     V37    10.0   1_556     S
V34     V42    10.0   1_545     S
V34     V52    10.0   1_545     S
V35     V39    10.0   .     S
V35     V34    10.0   1_554     S
V35     V36    10.0   .     S
V35     V36    10.0   1_554     S
V35     V40    10.0   1_554     S
V35     V59    10.0   .     S
V35     V49    10.0   .     S
V36     V40    10.0   .     S
V36     V35    10.0   1_556     S
V36     V39    10.0   .     S
V36     V60    10.0   .     S
V36     V50    10.0   .     S
V37     V39    10.0   .     S
V37     V40    10.0   1_554     S
V37     V38    10.0   .     S
V37     V38    10.0   1_554     S
V37     V34    10.0   1_554     S
V37     V9    10.0   1_545     S
V37     V55    10.0   1_545     S
V38     V40    10.0   .     S
V38     V39    10.0   .     S
V38     V37    10.0   1_556     S
V38     V10    10.0   1_545     S
V38     V56    10.0   1_545     S
V39     V40    10.0   1_554     S
V39     V40    10.0   .     S
V39     V53    10.0   .     S
V40     V37    10.0   1_556     S
V40     V39    10.0   1_556     S
V40     V35    10.0   1_556     S
V40     V54    10.0   .     S
V41     V44    10.0   .     S
V41     V46    10.0   .     S
V41     V43    10.0   .     S
V41     V42    10.0   1_554     S
V41     V42    10.0   .     S
V41     V45    10.0   .     S
V41     V33    10.0   1_565     S
V41     V59    10.0   1_565     S
V42     V43    10.0   1_556     S
V42     V45    10.0   1_556     S
V42     V44    10.0   .     S
V42     V41    10.0   1_556     S
V42     V46    10.0   .     S
V42     V34    10.0   1_565     S
V42     V60    10.0   1_565     S
V43     V42    10.0   1_554     S
V43     V48    10.0   1_554     S
V43     V44    10.0   .     S
V43     V44    10.0   1_554     S
V43     V47    10.0   .     S
V43     V52    10.0   1_554     S
V43     V57    10.0   .     S
V44     V47    10.0   .     S
V44     V43    10.0   1_556     S
V44     V48    10.0   .     S
V44     V51    10.0   .     S
V44     V58    10.0   .     S
V45     V48    10.0   1_554     S
V45     V42    10.0   1_554     S
V45     V47    10.0   .     S
V45     V46    10.0   .     S
V45     V46    10.0   1_554     S
V45     V28    10.0   1_664     S
V45     V61    10.0   1_565     S
V46     V47    10.0   .     S
V46     V48    10.0   .     S
V46     V45    10.0   1_556     S
V46     V27    10.0   1_665     S
V46     V62    10.0   1_565     S
V47     V48    10.0   1_554     S
V47     V48    10.0   .     S
V47     V19    10.0   1_655     S
V47     V63    10.0   .     S
V48     V45    10.0   1_556     S
V48     V43    10.0   1_556     S
V48     V47    10.0   1_556     S
V48     V20    10.0   1_655     S
V48     V64    10.0   .     S
V49     V52    10.0   1_554     S
V49     V54    10.0   1_554     S
V49     V51    10.0   .     S
V49     V50    10.0   .     S
V49     V50    10.0   1_554     S
V49     V53    10.0   .     S
V49     V57    10.0   .     S
V50     V51    10.0   .     S
V50     V53    10.0   .     S
V50     V52    10.0   .     S
V50     V49    10.0   1_556     S
V50     V54    10.0   .     S
V50     V58    10.0   .     S
V51     V56    10.0   .     S
V51     V52    10.0   1_554     S
V51     V52    10.0   .     S
V51     V55    10.0   .     S
V51     V33    10.0   1_565     S
V52     V49    10.0   1_556     S
V52     V55    10.0   1_556     S
V52     V51    10.0   1_556     S
V52     V56    10.0   .     S
V52     V43    10.0   1_556     S
V52     V34    10.0   1_565     S
V53     V56    10.0   .     S
V53     V55    10.0   .     S
V53     V54    10.0   1_554     S
V53     V54    10.0   .     S
V54     V55    10.0   1_556     S
V54     V49    10.0   1_556     S
V54     V56    10.0   .     S
V54     V53    10.0   1_556     S
V54     V5    10.0   1_556     S
V55     V54    10.0   1_554     S
V55     V52    10.0   1_554     S
V55     V56    10.0   .     S
V55     V56    10.0   1_554     S
V55     V37    10.0   1_565     S
V56     V55    10.0   1_556     S
V56     V38    10.0   1_565     S
V57     V59    10.0   .     S
V57     V63    10.0   .     S
V57     V60    10.0   1_554     S
V57     V58    10.0   .     S
V57     V58    10.0   1_554     S
V57     V64    10.0   1_554     S
V58     V60    10.0   .     S
V58     V64    10.0   .     S
V58     V59    10.0   .     S
V58     V57    10.0   1_556     S
V58     V63    10.0   .     S
V59     V61    10.0   .     S
V59     V60    10.0   1_554     S
V59     V60    10.0   .     S
V59     V62    10.0   .     S
V59     V41    10.0   1_545     S
V60     V62    10.0   .     S
V60     V57    10.0   1_556     S
V60     V59    10.0   1_556     S
V60     V61    10.0   1_556     S
V60     V42    10.0   1_545     S
V61     V63    10.0   .     S
V61     V64    10.0   1_554     S
V61     V62    10.0   .     S
V61     V62    10.0   1_554     S
V61     V60    10.0   1_554     S
V61     V25    10.0   1_655     S
V61     V45    10.0   1_545     S
V62     V64    10.0   .     S
V62     V63    10.0   .     S
V62     V61    10.0   1_556     S
V62     V26    10.0   1_655     S
V62     V46    10.0   1_545     S
V63     V64    10.0   1_554     S
V63     V64    10.0   .     S
V63     V17    10.0   1_655     S
V64     V61    10.0   1_556     S
V64     V63    10.0   1_556     S
V64     V57    10.0   1_556     S
V64     V18    10.0   1_655     S
