data_sou
_audit_creation_date              2020-02-02
_audit_creation_method            'Pymatgen'
_symmetry_space_group_name_H-M    'P1'
_symmetry_Int_Tables_number       1
loop_
_symmetry_equiv_pos_as_xyz
  x,y,z
_cell_length_a                    32.5335
_cell_length_b                    22.7573
_cell_length_c                    32.677
_cell_angle_alpha                 90.0
_cell_angle_beta                 90.0
_cell_angle_gamma                 90.0
loop_
_atom_site_label
_atom_site_type_symbol
_atom_site_fract_x
_atom_site_fract_y
_atom_site_fract_z
V1     V     0.2355   0.9671   0.0186
V2     V     0.9855   0.7171   0.9814
V3     V     0.7355   0.4671   0.0186
V4     V     0.4855   0.2171   0.9814
V5     V     0.7645   0.7171   0.7686
V6     V     0.5145   0.9671   0.7314
V7     V     0.2645   0.2171   0.7686
V8     V     0.0145   0.4671   0.7314
V9     V     0.7355   0.9671   0.5186
V10     V     0.4855   0.7171   0.4814
V11     V     0.2355   0.4671   0.5186
V12     V     0.9855   0.2171   0.4814
V13     V     0.0145   0.9671   0.2314
V14     V     0.5145   0.4671   0.2314
V15     V     0.2645   0.7171   0.2686
V16     V     0.7645   0.2171   0.2686
V17     V     0.9855   0.5329   0.2686
V18     V     0.7355   0.7829   0.2314
V19     V     0.2355   0.2829   0.2314
V20     V     0.4855   0.0329   0.2686
V21     V     0.0145   0.7829   0.5186
V22     V     0.7645   0.5329   0.4814
V23     V     0.5145   0.2829   0.5186
V24     V     0.2645   0.0329   0.4814
V25     V     0.9855   0.0329   0.7686
V26     V     0.7355   0.2829   0.7314
V27     V     0.2355   0.7829   0.7314
V28     V     0.4855   0.5329   0.7686
V29     V     0.5145   0.7829   0.0186
V30     V     0.2645   0.5329   0.9814
V31     V     0.0145   0.2829   0.0186
V32     V     0.7645   0.0329   0.9814
loop_
_geom_bond_atom_site_label_1
_geom_bond_atom_site_label_2
_geom_bond_distance
_geom_bond_site_symmetry_2
_ccdc_geom_bond_type
V1     V29    10.0   .     S
V1     V30    10.0   1_554     S
V1     V7    10.0   1_564     S
V1     V15    10.0   .     S
V1     V13    10.0   .     S
V1     V2    10.0   1_454     S
V1     V4    10.0   1_564     S
V1     V19    10.0   1_565     S
V2     V30    10.0   1_655     S
V2     V31    10.0   1_656     S
V2     V13    10.0   1_656     S
V2     V1    10.0   1_656     S
V2     V3    10.0   1_556     S
V2     V5    10.0   .     S
V2     V8    10.0   1_655     S
V2     V25    10.0   1_565     S
V3     V31    10.0   1_655     S
V3     V32    10.0   1_554     S
V3     V16    10.0   .     S
V3     V14    10.0   .     S
V3     V2    10.0   1_554     S
V3     V4    10.0   1_554     S
V3     V5    10.0   1_554     S
V3     V18    10.0   .     S
V4     V29    10.0   1_546     S
V4     V32    10.0   .     S
V4     V7    10.0   .     S
V4     V6    10.0   1_545     S
V4     V14    10.0   1_556     S
V4     V3    10.0   1_556     S
V4     V1    10.0   1_546     S
V4     V28    10.0   .     S
V5     V28    10.0   .     S
V5     V26    10.0   .     S
V5     V3    10.0   1_556     S
V5     V8    10.0   1_655     S
V5     V6    10.0   .     S
V5     V9    10.0   .     S
V5     V32    10.0   1_565     S
V6     V27    10.0   .     S
V6     V28    10.0   .     S
V6     V4    10.0   1_565     S
V6     V7    10.0   1_565     S
V6     V9    10.0   .     S
V6     V10    10.0   .     S
V6     V23    10.0   1_565     S
V7     V27    10.0   1_545     S
V7     V25    10.0   1_455     S
V7     V11    10.0   .     S
V7     V1    10.0   1_546     S
V7     V6    10.0   1_545     S
V7     V8    10.0   .     S
V7     V30    10.0   .     S
V8     V26    10.0   1_455     S
V8     V25    10.0   1_455     S
V8     V12    10.0   1_455     S
V8     V11    10.0   .     S
V8     V2    10.0   1_455     S
V8     V5    10.0   1_455     S
V8     V21    10.0   .     S
V9     V21    10.0   1_655     S
V9     V22    10.0   .     S
V9     V16    10.0   1_565     S
V9     V10    10.0   .     S
V9     V12    10.0   1_565     S
V9     V26    10.0   1_565     S
V10     V22    10.0   .     S
V10     V23    10.0   .     S
V10     V11    10.0   .     S
V10     V15    10.0   .     S
V10     V14    10.0   .     S
V10     V20    10.0   1_565     S
V11     V23    10.0   .     S
V11     V24    10.0   .     S
V11     V12    10.0   1_455     S
V11     V15    10.0   .     S
V11     V27    10.0   .     S
V12     V21    10.0   1_645     S
V12     V24    10.0   1_655     S
V12     V8    10.0   1_655     S
V12     V13    10.0   1_645     S
V12     V16    10.0   .     S
V12     V11    10.0   1_655     S
V12     V9    10.0   1_545     S
V12     V17    10.0   .     S
V13     V18    10.0   1_455     S
V13     V17    10.0   1_455     S
V13     V12    10.0   1_465     S
V13     V2    10.0   1_454     S
V13     V15    10.0   .     S
V13     V16    10.0   1_465     S
V13     V31    10.0   1_565     S
V14     V19    10.0   .     S
V14     V20    10.0   .     S
V14     V4    10.0   1_554     S
V14     V15    10.0   .     S
V14     V16    10.0   .     S
V14     V29    10.0   .     S
V15     V17    10.0   1_455     S
V15     V19    10.0   .     S
V15     V24    10.0   1_565     S
V16     V18    10.0   1_545     S
V16     V20    10.0   .     S
V16     V9    10.0   1_545     S
V16     V13    10.0   1_645     S
V16     V22    10.0   .     S
V17     V15    10.0   1_655     S
V17     V13    10.0   1_655     S
V17     V31    10.0   1_655     S
V17     V18    10.0   .     S
V17     V19    10.0   1_655     S
V17     V22    10.0   .     S
V17     V21    10.0   1_655     S
V18     V13    10.0   1_655     S
V18     V16    10.0   1_565     S
V18     V20    10.0   1_565     S
V18     V22    10.0   .     S
V18     V29    10.0   .     S
V18     V32    10.0   1_564     S
V19     V31    10.0   .     S
V19     V30    10.0   1_554     S
V19     V24    10.0   .     S
V19     V17    10.0   1_455     S
V19     V20    10.0   .     S
V19     V1    10.0   1_545     S
V20     V24    10.0   .     S
V20     V23    10.0   .     S
V20     V18    10.0   1_545     S
V20     V29    10.0   1_545     S
V20     V10    10.0   1_545     S
V21     V9    10.0   1_455     S
V21     V12    10.0   1_465     S
V21     V17    10.0   1_455     S
V21     V24    10.0   1_565     S
V21     V22    10.0   1_455     S
V21     V27    10.0   .     S
V21     V25    10.0   1_465     S
V22     V26    10.0   .     S
V22     V21    10.0   1_655     S
V22     V23    10.0   .     S
V23     V26    10.0   .     S
V23     V28    10.0   .     S
V23     V24    10.0   .     S
V23     V6    10.0   1_545     S
V24     V12    10.0   1_455     S
V24     V21    10.0   1_545     S
V24     V27    10.0   1_545     S
V24     V15    10.0   1_545     S
V25     V8    10.0   1_655     S
V25     V7    10.0   1_655     S
V25     V21    10.0   1_645     S
V25     V26    10.0   .     S
V25     V27    10.0   1_645     S
V25     V31    10.0   1_656     S
V25     V32    10.0   .     S
V25     V2    10.0   1_545     S
V26     V8    10.0   1_655     S
V26     V28    10.0   .     S
V26     V32    10.0   .     S
V26     V9    10.0   1_545     S
V27     V7    10.0   1_565     S
V27     V30    10.0   .     S
V27     V24    10.0   1_565     S
V27     V25    10.0   1_465     S
V27     V28    10.0   .     S
V28     V29    10.0   1_556     S
V28     V30    10.0   .     S
V29     V4    10.0   1_564     S
V29     V28    10.0   1_554     S
V29     V20    10.0   1_565     S
V29     V30    10.0   1_554     S
V29     V32    10.0   1_564     S
V30     V2    10.0   1_455     S
V30     V1    10.0   1_556     S
V30     V19    10.0   1_556     S
V30     V29    10.0   1_556     S
V30     V31    10.0   1_556     S
V31     V3    10.0   1_455     S
V31     V2    10.0   1_454     S
V31     V17    10.0   1_455     S
V31     V25    10.0   1_454     S
V31     V30    10.0   1_554     S
V31     V32    10.0   1_454     S
V31     V13    10.0   1_545     S
V32     V3    10.0   1_556     S
V32     V18    10.0   1_546     S
V32     V29    10.0   1_546     S
V32     V31    10.0   1_656     S
V32     V5    10.0   1_545     S
