data_sph
_audit_creation_date              2020-02-02
_audit_creation_method            'Pymatgen'
_symmetry_space_group_name_H-M    'P1'
_symmetry_Int_Tables_number       1
loop_
_symmetry_equiv_pos_as_xyz
  x,y,z
_cell_length_a                    30.267
_cell_length_b                    30.267
_cell_length_c                    30.267
_cell_angle_alpha                 90.0
_cell_angle_beta                 90.0
_cell_angle_gamma                 90.0
loop_
_atom_site_label
_atom_site_type_symbol
_atom_site_fract_x
_atom_site_fract_y
_atom_site_fract_z
Ti1     Ti     0.75   0.25   0.0
Er2     Er     0.9508   0.2992   0.4508
Ti3     Ti     0.25   0.25   0.5
Er4     Er     0.4508   0.2992   0.9508
Ti5     Ti     0.5   0.25   0.25
Ti6     Ti     0.5   0.0   0.0
Ti7     Ti     0.0   0.5   0.0
Er8     Er     0.2992   0.4508   0.9508
Er9     Er     0.9508   0.4508   0.2992
Er10     Er     0.2992   0.7992   0.2992
Ti11     Ti     0.0   0.75   0.25
Er12     Er     0.5492   0.5492   0.2008
Ti13     Ti     0.25   0.5   0.25
Er14     Er     0.9508   0.7992   0.9508
Ti15     Ti     0.5   0.5   0.5
Er16     Er     0.2008   0.5492   0.5492
Ti17     Ti     0.5   0.75   0.75
Er18     Er     0.7992   0.4508   0.4508
Ti19     Ti     0.75   0.5   0.75
Er20     Er     0.7008   0.7008   0.2008
Ti21     Ti     0.75   0.75   0.5
Er22     Er     0.7992   0.7992   0.7992
Er23     Er     0.4508   0.4508   0.7992
Er24     Er     0.7992   0.9508   0.9508
Ti25     Ti     0.75   0.0   0.25
Ti26     Ti     0.0   0.0   0.5
Er27     Er     0.2992   0.9508   0.4508
Er28     Er     0.9508   0.9508   0.7992
Er29     Er     0.2008   0.0492   0.0492
Ti30     Ti     0.0   0.25   0.75
Ti31     Ti     0.25   0.0   0.75
Er32     Er     0.7008   0.2008   0.7008
Er33     Er     0.5492   0.0492   0.7008
Er34     Er     0.2008   0.7008   0.7008
Er35     Er     0.7008   0.0492   0.5492
Er36     Er     0.0492   0.7008   0.5492
Er37     Er     0.0492   0.5492   0.7008
Er38     Er     0.0492   0.0492   0.2008
Er39     Er     0.7008   0.5492   0.0492
Er40     Er     0.5492   0.7008   0.0492
Er41     Er     0.4508   0.7992   0.4508
Ti42     Ti     0.25   0.75   0.0
Er43     Er     0.5492   0.2008   0.5492
Er44     Er     0.0492   0.2008   0.0492
Er45     Er     0.7992   0.2992   0.2992
Er46     Er     0.4508   0.9508   0.2992
Er47     Er     0.2992   0.2992   0.7992
Er48     Er     0.2008   0.2008   0.2008
V49     V     0.0   0.0   0.0
V50     V     0.0   0.25   0.25
V51     V     0.75   0.25   0.5
V52     V     0.75   0.0   0.75
V53     V     0.5   0.75   0.25
V54     V     0.25   0.75   0.5
V55     V     0.25   0.5   0.75
V56     V     0.0   0.5   0.5
V57     V     0.25   0.25   0.0
V58     V     0.25   0.0   0.25
V59     V     0.5   0.25   0.75
V60     V     0.0   0.75   0.75
V61     V     0.75   0.5   0.25
V62     V     0.75   0.75   0.0
V63     V     0.5   0.0   0.5
V64     V     0.5   0.5   0.0
loop_
_geom_bond_atom_site_label_1
_geom_bond_atom_site_label_2
_geom_bond_distance
_geom_bond_site_symmetry_2
_ccdc_geom_bond_type
Ti1     V50    10.701   1_655     S
Ti1     V64    10.701   .     S
Ti1     V61    10.701   .     S
Ti1     V59    10.701   1_554     S
Ti1     V52    10.701   1_554     S
Ti1     V49    10.701   1_655     S
Ti1     Er44    9.299   1_655     S
Ti1     Er45    9.299   .     S
Ti1     Er4    9.299   1_554     S
Ti1     Er39    9.299   .     S
Ti1     Er32    9.299   1_554     S
Ti1     Er24    9.299   1_544     S
Er2     Ti3    9.299   1_655     S
Er2     Ti26    9.299   1_655     S
Er2     Ti30    9.299   1_655     S
Ti3     V58    10.701   .     S
Ti3     V63    10.701   .     S
Ti3     V56    10.701   .     S
Ti3     V59    10.701   .     S
Ti3     V55    10.701   .     S
Ti3     V50    10.701   .     S
Ti3     Er27    9.299   1_545     S
Ti3     Er48    9.299   .     S
Ti3     Er43    9.299   .     S
Ti3     Er2    9.299   1_455     S
Ti3     Er47    9.299   .     S
Ti3     Er16    9.299   .     S
Er4     Ti1    9.299   1_556     S
Er4     Ti5    9.299   1_556     S
Er4     Ti6    9.299   1_556     S
Ti5     V58    10.701   .     S
Ti5     V57    10.701   .     S
Ti5     V63    10.701   .     S
Ti5     V64    10.701   .     S
Ti5     V61    10.701   .     S
Ti5     V51    10.701   .     S
Ti5     Er46    9.299   1_545     S
Ti5     Er48    9.299   .     S
Ti5     Er4    9.299   1_554     S
Ti5     Er43    9.299   .     S
Ti5     Er12    9.299   .     S
Ti5     Er45    9.299   .     S
Ti6     V62    10.701   1_545     S
Ti6     V52    10.701   1_554     S
Ti6     V53    10.701   1_545     S
Ti6     V57    10.701   .     S
Ti6     V59    10.701   1_554     S
Ti6     V58    10.701   .     S
Ti6     Er24    9.299   1_544     S
Ti6     Er40    9.299   1_545     S
Ti6     Er29    9.299   .     S
Ti6     Er33    9.299   1_554     S
Ti6     Er4    9.299   1_554     S
Ti6     Er46    9.299   1_545     S
Ti7     V62    10.701   1_455     S
Ti7     V60    10.701   1_554     S
Ti7     V61    10.701   1_455     S
Ti7     V55    10.701   1_554     S
Ti7     V57    10.701   .     S
Ti7     V50    10.701   .     S
Ti7     Er14    9.299   1_454     S
Ti7     Er39    9.299   1_455     S
Ti7     Er37    9.299   1_554     S
Ti7     Er44    9.299   .     S
Ti7     Er8    9.299   1_554     S
Ti7     Er9    9.299   1_455     S
Er8     Ti7    9.299   1_556     S
Er8     Ti13    9.299   1_556     S
Er8     Ti42    9.299   1_556     S
Er9     Ti7    9.299   1_655     S
Er9     Ti13    9.299   1_655     S
Er9     Ti11    9.299   1_655     S
Er10     Ti13    9.299   .     S
Er10     Ti11    9.299   .     S
Er10     Ti42    9.299   .     S
Ti11     V61    10.701   1_455     S
Ti11     V54    10.701   .     S
Ti11     V56    10.701   .     S
Ti11     V58    10.701   1_565     S
Ti11     V49    10.701   1_565     S
Ti11     V62    10.701   1_455     S
Ti11     Er9    9.299   1_455     S
Ti11     Er20    9.299   1_455     S
Ti11     Er36    9.299   .     S
Ti11     Er38    9.299   1_565     S
Ti11     Er14    9.299   1_454     S
Er12     Ti13    9.299   .     S
Er12     Ti15    9.299   .     S
Ti13     V57    10.701   .     S
Ti13     V50    10.701   .     S
Ti13     V64    10.701   .     S
Ti13     V53    10.701   .     S
Ti13     V54    10.701   .     S
Ti13     V56    10.701   .     S
Ti13     Er8    9.299   1_554     S
Ti13     Er9    9.299   1_455     S
Ti13     Er48    9.299   .     S
Ti13     Er16    9.299   .     S
Er14     Ti7    9.299   1_656     S
Er14     Ti11    9.299   1_656     S
Er14     Ti42    9.299   1_656     S
Ti15     V54    10.701   .     S
Ti15     V53    10.701   .     S
Ti15     V59    10.701   .     S
Ti15     V55    10.701   .     S
Ti15     V51    10.701   .     S
Ti15     V61    10.701   .     S
Ti15     Er41    9.299   .     S
Ti15     Er23    9.299   .     S
Ti15     Er18    9.299   .     S
Ti15     Er43    9.299   .     S
Ti15     Er16    9.299   .     S
Ti17     V52    10.701   1_565     S
Ti17     V62    10.701   1_556     S
Ti17     V63    10.701   1_565     S
Ti17     V54    10.701   .     S
Ti17     V55    10.701   .     S
Ti17     V64    10.701   1_556     S
Ti17     Er22    9.299   .     S
Ti17     Er33    9.299   1_565     S
Ti17     Er41    9.299   .     S
Ti17     Er34    9.299   .     S
Ti17     Er23    9.299   .     S
Ti17     Er40    9.299   1_556     S
Er18     Ti19    9.299   .     S
Er18     Ti21    9.299   .     S
Ti19     V62    10.701   1_556     S
Ti19     V60    10.701   1_655     S
Ti19     V56    10.701   1_655     S
Ti19     V64    10.701   1_556     S
Ti19     V59    10.701   .     S
Ti19     V51    10.701   .     S
Ti19     Er22    9.299   .     S
Ti19     Er37    9.299   1_655     S
Ti19     Er39    9.299   1_556     S
Ti19     Er23    9.299   .     S
Ti19     Er32    9.299   .     S
Er20     Ti11    9.299   1_655     S
Er20     Ti21    9.299   .     S
Er20     Ti25    9.299   1_565     S
Ti21     V60    10.701   1_655     S
Ti21     V52    10.701   1_565     S
Ti21     V53    10.701   .     S
Ti21     V63    10.701   1_565     S
Ti21     V61    10.701   .     S
Ti21     V56    10.701   1_655     S
Ti21     Er22    9.299   .     S
Ti21     Er41    9.299   .     S
Ti21     Er35    9.299   1_565     S
Ti21     Er36    9.299   1_655     S
Er24     Ti1    9.299   1_566     S
Er24     Ti6    9.299   1_566     S
Er24     Ti25    9.299   1_566     S
Ti25     V51    10.701   .     S
Ti25     V63    10.701   .     S
Ti25     V50    10.701   1_655     S
Ti25     V49    10.701   1_655     S
Ti25     V62    10.701   1_545     S
Ti25     V53    10.701   1_545     S
Ti25     Er35    9.299   .     S
Ti25     Er45    9.299   .     S
Ti25     Er38    9.299   1_655     S
Ti25     Er20    9.299   1_545     S
Ti25     Er46    9.299   1_545     S
Ti25     Er24    9.299   1_544     S
Ti26     V52    10.701   1_455     S
Ti26     V60    10.701   1_545     S
Ti26     V51    10.701   1_455     S
Ti26     V58    10.701   .     S
Ti26     V50    10.701   .     S
Ti26     V54    10.701   1_545     S
Ti26     Er28    9.299   1_445     S
Ti26     Er35    9.299   1_455     S
Ti26     Er38    9.299   .     S
Ti26     Er36    9.299   1_545     S
Ti26     Er27    9.299   1_545     S
Ti26     Er2    9.299   1_455     S
Er27     Ti3    9.299   1_565     S
Er27     Ti26    9.299   1_565     S
Er27     Ti31    9.299   1_565     S
Er28     Ti26    9.299   1_665     S
Er28     Ti31    9.299   1_665     S
Er28     Ti30    9.299   1_665     S
Er29     Ti42    9.299   1_545     S
Er29     Ti31    9.299   1_554     S
Ti30     V56    10.701   .     S
Ti30     V55    10.701   .     S
Ti30     V51    10.701   1_455     S
Ti30     V57    10.701   1_556     S
Ti30     V49    10.701   1_556     S
Ti30     V52    10.701   1_455     S
Ti30     Er37    9.299   .     S
Ti30     Er32    9.299   1_455     S
Ti30     Er2    9.299   1_455     S
Ti30     Er44    9.299   1_556     S
Ti30     Er47    9.299   .     S
Ti30     Er28    9.299   1_445     S
Ti31     V57    10.701   1_556     S
Ti31     V63    10.701   .     S
Ti31     V59    10.701   .     S
Ti31     V54    10.701   1_545     S
Ti31     V49    10.701   1_556     S
Ti31     V60    10.701   1_545     S
Ti31     Er47    9.299   .     S
Ti31     Er29    9.299   1_556     S
Ti31     Er33    9.299   .     S
Ti31     Er34    9.299   1_545     S
Ti31     Er27    9.299   1_545     S
Ti31     Er28    9.299   1_445     S
Er32     Ti1    9.299   1_556     S
Er32     Ti30    9.299   1_655     S
Er33     Ti6    9.299   1_556     S
Er33     Ti17    9.299   1_545     S
Er34     Ti42    9.299   1_556     S
Er34     Ti31    9.299   1_565     S
Er35     Ti21    9.299   1_545     S
Er35     Ti26    9.299   1_655     S
Er36     Ti21    9.299   1_455     S
Er36     Ti26    9.299   1_565     S
Er37     Ti7    9.299   1_556     S
Er37     Ti19    9.299   1_455     S
Er38     Ti11    9.299   1_545     S
Er38     Ti25    9.299   1_455     S
Er39     Ti7    9.299   1_655     S
Er39     Ti19    9.299   1_554     S
Er40     Ti6    9.299   1_565     S
Er40     Ti42    9.299   .     S
Er40     Ti17    9.299   1_554     S
Ti42     V58    10.701   1_565     S
Ti42     V49    10.701   1_565     S
Ti42     V60    10.701   1_554     S
Ti42     V55    10.701   1_554     S
Ti42     V53    10.701   .     S
Ti42     V64    10.701   .     S
Ti42     Er29    9.299   1_565     S
Ti42     Er14    9.299   1_454     S
Ti42     Er34    9.299   1_554     S
Ti42     Er8    9.299   1_554     S
Er44     Ti1    9.299   1_455     S
Er44     Ti30    9.299   1_554     S
Er46     Ti5    9.299   1_565     S
Er46     Ti6    9.299   1_565     S
Er46     Ti25    9.299   1_565     S
V49     Ti1    10.701   1_455     S
V49     Ti11    10.701   1_545     S
V49     Ti42    10.701   1_545     S
V49     Ti25    10.701   1_455     S
V49     Ti31    10.701   1_554     S
V49     Ti30    10.701   1_554     S
V50     Ti1    10.701   1_455     S
V50     Ti25    10.701   1_455     S
V51     Ti26    10.701   1_655     S
V51     Ti30    10.701   1_655     S
V52     Ti1    10.701   1_556     S
V52     Ti6    10.701   1_556     S
V52     Ti17    10.701   1_545     S
V52     Ti21    10.701   1_545     S
V52     Ti26    10.701   1_655     S
V52     Ti30    10.701   1_655     S
V53     Ti6    10.701   1_565     S
V53     Ti25    10.701   1_565     S
V54     Ti26    10.701   1_565     S
V54     Ti31    10.701   1_565     S
V55     Ti7    10.701   1_556     S
V55     Ti42    10.701   1_556     S
V56     Ti19    10.701   1_455     S
V56     Ti21    10.701   1_455     S
V57     Ti31    10.701   1_554     S
V57     Ti30    10.701   1_554     S
V58     Ti11    10.701   1_545     S
V58     Ti42    10.701   1_545     S
V59     Ti1    10.701   1_556     S
V59     Ti6    10.701   1_556     S
V60     Ti7    10.701   1_556     S
V60     Ti42    10.701   1_556     S
V60     Ti19    10.701   1_455     S
V60     Ti21    10.701   1_455     S
V60     Ti26    10.701   1_565     S
V60     Ti31    10.701   1_565     S
V61     Ti7    10.701   1_655     S
V61     Ti11    10.701   1_655     S
V62     Ti6    10.701   1_565     S
V62     Ti7    10.701   1_655     S
V62     Ti11    10.701   1_655     S
V62     Ti17    10.701   1_554     S
V62     Ti19    10.701   1_554     S
V62     Ti25    10.701   1_565     S
V63     Ti17    10.701   1_545     S
V63     Ti21    10.701   1_545     S
V64     Ti17    10.701   1_554     S
V64     Ti19    10.701   1_554     S
