data_sppa
_audit_creation_date              2020-02-02
_audit_creation_method            'Pymatgen'
_symmetry_space_group_name_H-M    'P1'
_symmetry_Int_Tables_number       1
loop_
_symmetry_equiv_pos_as_xyz
  x,y,z
_cell_length_a                    47.9852
_cell_length_b                    47.9852
_cell_length_c                    38.0642
_cell_angle_alpha                 90.0
_cell_angle_beta                 90.0
_cell_angle_gamma                 120.0
loop_
_atom_site_label
_atom_site_type_symbol
_atom_site_fract_x
_atom_site_fract_y
_atom_site_fract_z
Er1     Er     0.6822   0.0   0.366
Er2     Er     0.3178   0.3178   0.634
Er3     Er     0.6822   0.6822   0.634
Er4     Er     0.6822   0.0   0.634
Er5     Er     0.3178   0.0   0.634
Er6     Er     0.0   0.6822   0.634
Er7     Er     0.0   0.6822   0.366
Er8     Er     0.3178   0.3178   0.366
Er9     Er     0.6822   0.6822   0.366
Er10     Er     0.3178   0.0   0.366
Er11     Er     0.0   0.3178   0.366
Ce12     Ce     0.5977   0.1954   0.8714
V13     V     0.5591   0.1183   0.6287
Ce14     Ce     0.5977   0.1954   0.1286
V15     V     0.5591   0.1183   0.3713
Ce16     Ce     0.4023   0.8046   0.8714
V17     V     0.4409   0.8817   0.6287
Ce18     Ce     0.4023   0.8046   0.1286
V19     V     0.4409   0.8817   0.3713
Ce20     Ce     0.4023   0.5977   0.8714
V21     V     0.4409   0.5591   0.6287
Ce22     Ce     0.4023   0.5977   0.1286
V23     V     0.4409   0.5591   0.3713
Ce24     Ce     0.5977   0.4023   0.8714
V25     V     0.5591   0.4409   0.6287
Ce26     Ce     0.5977   0.4023   0.1286
V27     V     0.5591   0.4409   0.3713
Ce28     Ce     0.1954   0.5977   0.8714
V29     V     0.1183   0.5591   0.6287
Ce30     Ce     0.1954   0.5977   0.1286
V31     V     0.1183   0.5591   0.3713
Ce32     Ce     0.8046   0.4023   0.8714
V33     V     0.8817   0.4409   0.6287
Ce34     Ce     0.8046   0.4023   0.1286
V35     V     0.8817   0.4409   0.3713
Er36     Er     0.0   0.3178   0.634
Ti37     Ti     0.7897   0.7897   0.1339
Ti38     Ti     0.0   0.7897   0.1339
Ti39     Ti     0.2103   0.2103   0.1339
Ti40     Ti     0.2103   0.0   0.1339
Ti41     Ti     0.0   0.2103   0.1339
Ti42     Ti     0.7897   0.0   0.1339
Ti43     Ti     0.2103   0.2103   0.8661
Ti44     Ti     0.2103   0.0   0.8661
Ti45     Ti     0.0   0.2103   0.8661
Ti46     Ti     0.7897   0.7897   0.8661
Ti47     Ti     0.0   0.7897   0.8661
Ti48     Ti     0.7897   0.0   0.8661
loop_
_geom_bond_atom_site_label_1
_geom_bond_atom_site_label_2
_geom_bond_distance
_geom_bond_site_symmetry_2
_ccdc_geom_bond_type
Er1     V15    10.034   .     S
Er1     V19    10.034   1_545     S
Er1     Er4    10.2   .     S
Er1     Ti42    10.232   .     S
Er2     V21    10.034   .     S
Er2     V25    10.034   .     S
Er2     Er8    10.2   .     S
Er2     Ti43    10.232   .     S
Er3     V25    10.034   .     S
Er3     V21    10.034   .     S
Er3     Er9    10.2   .     S
Er3     Ti46    10.232   .     S
Er4     V17    10.034   1_545     S
Er4     V13    10.034   .     S
Er4     Ti48    10.232   .     S
Er5     V13    10.034   .     S
Er5     V17    10.034   1_545     S
Er5     Er10    10.2   .     S
Er5     Ti44    10.232   .     S
Er6     V29    10.034   .     S
Er6     V33    10.034   1_455     S
Er6     Er7    10.2   .     S
Er6     Ti47    10.232   .     S
Er7     V35    10.034   1_455     S
Er7     V31    10.034   .     S
Er7     Ti38    10.232   .     S
Er8     V27    10.034   .     S
Er8     V23    10.034   .     S
Er8     Ti39    10.232   .     S
Er9     V23    10.034   .     S
Er9     V27    10.034   .     S
Er9     Ti37    10.232   .     S
Er10     V19    10.034   1_545     S
Er10     V15    10.034   .     S
Er10     Ti40    10.232   .     S
Er11     V31    10.034   .     S
Er11     V35    10.034   1_455     S
Er11     Er36    10.2   .     S
Er11     Ti41    10.232   .     S
Ce12     Ce24    9.927   .     S
Ce12     Ce32    9.928   .     S
Ce12     V13    9.78   .     S
Ce12     Ce14    9.787   1_556     S
V13     V17    9.831   1_545     S
V13     V15    9.798   .     S
Ce14     Ce34    9.927   .     S
Ce14     Ce26    9.928   .     S
Ce14     V15    9.78   .     S
Ce14     Ce12    9.787   1_554     S
V15     V19    9.831   1_545     S
Ce16     Ce20    9.927   .     S
Ce16     Ce28    9.927   .     S
Ce16     V17    9.78   .     S
Ce16     Ce18    9.787   1_556     S
V17     V13    9.831   1_565     S
V17     V19    9.798   .     S
V17     Er4    10.034   1_565     S
V17     Er5    10.034   1_565     S
Ce18     Ce22    9.927   .     S
Ce18     Ce30    9.928   .     S
Ce18     Ce16    9.787   1_554     S
Ce18     V19    9.78   .     S
V19     V15    9.831   1_565     S
V19     Er1    10.034   1_565     S
V19     Er10    10.034   1_565     S
Ce20     Ce28    9.928   .     S
Ce20     V21    9.78   .     S
Ce20     Ce22    9.787   1_556     S
V21     V25    9.831   .     S
V21     V23    9.798   .     S
Ce22     Ce30    9.927   .     S
Ce22     Ce20    9.787   1_554     S
Ce22     V23    9.78   .     S
V23     V27    9.831   .     S
Ce24     Ce32    9.927   .     S
Ce24     V25    9.78   .     S
Ce24     Ce26    9.787   1_556     S
V25     V27    9.798   .     S
Ce26     Ce34    9.927   .     S
Ce26     Ce24    9.787   1_554     S
Ce26     V27    9.78   .     S
Ce28     V29    9.78   .     S
Ce28     Ce30    9.787   1_556     S
V29     V33    9.831   1_455     S
V29     V31    9.798   .     S
V29     Er36    10.034   .     S
Ce30     V31    9.78   .     S
Ce30     Ce28    9.787   1_554     S
V31     V35    9.831   1_455     S
Ce32     V33    9.78   .     S
Ce32     Ce34    9.787   1_556     S
V33     V29    9.831   1_655     S
V33     V35    9.798   .     S
V33     Er6    10.034   1_655     S
V33     Er36    10.034   1_655     S
Ce34     Ce32    9.787   1_554     S
Ce34     V35    9.78   .     S
V35     V31    9.831   1_655     S
V35     Er7    10.034   1_655     S
V35     Er11    10.034   1_655     S
Er36     V33    10.034   1_455     S
Er36     Ti45    10.232   .     S
Ti37     Ti42    10.09   1_565     S
Ti37     Ti38    10.09   1_655     S
Ti37     Ti46    10.191   1_554     S
Ti38     Ti40    10.09   1_565     S
Ti38     Ti37    10.09   1_455     S
Ti38     Ti47    10.191   1_554     S
Ti39     Ti40    10.09   .     S
Ti39     Ti41    10.09   .     S
Ti39     Ti43    10.191   1_554     S
Ti40     Ti38    10.09   1_545     S
Ti40     Ti44    10.191   1_554     S
Ti41     Ti42    10.09   1_455     S
Ti41     Ti45    10.191   1_554     S
Ti42     Ti37    10.09   1_545     S
Ti42     Ti41    10.09   1_655     S
Ti42     Ti48    10.191   1_554     S
Ti43     Ti44    10.09   .     S
Ti43     Ti45    10.09   .     S
Ti43     Ti39    10.191   1_556     S
Ti44     Ti47    10.09   1_545     S
Ti44     Ti40    10.191   1_556     S
Ti45     Ti48    10.09   1_455     S
Ti45     Ti41    10.191   1_556     S
Ti46     Ti48    10.09   1_565     S
Ti46     Ti47    10.09   1_655     S
Ti46     Ti37    10.191   1_556     S
Ti47     Ti44    10.09   1_565     S
Ti47     Ti46    10.09   1_455     S
Ti47     Ti38    10.191   1_556     S
Ti48     Ti46    10.09   1_545     S
Ti48     Ti45    10.09   1_655     S
Ti48     Ti42    10.191   1_556     S
