data_sqca
_audit_creation_date              2020-02-02
_audit_creation_method            'Pymatgen'
_symmetry_space_group_name_H-M    'P1'
_symmetry_Int_Tables_number       1
loop_
_symmetry_equiv_pos_as_xyz
  x,y,z
_cell_length_a                    36.2586
_cell_length_b                    36.2586
_cell_length_c                    120.2477
_cell_angle_alpha                 90.0
_cell_angle_beta                 90.0
_cell_angle_gamma                 90.0
loop_
_atom_site_label
_atom_site_type_symbol
_atom_site_fract_x
_atom_site_fract_y
_atom_site_fract_z
V1     V     0.803   0.8879   0.2884
V2     V     0.803   0.6121   0.2884
V3     V     0.3621   0.447   0.4616
V4     V     0.6379   0.447   0.4616
V5     V     0.6379   0.053   0.4616
V6     V     0.3621   0.053   0.4616
Er7     Er     0.1379   0.3879   0.4166
Er8     Er     0.1379   0.3879   0.3334
Er9     Er     0.1379   0.1121   0.4166
Er10     Er     0.1379   0.1121   0.3334
Er11     Er     0.8621   0.3879   0.3334
Er12     Er     0.8621   0.3879   0.4166
Er13     Er     0.8621   0.1121   0.4166
Er14     Er     0.8621   0.1121   0.3334
V15     V     0.197   0.8879   0.2884
V16     V     0.197   0.6121   0.2884
V17     V     0.697   0.8879   0.2116
V18     V     0.697   0.6121   0.2116
V19     V     0.303   0.8879   0.2116
V20     V     0.303   0.6121   0.2116
V21     V     0.8621   0.447   0.0384
V22     V     0.1379   0.447   0.0384
V23     V     0.8621   0.053   0.0384
V24     V     0.1379   0.053   0.0384
Er25     Er     0.3621   0.3879   0.1666
Er26     Er     0.3621   0.3879   0.0834
Er27     Er     0.3621   0.1121   0.0834
Er28     Er     0.3621   0.1121   0.1666
Er29     Er     0.6379   0.3879   0.0834
Er30     Er     0.6379   0.3879   0.1666
Er31     Er     0.6379   0.1121   0.1666
Er32     Er     0.6379   0.1121   0.0834
V33     V     0.8621   0.553   0.9616
V34     V     0.1379   0.553   0.9616
V35     V     0.8621   0.947   0.9616
V36     V     0.1379   0.947   0.9616
V37     V     0.303   0.3879   0.7884
V38     V     0.303   0.1121   0.7884
V39     V     0.697   0.1121   0.7884
V40     V     0.697   0.3879   0.7884
Er41     Er     0.3621   0.8879   0.9166
Er42     Er     0.3621   0.8879   0.8334
Er43     Er     0.6379   0.8879   0.8334
Er44     Er     0.6379   0.8879   0.9166
Er45     Er     0.6379   0.6121   0.9166
Er46     Er     0.6379   0.6121   0.8334
Er47     Er     0.3621   0.6121   0.8334
Er48     Er     0.3621   0.6121   0.9166
V49     V     0.3621   0.553   0.5384
V50     V     0.6379   0.553   0.5384
V51     V     0.3621   0.947   0.5384
V52     V     0.6379   0.947   0.5384
V53     V     0.803   0.1121   0.7116
V54     V     0.803   0.3879   0.7116
V55     V     0.197   0.3879   0.7116
V56     V     0.197   0.1121   0.7116
Er57     Er     0.1379   0.6121   0.5834
Er58     Er     0.1379   0.6121   0.6666
Er59     Er     0.8621   0.6121   0.5834
Er60     Er     0.8621   0.6121   0.6666
Er61     Er     0.8621   0.8879   0.6666
Er62     Er     0.8621   0.8879   0.5834
Er63     Er     0.1379   0.8879   0.5834
Er64     Er     0.1379   0.8879   0.6666
loop_
_geom_bond_atom_site_label_1
_geom_bond_atom_site_label_2
_geom_bond_distance
_geom_bond_site_symmetry_2
_ccdc_geom_bond_type
V1     Er14    10.0   1_565     S
V1     V2    10.0   .     S
V1     V17    10.001   .     S
V2     Er11    10.0   .     S
V2     V18    10.001   .     S
V3     Er7    10.0   .     S
V3     V4    10.0   .     S
V3     V49    10.001   .     S
V4     Er12    10.0   .     S
V4     V50    10.001   .     S
V5     Er13    10.0   .     S
V5     V6    10.0   .     S
V5     V52    10.001   1_545     S
V6     Er9    10.0   .     S
V6     V51    10.001   1_545     S
Er7     Er8    10.0   .     S
Er7     Er12    10.0   1_455     S
Er7     Er9    10.0   .     S
Er8     Er11    10.0   1_455     S
Er8     Er10    10.0   .     S
Er8     V16    10.0   .     S
Er9     Er10    10.0   .     S
Er9     Er13    10.0   1_455     S
Er10     Er14    10.0   1_455     S
Er10     V15    10.0   1_545     S
Er11     Er8    10.0   1_655     S
Er11     Er12    10.0   .     S
Er11     Er14    10.0   .     S
Er12     Er7    10.0   1_655     S
Er12     Er13    10.0   .     S
Er13     Er9    10.0   1_655     S
Er13     Er14    10.0   .     S
Er14     V1    10.0   1_545     S
Er14     Er10    10.0   1_655     S
V15     Er10    10.0   1_565     S
V15     V16    10.0   .     S
V15     V19    10.001   .     S
V16     V20    10.001   .     S
V17     Er31    10.0   1_565     S
V17     V18    10.0   .     S
V18     Er30    10.0   .     S
V19     Er28    10.0   1_565     S
V19     V20    10.0   .     S
V20     Er25    10.0   .     S
V21     Er29    10.0   .     S
V21     V22    10.0   1_655     S
V21     V33    10.001   1_554     S
V22     Er26    10.0   .     S
V22     V21    10.0   1_455     S
V22     V34    10.001   1_554     S
V23     Er32    10.0   .     S
V23     V24    10.0   1_655     S
V23     V35    10.001   1_544     S
V24     Er27    10.0   .     S
V24     V23    10.0   1_455     S
V24     V36    10.001   1_544     S
Er25     Er26    10.0   .     S
Er25     Er28    10.0   .     S
Er25     Er30    10.0   .     S
Er26     Er27    10.0   .     S
Er26     Er29    10.0   .     S
Er27     Er28    10.0   .     S
Er27     Er32    10.0   .     S
Er28     V19    10.0   1_545     S
Er28     Er31    10.0   .     S
Er29     Er30    10.0   .     S
Er29     Er32    10.0   .     S
Er30     Er31    10.0   .     S
Er31     V17    10.0   1_545     S
Er31     Er32    10.0   .     S
V33     V21    10.001   1_556     S
V33     Er45    10.0   .     S
V33     V34    10.0   1_655     S
V34     V22    10.001   1_556     S
V34     Er48    10.0   .     S
V34     V33    10.0   1_455     S
V35     V23    10.001   1_566     S
V35     Er44    10.0   .     S
V35     V36    10.0   1_655     S
V36     V24    10.001   1_566     S
V36     Er41    10.0   .     S
V36     V35    10.0   1_455     S
V37     Er47    10.0   .     S
V37     V38    10.0   .     S
V37     V55    10.001   .     S
V38     Er42    10.0   1_545     S
V38     V56    10.001   .     S
V39     Er43    10.0   1_545     S
V39     V40    10.0   .     S
V39     V53    10.001   .     S
V40     Er46    10.0   .     S
V40     V54    10.001   .     S
Er41     Er42    10.0   .     S
Er41     Er44    10.0   .     S
Er41     Er48    10.0   .     S
Er42     V38    10.0   1_565     S
Er42     Er43    10.0   .     S
Er42     Er47    10.0   .     S
Er43     V39    10.0   1_565     S
Er43     Er44    10.0   .     S
Er43     Er46    10.0   .     S
Er44     Er45    10.0   .     S
Er45     Er46    10.0   .     S
Er45     Er48    10.0   .     S
Er46     Er47    10.0   .     S
Er47     Er48    10.0   .     S
V49     Er57    10.0   .     S
V49     V50    10.0   .     S
V50     Er59    10.0   .     S
V51     V6    10.001   1_565     S
V51     Er63    10.0   .     S
V51     V52    10.0   .     S
V52     Er62    10.0   .     S
V52     V5    10.001   1_565     S
V53     Er61    10.0   1_545     S
V53     V54    10.0   .     S
V54     Er60    10.0   .     S
V55     Er58    10.0   .     S
V55     V56    10.0   .     S
V56     Er64    10.0   1_545     S
Er57     Er58    10.0   .     S
Er57     Er59    10.0   1_455     S
Er57     Er63    10.0   .     S
Er58     Er60    10.0   1_455     S
Er58     Er64    10.0   .     S
Er59     Er57    10.0   1_655     S
Er59     Er60    10.0   .     S
Er59     Er62    10.0   .     S
Er60     Er58    10.0   1_655     S
Er60     Er61    10.0   .     S
Er61     V53    10.0   1_565     S
Er61     Er62    10.0   .     S
Er61     Er64    10.0   1_655     S
Er62     Er63    10.0   1_655     S
Er63     Er64    10.0   .     S
Er63     Er62    10.0   1_455     S
Er64     V56    10.0   1_565     S
Er64     Er61    10.0   1_455     S
