data_sqs
_audit_creation_date              2020-02-02
_audit_creation_method            'Pymatgen'
_symmetry_space_group_name_H-M    'P1'
_symmetry_Int_Tables_number       1
loop_
_symmetry_equiv_pos_as_xyz
  x,y,z
_cell_length_a                    41.0193
_cell_length_b                    41.0193
_cell_length_c                    12.6274
_cell_angle_alpha                 90.0
_cell_angle_beta                 90.0
_cell_angle_gamma                 120.0
loop_
_atom_site_label
_atom_site_type_symbol
_atom_site_fract_x
_atom_site_fract_y
_atom_site_fract_z
Er1     Er     0.189   0.811   0.5
Er2     Er     0.189   0.378   0.5
Er3     Er     0.378   0.189   0.5
Er4     Er     0.811   0.189   0.5
V5     V     0.3781   0.0   0.0
V6     V     0.6219   0.0   0.0
Er7     Er     0.622   0.811   0.5
V8     V     0.0   0.3781   0.0
V9     V     0.0   0.6219   0.0
Er10     Er     0.811   0.622   0.5
V11     V     0.6219   0.6219   0.0
V12     V     0.3781   0.3781   0.0
loop_
_geom_bond_atom_site_label_1
_geom_bond_atom_site_label_2
_geom_bond_distance
_geom_bond_site_symmetry_2
_ccdc_geom_bond_type
Er1     V5    10.0   1_565     S
Er1     V5    10.0   1_566     S
Er1     V9    10.0   1_556     S
Er1     V9    10.0   .     S
Er2     V12    10.0   1_556     S
Er2     V12    10.0   .     S
Er2     V8    10.0   .     S
Er2     V8    10.0   1_556     S
Er3     V5    10.0   1_556     S
Er3     V5    10.0   .     S
Er3     V12    10.0   1_556     S
Er3     V12    10.0   .     S
Er4     V8    10.0   1_656     S
Er4     V8    10.0   1_655     S
Er4     V6    10.0   .     S
Er4     V6    10.0   1_556     S
V5     Er1    10.0   1_545     S
V5     Er1    10.0   1_544     S
V5     Er3    10.0   1_554     S
V5     V6    10.0   .     S
V6     Er4    10.0   1_554     S
V6     Er7    10.0   1_544     S
V6     Er7    10.0   1_545     S
Er7     V6    10.0   1_566     S
Er7     V6    10.0   1_565     S
Er7     V11    10.0   .     S
Er7     V11    10.0   1_556     S
V8     Er4    10.0   1_454     S
V8     Er4    10.0   1_455     S
V8     V9    10.0   .     S
V8     Er2    10.0   1_554     S
V9     Er1    10.0   1_554     S
V9     Er10    10.0   1_455     S
V9     Er10    10.0   1_454     S
Er10     V9    10.0   1_655     S
Er10     V9    10.0   1_656     S
Er10     V11    10.0   1_556     S
Er10     V11    10.0   .     S
V11     Er10    10.0   1_554     S
V11     V12    10.0   .     S
V11     Er7    10.0   1_554     S
V12     Er2    10.0   1_554     S
V12     Er3    10.0   1_554     S
