data_sqsa
_audit_creation_date              2020-02-02
_audit_creation_method            'Pymatgen'
_symmetry_space_group_name_H-M    'P1'
_symmetry_Int_Tables_number       1
loop_
_symmetry_equiv_pos_as_xyz
  x,y,z
_cell_length_a                    93.8695
_cell_length_b                    93.8695
_cell_length_c                    31.7238
_cell_angle_alpha                 90.0
_cell_angle_beta                 90.0
_cell_angle_gamma                 120.0
loop_
_atom_site_label
_atom_site_type_symbol
_atom_site_fract_x
_atom_site_fract_y
_atom_site_fract_z
V1     V     0.5533   0.5533   0.0
V2     V     0.5533   0.0   0.0
Er3     Er     0.5978   0.9385   0.1576
Er4     Er     0.5978   0.9385   0.8424
Er5     Er     0.5978   0.6594   0.1576
Er6     Er     0.5978   0.6594   0.8424
Ti7     Ti     0.5978   0.8522   0.6576
Ti8     Ti     0.5978   0.7456   0.6576
Ti9     Ti     0.5978   0.8522   0.3424
Ti10     Ti     0.5978   0.7456   0.3424
Er11     Er     0.3406   0.4022   0.1576
Er12     Er     0.3406   0.4022   0.8424
Ti13     Ti     0.1478   0.4022   0.6576
Ti14     Ti     0.2544   0.4022   0.6576
Ti15     Ti     0.1478   0.4022   0.3424
Ti16     Ti     0.2544   0.4022   0.3424
Er17     Er     0.0615   0.4022   0.1576
Er18     Er     0.0615   0.4022   0.8424
V19     V     0.0   0.4467   0.0
Er20     Er     0.9385   0.3406   0.1576
Er21     Er     0.9385   0.3406   0.8424
Er22     Er     0.6594   0.0615   0.1576
Er23     Er     0.6594   0.0615   0.8424
Ti24     Ti     0.8522   0.2544   0.6576
Ti25     Ti     0.7456   0.1478   0.6576
Ti26     Ti     0.8522   0.2544   0.3424
Ti27     Ti     0.7456   0.1478   0.3424
V28     V     0.0   0.5533   0.0
Er29     Er     0.6594   0.5978   0.1576
Er30     Er     0.6594   0.5978   0.8424
Ti31     Ti     0.8522   0.5978   0.6576
Ti32     Ti     0.7456   0.5978   0.6576
Ti33     Ti     0.8522   0.5978   0.3424
Ti34     Ti     0.7456   0.5978   0.3424
Er35     Er     0.9385   0.5978   0.1576
Er36     Er     0.9385   0.5978   0.8424
V37     V     0.4467   0.0   0.0
Er38     Er     0.3406   0.9385   0.1576
Er39     Er     0.3406   0.9385   0.8424
Er40     Er     0.0615   0.6594   0.1576
Er41     Er     0.0615   0.6594   0.8424
Ti42     Ti     0.1478   0.7456   0.6576
Ti43     Ti     0.2544   0.8522   0.6576
Ti44     Ti     0.1478   0.7456   0.3424
Ti45     Ti     0.2544   0.8522   0.3424
V46     V     0.4467   0.4467   0.0
Er47     Er     0.4022   0.3406   0.1576
Er48     Er     0.4022   0.3406   0.8424
Er49     Er     0.4022   0.0615   0.1576
Er50     Er     0.4022   0.0615   0.8424
Ti51     Ti     0.4022   0.2544   0.6576
Ti52     Ti     0.4022   0.1478   0.6576
Ti53     Ti     0.4022   0.2544   0.3424
Ti54     Ti     0.4022   0.1478   0.3424
loop_
_geom_bond_atom_site_label_1
_geom_bond_atom_site_label_2
_geom_bond_distance
_geom_bond_site_symmetry_2
_ccdc_geom_bond_type
V1     Er29    10.0   .     S
V1     Er30    10.0   1_554     S
V1     Er5    10.0   .     S
V1     Er6    10.0   1_554     S
V1     V46    10.001   .     S
V2     Er3    10.0   1_545     S
V2     Er4    10.0   1_544     S
V2     Er22    10.0   .     S
V2     Er23    10.0   1_554     S
V2     V37    10.001   .     S
Er3     V2    10.0   1_565     S
Er3     Er22    10.001   1_565     S
Er3     Er4    10.0   1_554     S
Er3     Ti9    10.0   .     S
Er4     V2    10.0   1_566     S
Er4     Er23    10.001   1_565     S
Er4     Er3    10.0   1_556     S
Er4     Ti7    10.0   .     S
Er5     Er29    10.001   .     S
Er5     Er6    10.0   1_554     S
Er5     Ti10    10.0   .     S
Er6     V1    10.0   1_556     S
Er6     Er30    10.001   .     S
Er6     Er5    10.0   1_556     S
Er6     Ti8    10.0   .     S
Ti7     Ti8    9.999   .     S
Ti7     Ti9    10.0   .     S
Ti8     Ti10    10.0   .     S
Ti9     Ti10    9.999   .     S
Er11     Er12    10.0   1_554     S
Er11     Ti16    10.0   .     S
Er11     V46    10.0   .     S
Er11     Er47    10.001   .     S
Er12     Er11    10.0   1_556     S
Er12     Ti14    10.0   .     S
Er12     V46    10.0   1_556     S
Er12     Er48    10.001   .     S
Ti13     Ti14    9.999   .     S
Ti13     Ti15    10.0   .     S
Ti13     Er18    10.0   .     S
Ti14     Ti16    10.0   .     S
Ti15     Ti16    9.999   .     S
Ti15     Er17    10.0   .     S
Er17     Er18    10.0   1_554     S
Er17     V19    10.0   .     S
Er17     Er20    10.001   1_455     S
Er18     Er17    10.0   1_556     S
Er18     V19    10.0   1_556     S
Er18     Er21    10.001   1_455     S
V19     Er20    10.0   1_455     S
V19     Er21    10.0   1_454     S
V19     Er18    10.0   1_554     S
V19     V28    10.001   .     S
Er20     V19    10.0   1_655     S
Er20     Er17    10.001   1_655     S
Er20     Er21    10.0   1_554     S
Er20     Ti26    10.0   .     S
Er21     V19    10.0   1_656     S
Er21     Er18    10.001   1_655     S
Er21     Er20    10.0   1_556     S
Er21     Ti24    10.0   .     S
Er22     Er3    10.001   1_545     S
Er22     Er23    10.0   1_554     S
Er22     Ti27    10.0   .     S
Er23     V2    10.0   1_556     S
Er23     Er4    10.001   1_545     S
Er23     Er22    10.0   1_556     S
Er23     Ti25    10.0   .     S
Ti24     Ti25    9.999   .     S
Ti24     Ti26    10.0   .     S
Ti25     Ti27    10.0   .     S
Ti26     Ti27    9.999   .     S
V28     Er35    10.0   1_455     S
V28     Er40    10.0   .     S
V28     Er36    10.0   1_454     S
V28     Er41    10.0   1_554     S
Er29     Er30    10.0   1_554     S
Er29     Ti34    10.0   .     S
Er30     V1    10.0   1_556     S
Er30     Er29    10.0   1_556     S
Er30     Ti32    10.0   .     S
Ti31     Ti32    9.999   .     S
Ti31     Ti33    10.0   .     S
Ti31     Er36    10.0   .     S
Ti32     Ti34    10.0   .     S
Ti33     Ti34    9.999   .     S
Ti33     Er35    10.0   .     S
Er35     V28    10.0   1_655     S
Er35     Er40    10.001   1_655     S
Er35     Er36    10.0   1_554     S
Er36     V28    10.0   1_656     S
Er36     Er41    10.001   1_655     S
Er36     Er35    10.0   1_556     S
V37     Er49    10.0   .     S
V37     Er50    10.0   1_554     S
V37     Er38    10.0   1_545     S
V37     Er39    10.0   1_544     S
Er38     V37    10.0   1_565     S
Er38     Er49    10.001   1_565     S
Er38     Er39    10.0   1_554     S
Er38     Ti45    10.0   .     S
Er39     V37    10.0   1_566     S
Er39     Er50    10.001   1_565     S
Er39     Er38    10.0   1_556     S
Er39     Ti43    10.0   .     S
Er40     Er35    10.001   1_455     S
Er40     Er41    10.0   1_554     S
Er40     Ti44    10.0   .     S
Er41     V28    10.0   1_556     S
Er41     Er36    10.001   1_455     S
Er41     Er40    10.0   1_556     S
Er41     Ti42    10.0   .     S
Ti42     Ti43    9.999   .     S
Ti42     Ti44    10.0   .     S
Ti43     Ti45    10.0   .     S
Ti44     Ti45    9.999   .     S
V46     Er47    10.0   .     S
V46     Er48    10.0   1_554     S
V46     Er12    10.0   1_554     S
Er47     Er48    10.0   1_554     S
Er47     Ti53    10.0   .     S
Er48     V46    10.0   1_556     S
Er48     Er47    10.0   1_556     S
Er48     Ti51    10.0   .     S
Er49     Er38    10.001   1_545     S
Er49     Er50    10.0   1_554     S
Er49     Ti54    10.0   .     S
Er50     V37    10.0   1_556     S
Er50     Er39    10.001   1_545     S
Er50     Er49    10.0   1_556     S
Er50     Ti52    10.0   .     S
Ti51     Ti52    9.999   .     S
Ti51     Ti53    10.0   .     S
Ti52     Ti54    10.0   .     S
Ti53     Ti54    9.999   .     S
