data_srd
_audit_creation_date              2020-02-02
_audit_creation_method            'Pymatgen'
_symmetry_space_group_name_H-M    'P1'
_symmetry_Int_Tables_number       1
loop_
_symmetry_equiv_pos_as_xyz
  x,y,z
_cell_length_a                    24.8528
_cell_length_b                    24.8528
_cell_length_c                    24.8528
_cell_angle_alpha                 90.0
_cell_angle_beta                 90.0
_cell_angle_gamma                 90.0
loop_
_atom_site_label
_atom_site_type_symbol
_atom_site_fract_x
_atom_site_fract_y
_atom_site_fract_z
Er1     Er     0.75   0.25   0.75
Er2     Er     0.75   0.75   0.25
Er3     Er     0.25   0.75   0.75
Er4     Er     0.25   0.25   0.25
V5     V     0.0   0.25   0.5
V6     V     0.25   0.5   0.0
V7     V     0.5   0.0   0.25
V8     V     0.0   0.75   0.5
V9     V     0.5   0.0   0.75
V10     V     0.75   0.5   0.0
loop_
_geom_bond_atom_site_label_1
_geom_bond_atom_site_label_2
_geom_bond_distance
_geom_bond_site_symmetry_2
_ccdc_geom_bond_type
Er1     V5    8.787   1_655     S
Er1     V9    8.787   .     S
Er1     V10    8.787   1_556     S
Er2     V10    8.787   .     S
Er2     V7    8.787   1_565     S
Er2     V8    8.787   1_655     S
Er3     V6    8.787   1_556     S
Er3     V8    8.787   .     S
Er3     V9    8.787   1_565     S
Er4     V5    8.787   .     S
Er4     V6    8.787   .     S
Er4     V7    8.787   .     S
V5     V8    12.426   .     S
V5     V8    12.426   1_545     S
V5     Er1    8.787   1_455     S
V6     V10    12.426   .     S
V6     V10    12.426   1_455     S
V6     Er3    8.787   1_554     S
V7     V9    12.426   .     S
V7     V9    12.426   1_554     S
V7     Er2    8.787   1_545     S
V8     V5    12.426   1_565     S
V8     Er2    8.787   1_455     S
V9     V7    12.426   1_556     S
V9     Er3    8.787   1_545     S
V10     V6    12.426   1_655     S
V10     Er1    8.787   1_554     S
