data_srra
_audit_creation_date              2020-02-02
_audit_creation_method            'Pymatgen'
_symmetry_space_group_name_H-M    'P1'
_symmetry_Int_Tables_number       1
loop_
_symmetry_equiv_pos_as_xyz
  x,y,z
_cell_length_a                    88.0484
_cell_length_b                    88.0484
_cell_length_c                    88.0484
_cell_angle_alpha                 90.0
_cell_angle_beta                 90.0
_cell_angle_gamma                 90.0
loop_
_atom_site_label
_atom_site_type_symbol
_atom_site_fract_x
_atom_site_fract_y
_atom_site_fract_z
V1     V     0.8734   0.3592   0.6804
Er2     Er     0.7747   0.4147   0.6889
V3     V     0.8734   0.6408   0.8196
Er4     Er     0.7747   0.5853   0.8111
V5     V     0.8766   0.4304   0.8908
Er6     Er     0.9753   0.4389   0.8353
V7     V     0.8766   0.5696   0.6092
Er8     Er     0.9753   0.5611   0.6647
Ti9     Ti     0.9318   0.5   0.75
Ti10     Ti     0.8182   0.5   0.75
V11     V     0.3592   0.8196   0.3734
Er12     Er     0.4147   0.8111   0.2747
V13     V     0.6408   0.6804   0.3734
Er14     Er     0.5853   0.6889   0.2747
V15     V     0.4304   0.6092   0.3766
Er16     Er     0.4389   0.6647   0.4753
V17     V     0.5696   0.8908   0.3766
Er18     Er     0.5611   0.8353   0.4753
Ti19     Ti     0.5   0.75   0.3182
Ti20     Ti     0.5   0.75   0.4318
V21     V     0.1092   0.6234   0.4304
Er22     Er     0.1647   0.5247   0.4389
V23     V     0.3908   0.6234   0.5696
Er24     Er     0.3353   0.5247   0.5611
V25     V     0.1804   0.6266   0.6408
Er26     Er     0.1889   0.7253   0.5853
V27     V     0.3196   0.6266   0.3592
Er28     Er     0.3111   0.7253   0.4147
Ti29     Ti     0.25   0.6818   0.5
Ti30     Ti     0.25   0.5682   0.5
V31     V     0.8592   0.6804   0.6266
Er32     Er     0.9147   0.6889   0.7253
V33     V     0.1408   0.8196   0.6266
Er34     Er     0.0853   0.8111   0.7253
V35     V     0.0696   0.6092   0.6234
Er36     Er     0.0611   0.6647   0.5247
V37     V     0.9304   0.8908   0.6234
Er38     Er     0.9389   0.8353   0.5247
Ti39     Ti     0.0   0.75   0.6818
Ti40     Ti     0.0   0.75   0.5682
V41     V     0.6804   0.3734   0.6408
Er42     Er     0.6889   0.2747   0.5853
V43     V     0.8196   0.3734   0.3592
Er44     Er     0.8111   0.2747   0.4147
V45     V     0.6092   0.3766   0.4304
Er46     Er     0.6647   0.4753   0.4389
V47     V     0.8908   0.3766   0.5696
Er48     Er     0.8353   0.4753   0.5611
Ti49     Ti     0.75   0.3182   0.5
Ti50     Ti     0.75   0.4318   0.5
V51     V     0.6234   0.5696   0.3908
Er52     Er     0.5247   0.5611   0.3353
V53     V     0.6266   0.3592   0.3196
Er54     Er     0.7253   0.4147   0.3111
V55     V     0.6234   0.4304   0.1092
Er56     Er     0.5247   0.4389   0.1647
V57     V     0.6266   0.6408   0.1804
Er58     Er     0.7253   0.5853   0.1889
Ti59     Ti     0.6818   0.5   0.25
Ti60     Ti     0.5682   0.5   0.25
V61     V     0.6804   0.6266   0.8592
Er62     Er     0.6889   0.7253   0.9147
V63     V     0.8196   0.6266   0.1408
Er64     Er     0.8111   0.7253   0.0853
V65     V     0.6092   0.6234   0.0696
Er66     Er     0.6647   0.5247   0.0611
V67     V     0.8908   0.6234   0.9304
Er68     Er     0.8353   0.5247   0.9389
Ti69     Ti     0.75   0.6818   0.0
Ti70     Ti     0.75   0.5682   0.0
V71     V     0.8196   0.8734   0.6408
Er72     Er     0.8111   0.7747   0.5853
V73     V     0.6804   0.8734   0.3592
Er74     Er     0.6889   0.7747   0.4147
V75     V     0.8908   0.8766   0.4304
Er76     Er     0.8353   0.9753   0.4389
V77     V     0.6092   0.8766   0.5696
Er78     Er     0.6647   0.9753   0.5611
Ti79     Ti     0.75   0.9318   0.5
Ti80     Ti     0.75   0.8182   0.5
V81     V     0.3734   0.3592   0.8196
Er82     Er     0.2747   0.4147   0.8111
V83     V     0.3734   0.6408   0.6804
Er84     Er     0.2747   0.5853   0.6889
V85     V     0.3766   0.4304   0.6092
Er86     Er     0.4753   0.4389   0.6647
V87     V     0.3766   0.5696   0.8908
Er88     Er     0.4753   0.5611   0.8353
Ti89     Ti     0.3182   0.5   0.75
Ti90     Ti     0.4318   0.5   0.75
V91     V     0.5696   0.3908   0.6234
Er92     Er     0.5611   0.3353   0.5247
V93     V     0.6408   0.1804   0.6266
Er94     Er     0.5853   0.1889   0.7253
V95     V     0.4304   0.1092   0.6234
Er96     Er     0.4389   0.1647   0.5247
V97     V     0.3592   0.3196   0.6266
Er98     Er     0.4147   0.3111   0.7253
Ti99     Ti     0.5   0.25   0.6818
Ti100     Ti     0.5   0.25   0.5682
V101     V     0.6266   0.8592   0.6804
Er102     Er     0.7253   0.9147   0.6889
V103     V     0.6266   0.1408   0.8196
Er104     Er     0.7253   0.0853   0.8111
V105     V     0.6234   0.0696   0.6092
Er106     Er     0.5247   0.0611   0.6647
V107     V     0.6234   0.9304   0.8908
Er108     Er     0.5247   0.9389   0.8353
Ti109     Ti     0.6818   0.0   0.75
Ti110     Ti     0.5682   0.0   0.75
V111     V     0.8592   0.8196   0.1266
Er112     Er     0.9147   0.8111   0.2253
V113     V     0.1408   0.6804   0.1266
Er114     Er     0.0853   0.6889   0.2253
V115     V     0.9304   0.6092   0.1234
Er116     Er     0.9389   0.6647   0.0247
V117     V     0.0696   0.8908   0.1234
Er118     Er     0.0611   0.8353   0.0247
Ti119     Ti     0.0   0.75   0.0682
Ti120     Ti     0.0   0.75   0.1818
V121     V     0.3734   0.8592   0.1804
Er122     Er     0.2747   0.9147   0.1889
V123     V     0.3734   0.1408   0.3196
Er124     Er     0.2747   0.0853   0.3111
V125     V     0.3766   0.0696   0.1092
Er126     Er     0.4753   0.0611   0.1647
V127     V     0.3766   0.9304   0.3908
Er128     Er     0.4753   0.9389   0.3353
Ti129     Ti     0.3182   0.0   0.25
Ti130     Ti     0.4318   0.0   0.25
V131     V     0.3908   0.8766   0.0696
Er132     Er     0.3353   0.9753   0.0611
V133     V     0.1092   0.8766   0.9304
Er134     Er     0.1647   0.9753   0.9389
V135     V     0.3196   0.8734   0.8592
Er136     Er     0.3111   0.7747   0.9147
V137     V     0.1804   0.8734   0.1408
Er138     Er     0.1889   0.7747   0.0853
Ti139     Ti     0.25   0.9318   0.0
Ti140     Ti     0.25   0.8182   0.0
V141     V     0.3592   0.1804   0.1266
Er142     Er     0.4147   0.1889   0.2253
V143     V     0.4304   0.3908   0.1234
Er144     Er     0.4389   0.3353   0.0247
V145     V     0.5696   0.1092   0.1234
Er146     Er     0.5611   0.1647   0.0247
V147     V     0.6408   0.3196   0.1266
Er148     Er     0.5853   0.3111   0.2253
Ti149     Ti     0.5   0.25   0.0682
Ti150     Ti     0.5   0.25   0.1818
V151     V     0.1266   0.8592   0.8196
Er152     Er     0.2253   0.9147   0.8111
V153     V     0.1266   0.1408   0.6804
Er154     Er     0.2253   0.0853   0.6889
V155     V     0.1234   0.9304   0.6092
Er156     Er     0.0247   0.9389   0.6647
V157     V     0.1234   0.0696   0.8908
Er158     Er     0.0247   0.0611   0.8353
Ti159     Ti     0.0682   0.0   0.75
Ti160     Ti     0.1818   0.0   0.75
V161     V     0.1804   0.3734   0.8592
Er162     Er     0.1889   0.2747   0.9147
V163     V     0.3196   0.3734   0.1408
Er164     Er     0.3111   0.2747   0.0853
V165     V     0.1092   0.3766   0.0696
Er166     Er     0.1647   0.4753   0.0611
V167     V     0.3908   0.3766   0.9304
Er168     Er     0.3353   0.4753   0.9389
Ti169     Ti     0.25   0.3182   0.0
Ti170     Ti     0.25   0.4318   0.0
V171     V     0.0696   0.3908   0.8766
Er172     Er     0.0611   0.3353   0.9753
V173     V     0.1408   0.1804   0.8734
Er174     Er     0.0853   0.1889   0.7747
V175     V     0.9304   0.1092   0.8766
Er176     Er     0.9389   0.1647   0.9753
V177     V     0.8592   0.3196   0.8734
Er178     Er     0.9147   0.3111   0.7747
Ti179     Ti     0.0   0.25   0.9318
Ti180     Ti     0.0   0.25   0.8182
V181     V     0.1266   0.3592   0.1804
Er182     Er     0.2253   0.4147   0.1889
V183     V     0.1266   0.6408   0.3196
Er184     Er     0.2253   0.5853   0.3111
V185     V     0.1234   0.5696   0.1092
Er186     Er     0.0247   0.5611   0.1647
V187     V     0.1234   0.4304   0.3908
Er188     Er     0.0247   0.4389   0.3353
Ti189     Ti     0.0682   0.5   0.25
Ti190     Ti     0.1818   0.5   0.25
V191     V     0.6804   0.1266   0.1408
Er192     Er     0.6889   0.2253   0.0853
V193     V     0.6092   0.1234   0.9304
Er194     Er     0.6647   0.0247   0.9389
V195     V     0.8196   0.1266   0.8592
Er196     Er     0.8111   0.2253   0.9147
V197     V     0.8908   0.1234   0.0696
Er198     Er     0.8353   0.0247   0.0611
Ti199     Ti     0.75   0.0682   0.0
Ti200     Ti     0.75   0.1818   0.0
V201     V     0.1804   0.1266   0.3592
Er202     Er     0.1889   0.2253   0.4147
V203     V     0.1092   0.1234   0.5696
Er204     Er     0.1647   0.0247   0.5611
V205     V     0.3196   0.1266   0.6408
Er206     Er     0.3111   0.2253   0.5853
V207     V     0.3908   0.1234   0.4304
Er208     Er     0.3353   0.0247   0.4389
Ti209     Ti     0.25   0.0682   0.5
Ti210     Ti     0.25   0.1818   0.5
V211     V     0.8592   0.1804   0.3734
Er212     Er     0.9147   0.1889   0.2747
V213     V     0.1408   0.3196   0.3734
Er214     Er     0.0853   0.3111   0.2747
V215     V     0.0696   0.1092   0.3766
Er216     Er     0.0611   0.1647   0.4753
V217     V     0.9304   0.3908   0.3766
Er218     Er     0.9389   0.3353   0.4753
Ti219     Ti     0.0   0.25   0.3182
Ti220     Ti     0.0   0.25   0.4318
V221     V     0.8766   0.0696   0.3908
Er222     Er     0.9753   0.0611   0.3353
V223     V     0.8766   0.9304   0.1092
Er224     Er     0.9753   0.9389   0.1647
V225     V     0.8734   0.8592   0.3196
Er226     Er     0.7747   0.9147   0.3111
V227     V     0.8734   0.1408   0.1804
Er228     Er     0.7747   0.0853   0.1889
Ti229     Ti     0.9318   0.0   0.25
Ti230     Ti     0.8182   0.0   0.25
V231     V     0.5696   0.6092   0.8766
Er232     Er     0.5611   0.6647   0.9753
V233     V     0.6408   0.8196   0.8734
Er234     Er     0.5853   0.8111   0.7747
V235     V     0.3592   0.6804   0.8734
Er236     Er     0.4147   0.6889   0.7747
V237     V     0.4304   0.8908   0.8766
Er238     Er     0.4389   0.8353   0.9753
Ti239     Ti     0.5   0.75   0.9318
Ti240     Ti     0.5   0.75   0.8182
loop_
_geom_bond_atom_site_label_1
_geom_bond_atom_site_label_2
_geom_bond_distance
_geom_bond_site_symmetry_2
_ccdc_geom_bond_type
V1     Er2    9.995   .     S
V1     V47    10.003   .     S
V1     Er178    10.003   .     S
Er2     Ti10    10.001   .     S
Er2     V41    10.003   .     S
V3     Er4    9.995   .     S
V3     V67    10.003   .     S
V3     Er32    10.003   .     S
Er4     Ti10    10.001   .     S
Er4     V61    10.003   .     S
V5     Er6    9.995   .     S
V5     V177    10.003   .     S
V5     Er68    10.003   .     S
Er6     Ti9    10.001   .     S
Er6     V171    10.003   1_655     S
V7     Er8    9.995   .     S
V7     V31    10.003   .     S
V7     Er48    10.003   .     S
Er8     Ti9    10.001   .     S
Er8     V35    10.003   1_655     S
Ti9     Ti10    9.997   .     S
V11     Er12    9.995   .     S
V11     V127    10.003   .     S
V11     Er28    10.003   .     S
Er12     Ti19    10.001   .     S
Er12     V121    10.003   .     S
V13     Er14    9.995   .     S
V13     V51    10.003   .     S
V13     Er74    10.003   .     S
Er14     Ti19    10.001   .     S
Er14     V57    10.003   .     S
V15     Er16    9.995   .     S
V15     V27    10.003   .     S
V15     Er52    10.003   .     S
Er16     Ti20    10.001   .     S
Er16     V23    10.003   .     S
V17     Er18    9.995   .     S
V17     V73    10.003   .     S
V17     Er128    10.003   .     S
Er18     Ti20    10.001   .     S
Er18     V77    10.003   .     S
Ti19     Ti20    9.997   .     S
V21     Er22    9.995   .     S
V21     V183    10.003   .     S
V21     Er36    10.003   .     S
Er22     Ti30    10.001   .     S
Er22     V187    10.003   .     S
V23     Er24    9.995   .     S
V23     V83    10.003   .     S
Er24     Ti30    10.001   .     S
Er24     V85    10.003   .     S
V25     Er26    9.995   .     S
V25     V35    10.003   .     S
V25     Er84    10.003   .     S
Er26     Ti29    10.001   .     S
Er26     V33    10.003   .     S
V27     Er28    9.995   .     S
V27     Er184    10.003   .     S
Er28     Ti29    10.001   .     S
Ti29     Ti30    9.997   .     S
V31     Er32    9.995   .     S
V31     Er72    10.003   .     S
Er32     Ti39    10.001   1_655     S
V33     Er34    9.995   .     S
V33     V155    10.003   .     S
Er34     Ti39    10.001   .     S
Er34     V151    10.003   .     S
V35     Er36    9.995   .     S
V35     Er8    10.003   1_455     S
Er36     Ti40    10.001   .     S
V37     Er38    9.995   .     S
V37     V71    10.003   .     S
V37     Er156    10.003   1_655     S
Er38     Ti40    10.001   1_655     S
Er38     V75    10.003   .     S
Ti39     Ti40    9.997   .     S
Ti39     Er32    10.001   1_455     S
Ti40     Er38    10.001   1_455     S
V41     Er42    9.995   .     S
V41     V91    10.003   .     S
Er42     Ti49    10.001   .     S
Er42     V93    10.003   .     S
V43     Er44    9.995   .     S
V43     V217    10.003   .     S
V43     Er54    10.003   .     S
Er44     Ti49    10.001   .     S
Er44     V211    10.003   .     S
V45     Er46    9.995   .     S
V45     V53    10.003   .     S
V45     Er92    10.003   .     S
Er46     Ti50    10.001   .     S
Er46     V51    10.003   .     S
V47     Er48    9.995   .     S
V47     Er218    10.003   .     S
Er48     Ti50    10.001   .     S
Ti49     Ti50    9.997   .     S
V51     Er52    9.995   .     S
Er52     Ti60    10.001   .     S
V53     Er54    9.995   .     S
V53     Er148    10.003   .     S
Er54     Ti59    10.001   .     S
V55     Er56    9.995   .     S
V55     V147    10.003   .     S
V55     Er66    10.003   .     S
Er56     Ti60    10.001   .     S
Er56     V143    10.003   .     S
V57     Er58    9.995   .     S
V57     V65    10.003   .     S
Er58     Ti59    10.001   .     S
Er58     V63    10.003   .     S
Ti59     Ti60    9.997   .     S
V61     Er62    9.995   .     S
V61     V231    10.003   .     S
Er62     Ti69    10.001   1_556     S
Er62     V233    10.003   .     S
V63     Er64    9.995   .     S
V63     V115    10.003   .     S
Er64     Ti69    10.001   .     S
Er64     V111    10.003   .     S
V65     Er66    9.995   .     S
V65     Er232    10.003   1_554     S
Er66     Ti70    10.001   .     S
V67     Er68    9.995   .     S
V67     Er116    10.003   1_556     S
Er68     Ti70    10.001   1_556     S
Ti69     Ti70    9.997   .     S
Ti69     Er62    10.001   1_554     S
Ti70     Er68    10.001   1_554     S
V71     Er72    9.995   .     S
V71     Er102    10.003   .     S
Er72     Ti80    10.001   .     S
V73     Er74    9.995   .     S
V73     Er226    10.003   .     S
Er74     Ti80    10.001   .     S
V75     Er76    9.995   .     S
V75     V225    10.003   .     S
Er76     Ti79    10.001   .     S
Er76     V221    10.003   1_565     S
V77     Er78    9.995   .     S
V77     V101    10.003   .     S
Er78     Ti79    10.001   .     S
Er78     V105    10.003   1_565     S
Ti79     Ti80    9.997   .     S
V81     Er82    9.995   .     S
V81     V167    10.003   .     S
V81     Er98    10.003   .     S
Er82     Ti89    10.001   .     S
Er82     V161    10.003   .     S
V83     Er84    9.995   .     S
V83     Er236    10.003   .     S
Er84     Ti89    10.001   .     S
V85     Er86    9.995   .     S
V85     V97    10.003   .     S
Er86     Ti90    10.001   .     S
Er86     V91    10.003   .     S
V87     Er88    9.995   .     S
V87     V235    10.003   .     S
V87     Er168    10.003   .     S
Er88     Ti90    10.001   .     S
Er88     V231    10.003   .     S
Ti89     Ti90    9.997   .     S
V91     Er92    9.995   .     S
Er92     Ti100    10.001   .     S
V93     Er94    9.995   .     S
V93     V105    10.003   .     S
Er94     Ti99    10.001   .     S
Er94     V103    10.003   .     S
V95     Er96    9.995   .     S
V95     V205    10.003   .     S
V95     Er106    10.003   .     S
Er96     Ti100    10.001   .     S
Er96     V207    10.003   .     S
V97     Er98    9.995   .     S
V97     Er206    10.003   .     S
Er98     Ti99    10.001   .     S
Ti99     Ti100    9.997   .     S
V101     Er102    9.995   .     S
V101     Er234    10.003   .     S
Er102     Ti109    10.001   1_565     S
V103     Er104    9.995   .     S
V103     V193    10.003   .     S
Er104     Ti109    10.001   .     S
Er104     V195    10.003   .     S
V105     Er106    9.995   .     S
V105     Er78    10.003   1_545     S
Er106     Ti110    10.001   .     S
V107     Er108    9.995   .     S
V107     V233    10.003   .     S
V107     Er194    10.003   1_565     S
Er108     Ti110    10.001   1_565     S
Er108     V237    10.003   .     S
Ti109     Ti110    9.997   .     S
Ti109     Er102    10.001   1_545     S
Ti110     Er108    10.001   1_545     S
V111     Er112    9.995   .     S
V111     V223    10.003   .     S
Er112     Ti120    10.001   1_655     S
Er112     V225    10.003   .     S
V113     Er114    9.995   .     S
V113     V185    10.003   .     S
V113     Er138    10.003   .     S
Er114     Ti120    10.001   .     S
Er114     V183    10.003   .     S
V115     Er116    9.995   .     S
V115     Er186    10.003   1_655     S
Er116     Ti119    10.001   1_655     S
Er116     V67    10.003   1_554     S
V117     Er118    9.995   .     S
V117     V137    10.003   .     S
V117     Er224    10.003   1_455     S
Er118     Ti119    10.001   .     S
Er118     V133    10.003   1_554     S
Ti119     Ti120    9.997   .     S
Ti119     Er116    10.001   1_455     S
Ti120     Er112    10.001   1_455     S
V121     Er122    9.995   .     S
V121     V131    10.003   .     S
Er122     Ti129    10.001   1_565     S
Er122     V137    10.003   .     S
V123     Er124    9.995   .     S
V123     V207    10.003   .     S
V123     Er142    10.003   .     S
Er124     Ti129    10.001   .     S
Er124     V201    10.003   .     S
V125     Er126    9.995   .     S
V125     V141    10.003   .     S
V125     Er132    10.003   1_545     S
Er126     Ti130    10.001   .     S
Er126     V145    10.003   .     S
V127     Er128    9.995   .     S
V127     Er208    10.003   1_565     S
Er128     Ti130    10.001   1_565     S
Ti129     Ti130    9.997   .     S
Ti129     Er122    10.001   1_545     S
Ti130     Er128    10.001   1_545     S
V131     Er132    9.995   .     S
V131     Er238    10.003   1_554     S
Er132     Ti139    10.001   .     S
Er132     V125    10.003   1_565     S
V133     Er134    9.995   .     S
V133     V151    10.003   .     S
V133     Er118    10.003   1_556     S
Er134     Ti139    10.001   1_556     S
Er134     V157    10.003   1_565     S
V135     Er136    9.995   .     S
V135     V237    10.003   .     S
V135     Er152    10.003   .     S
Er136     Ti140    10.001   1_556     S
Er136     V235    10.003   .     S
V137     Er138    9.995   .     S
Er138     Ti140    10.001   .     S
Ti139     Ti140    9.997   .     S
Ti139     Er134    10.001   1_554     S
Ti140     Er136    10.001   1_554     S
V141     Er142    9.995   .     S
V141     Er164    10.003   .     S
Er142     Ti150    10.001   .     S
V143     Er144    9.995   .     S
V143     V163    10.003   .     S
Er144     Ti149    10.001   .     S
Er144     V167    10.003   1_554     S
V145     Er146    9.995   .     S
V145     V191    10.003   .     S
Er146     Ti149    10.001   .     S
Er146     V193    10.003   1_554     S
V147     Er148    9.995   .     S
V147     Er192    10.003   .     S
Er148     Ti150    10.001   .     S
Ti149     Ti150    9.997   .     S
V151     Er152    9.995   .     S
Er152     Ti160    10.001   1_565     S
V153     Er154    9.995   .     S
V153     V203    10.003   .     S
V153     Er174    10.003   .     S
Er154     Ti160    10.001   .     S
Er154     V205    10.003   .     S
V155     Er156    9.995   .     S
V155     Er204    10.003   1_565     S
Er156     Ti159    10.001   1_565     S
Er156     V37    10.003   1_455     S
V157     Er158    9.995   .     S
V157     V173    10.003   .     S
V157     Er134    10.003   1_545     S
Er158     Ti159    10.001   .     S
Er158     V175    10.003   1_455     S
Ti159     Ti160    9.997   .     S
Ti159     Er156    10.001   1_545     S
Ti160     Er152    10.001   1_545     S
V161     Er162    9.995   .     S
V161     V171    10.003   .     S
Er162     Ti169    10.001   1_556     S
Er162     V173    10.003   .     S
V163     Er164    9.995   .     S
V163     Er182    10.003   .     S
Er164     Ti169    10.001   .     S
V165     Er166    9.995   .     S
V165     V181    10.003   .     S
V165     Er172    10.003   1_554     S
Er166     Ti170    10.001   .     S
Er166     V185    10.003   .     S
V167     Er168    9.995   .     S
V167     Er144    10.003   1_556     S
Er168     Ti170    10.001   1_556     S
Ti169     Ti170    9.997   .     S
Ti169     Er162    10.001   1_554     S
Ti170     Er168    10.001   1_554     S
V171     Er172    9.995   .     S
V171     Er6    10.003   1_455     S
Er172     Ti179    10.001   .     S
Er172     V165    10.003   1_556     S
V173     Er174    9.995   .     S
Er174     Ti180    10.001   .     S
V175     Er176    9.995   .     S
V175     V195    10.003   .     S
V175     Er158    10.003   1_655     S
Er176     Ti179    10.001   1_655     S
Er176     V197    10.003   1_556     S
V177     Er178    9.995   .     S
V177     Er196    10.003   .     S
Er178     Ti180    10.001   1_655     S
Ti179     Ti180    9.997   .     S
Ti179     Er176    10.001   1_455     S
Ti180     Er178    10.001   1_455     S
V181     Er182    9.995   .     S
V181     Er214    10.003   .     S
Er182     Ti190    10.001   .     S
V183     Er184    9.995   .     S
Er184     Ti190    10.001   .     S
V185     Er186    9.995   .     S
Er186     Ti189    10.001   .     S
Er186     V115    10.003   1_455     S
V187     Er188    9.995   .     S
V187     V213    10.003   .     S
Er188     Ti189    10.001   .     S
Er188     V217    10.003   1_455     S
Ti189     Ti190    9.997   .     S
V191     Er192    9.995   .     S
V191     Er228    10.003   .     S
Er192     Ti200    10.001   .     S
V193     Er194    9.995   .     S
V193     Er146    10.003   1_556     S
Er194     Ti199    10.001   1_556     S
Er194     V107    10.003   1_545     S
V195     Er196    9.995   .     S
Er196     Ti200    10.001   1_556     S
V197     Er198    9.995   .     S
V197     V227    10.003   .     S
V197     Er176    10.003   1_554     S
Er198     Ti199    10.001   .     S
Er198     V223    10.003   1_545     S
Ti199     Ti200    9.997   .     S
Ti199     Er194    10.001   1_554     S
Ti200     Er196    10.001   1_554     S
V201     Er202    9.995   .     S
V201     V215    10.003   .     S
Er202     Ti210    10.001   .     S
Er202     V213    10.003   .     S
V203     Er204    9.995   .     S
V203     Er216    10.003   .     S
Er204     Ti209    10.001   .     S
Er204     V155    10.003   1_545     S
V205     Er206    9.995   .     S
Er206     Ti210    10.001   .     S
V207     Er208    9.995   .     S
Er208     Ti209    10.001   .     S
Er208     V127    10.003   1_545     S
Ti209     Ti210    9.997   .     S
V211     Er212    9.995   .     S
V211     V221    10.003   .     S
Er212     Ti219    10.001   1_655     S
Er212     V227    10.003   .     S
V213     Er214    9.995   .     S
Er214     Ti219    10.001   .     S
V215     Er216    9.995   .     S
V215     Er222    10.003   1_455     S
Er216     Ti220    10.001   .     S
V217     Er218    9.995   .     S
V217     Er188    10.003   1_655     S
Er218     Ti220    10.001   1_655     S
Ti219     Ti220    9.997   .     S
Ti219     Er212    10.001   1_455     S
Ti220     Er218    10.001   1_455     S
V221     Er222    9.995   .     S
V221     Er76    10.003   1_545     S
Er222     Ti229    10.001   .     S
Er222     V215    10.003   1_655     S
V223     Er224    9.995   .     S
V223     Er198    10.003   1_565     S
Er224     Ti229    10.001   1_565     S
Er224     V117    10.003   1_655     S
V225     Er226    9.995   .     S
Er226     Ti230    10.001   1_565     S
V227     Er228    9.995   .     S
Er228     Ti230    10.001   .     S
Ti229     Ti230    9.997   .     S
Ti229     Er224    10.001   1_545     S
Ti230     Er226    10.001   1_545     S
V231     Er232    9.995   .     S
Er232     Ti239    10.001   .     S
Er232     V65    10.003   1_556     S
V233     Er234    9.995   .     S
Er234     Ti240    10.001   .     S
V235     Er236    9.995   .     S
Er236     Ti240    10.001   .     S
V237     Er238    9.995   .     S
Er238     Ti239    10.001   .     S
Er238     V131    10.003   1_556     S
Ti239     Ti240    9.997   .     S
