data_srsae
_audit_creation_date              2020-02-02
_audit_creation_method            'Pymatgen'
_symmetry_space_group_name_H-M    'P1'
_symmetry_Int_Tables_number       1
loop_
_symmetry_equiv_pos_as_xyz
  x,y,z
_cell_length_a                    65.3199
_cell_length_b                    65.3199
_cell_length_c                    65.3199
_cell_angle_alpha                 90.0
_cell_angle_beta                 90.0
_cell_angle_gamma                 90.0
loop_
_atom_site_label
_atom_site_type_symbol
_atom_site_fract_x
_atom_site_fract_y
_atom_site_fract_z
Er1     Er     0.6875   0.5625   0.625
V2     V     0.625   0.5   0.75
Er3     Er     0.625   0.6875   0.5625
V4     V     0.75   0.625   0.5
V5     V     0.5   0.75   0.625
Er6     Er     0.5625   0.625   0.6875
Er7     Er     0.3125   0.9375   0.625
V8     V     0.375   0.0   0.75
Er9     Er     0.4375   0.875   0.6875
V10     V     0.25   0.875   0.5
Er11     Er     0.375   0.8125   0.5625
Er12     Er     0.0625   0.875   0.3125
Er13     Er     0.125   0.8125   0.4375
Er14     Er     0.9375   0.625   0.3125
V15     V     0.0   0.75   0.375
Er16     Er     0.875   0.6875   0.4375
V17     V     0.875   0.5   0.25
Er18     Er     0.8125   0.5625   0.375
Er19     Er     0.875   0.3125   0.0625
Er20     Er     0.8125   0.4375   0.125
Er21     Er     0.375   0.1875   0.9375
Er22     Er     0.9375   0.375   0.1875
Er23     Er     0.1875   0.9375   0.375
V24     V     0.25   0.125   0.0
V25     V     0.125   0.0   0.25
V26     V     0.0   0.25   0.125
Er27     Er     0.125   0.1875   0.0625
Er28     Er     0.1875   0.0625   0.125
Er29     Er     0.0625   0.125   0.1875
Er30     Er     0.625   0.3125   0.9375
V31     V     0.75   0.375   0.0
Er32     Er     0.6875   0.4375   0.875
V33     V     0.5   0.25   0.875
Er34     Er     0.5625   0.375   0.8125
Er35     Er     0.4375   0.125   0.8125
Er36     Er     0.3125   0.0625   0.875
loop_
_geom_bond_atom_site_label_1
_geom_bond_atom_site_label_2
_geom_bond_distance
_geom_bond_site_symmetry_2
_ccdc_geom_bond_type
Er1     V2    10.0   .     S
Er1     V4    10.0   .     S
Er1     Er6    10.0   .     S
Er1     Er3    10.0   .     S
V2     Er6    10.0   .     S
V2     Er34    10.0   .     S
V2     Er32    10.0   .     S
Er3     V4    10.0   .     S
Er3     V5    10.0   .     S
Er3     Er6    10.0   .     S
V4     Er18    10.0   .     S
V4     Er16    10.0   .     S
V5     Er6    10.0   .     S
V5     Er11    10.0   .     S
V5     Er9    10.0   .     S
Er7     V8    10.0   1_565     S
Er7     Er9    10.0   .     S
Er7     Er11    10.0   .     S
Er7     V10    10.0   .     S
V8     Er7    10.0   1_545     S
V8     Er9    10.0   1_545     S
V8     Er36    10.0   .     S
V8     Er35    10.0   .     S
Er9     V8    10.0   1_565     S
Er9     Er11    10.0   .     S
V10     Er11    10.0   .     S
V10     Er23    10.0   .     S
V10     Er13    10.0   .     S
Er12     Er13    10.0   .     S
Er12     Er23    10.0   .     S
Er12     V15    10.0   .     S
Er12     V25    10.0   1_565     S
Er13     Er23    10.0   .     S
Er13     V15    10.0   .     S
Er14     V15    10.0   1_655     S
Er14     Er18    10.0   .     S
Er14     Er16    10.0   .     S
Er14     V17    10.0   .     S
V15     Er14    10.0   1_455     S
V15     Er16    10.0   1_455     S
Er16     V15    10.0   1_655     S
Er16     Er18    10.0   .     S
V17     Er18    10.0   .     S
V17     Er22    10.0   .     S
V17     Er20    10.0   .     S
Er19     Er22    10.0   .     S
Er19     Er20    10.0   .     S
Er19     V31    10.0   .     S
Er19     V26    10.0   1_655     S
Er20     V31    10.0   .     S
Er20     Er22    10.0   .     S
Er21     V24    10.0   1_556     S
Er21     Er35    10.0   .     S
Er21     Er36    10.0   .     S
Er21     V33    10.0   .     S
Er22     V26    10.0   1_655     S
Er23     V25    10.0   1_565     S
V24     Er21    10.0   1_554     S
V24     Er36    10.0   1_554     S
V24     Er27    10.0   .     S
V24     Er28    10.0   .     S
V25     Er23    10.0   1_545     S
V25     Er12    10.0   1_545     S
V25     Er28    10.0   .     S
V25     Er29    10.0   .     S
V26     Er22    10.0   1_455     S
V26     Er19    10.0   1_455     S
V26     Er29    10.0   .     S
V26     Er27    10.0   .     S
Er27     Er29    10.0   .     S
Er27     Er28    10.0   .     S
Er28     Er29    10.0   .     S
Er30     V31    10.0   1_556     S
Er30     Er32    10.0   .     S
Er30     Er34    10.0   .     S
Er30     V33    10.0   .     S
V31     Er30    10.0   1_554     S
V31     Er32    10.0   1_554     S
Er32     V31    10.0   1_556     S
Er32     Er34    10.0   .     S
V33     Er34    10.0   .     S
V33     Er35    10.0   .     S
Er35     Er36    10.0   .     S
Er36     V24    10.0   1_556     S
