data_ssa
_audit_creation_date              2020-02-02
_audit_creation_method            'Pymatgen'
_symmetry_space_group_name_H-M    'P1'
_symmetry_Int_Tables_number       1
loop_
_symmetry_equiv_pos_as_xyz
  x,y,z
_cell_length_a                    32.6557
_cell_length_b                    32.6557
_cell_length_c                    23.0999
_cell_angle_alpha                 90.0
_cell_angle_beta                 90.0
_cell_angle_gamma                 120.0
loop_
_atom_site_label
_atom_site_type_symbol
_atom_site_fract_x
_atom_site_fract_y
_atom_site_fract_z
V1     V     0.5   0.0   0.0
Er2     Er     0.5   0.75   0.25
Er3     Er     0.5   0.25   0.75
Er4     Er     0.75   0.25   0.75
Er5     Er     0.25   0.75   0.25
V6     V     0.0   0.5   0.0
V7     V     0.0   0.5   0.5
Er8     Er     0.25   0.5   0.25
Er9     Er     0.75   0.5   0.75
V10     V     0.5   0.5   0.0
V11     V     0.5   0.5   0.5
V12     V     0.5   0.0   0.5
loop_
_geom_bond_atom_site_label_1
_geom_bond_atom_site_label_2
_geom_bond_distance
_geom_bond_site_symmetry_2
_ccdc_geom_bond_type
V1     Er5    10.0   1_545     S
V1     Er2    10.0   1_545     S
V1     Er3    10.0   1_554     S
V1     Er4    10.0   1_554     S
Er2     V1    10.0   1_565     S
Er2     V11    10.0   .     S
Er2     V10    10.0   .     S
Er2     V12    10.0   1_565     S
Er3     V1    10.0   1_556     S
Er3     V11    10.0   .     S
Er3     V10    10.0   1_556     S
Er3     V12    10.0   .     S
Er4     V1    10.0   1_556     S
Er4     V6    10.0   1_656     S
Er4     V7    10.0   1_655     S
Er4     V12    10.0   .     S
Er5     V1    10.0   1_565     S
Er5     V7    10.0   .     S
Er5     V6    10.0   .     S
Er5     V12    10.0   1_565     S
V6     Er4    10.0   1_454     S
V6     Er9    10.0   1_454     S
V6     Er8    10.0   .     S
V7     Er9    10.0   1_455     S
V7     Er4    10.0   1_455     S
V7     Er8    10.0   .     S
Er8     V11    10.0   .     S
Er8     V10    10.0   .     S
Er9     V11    10.0   .     S
Er9     V10    10.0   1_556     S
Er9     V6    10.0   1_656     S
Er9     V7    10.0   1_655     S
V10     Er9    10.0   1_554     S
V10     Er3    10.0   1_554     S
V12     Er2    10.0   1_545     S
V12     Er5    10.0   1_545     S
