data_ssb
_audit_creation_date              2020-02-02
_audit_creation_method            'Pymatgen'
_symmetry_space_group_name_H-M    'P1'
_symmetry_Int_Tables_number       1
loop_
_symmetry_equiv_pos_as_xyz
  x,y,z
_cell_length_a                    32.6599
_cell_length_b                    32.6599
_cell_length_c                    23.094
_cell_angle_alpha                 90.0
_cell_angle_beta                 90.0
_cell_angle_gamma                 90.0
loop_
_atom_site_label
_atom_site_type_symbol
_atom_site_fract_x
_atom_site_fract_y
_atom_site_fract_z
Er1     Er     0.5   0.25   0.0
Er2     Er     0.25   0.5   0.0
Er3     Er     0.5   0.75   0.0
Er4     Er     0.75   0.5   0.0
Er5     Er     0.25   0.0   0.5
Er6     Er     0.0   0.75   0.5
Er7     Er     0.75   0.0   0.5
Er8     Er     0.0   0.25   0.5
V9     V     0.25   0.25   0.25
V10     V     0.75   0.25   0.25
V11     V     0.75   0.25   0.75
V12     V     0.75   0.75   0.25
V13     V     0.75   0.75   0.75
V14     V     0.25   0.75   0.25
V15     V     0.25   0.75   0.75
V16     V     0.25   0.25   0.75
loop_
_geom_bond_atom_site_label_1
_geom_bond_atom_site_label_2
_geom_bond_distance
_geom_bond_site_symmetry_2
_ccdc_geom_bond_type
Er1     V16    10.0   1_554     S
Er1     V11    10.0   1_554     S
Er1     V10    10.0   .     S
Er1     V9    10.0   .     S
Er2     V15    10.0   1_554     S
Er2     V16    10.0   1_554     S
Er2     V9    10.0   .     S
Er2     V14    10.0   .     S
Er3     V13    10.0   1_554     S
Er3     V15    10.0   1_554     S
Er3     V14    10.0   .     S
Er3     V12    10.0   .     S
Er4     V11    10.0   1_554     S
Er4     V13    10.0   1_554     S
Er4     V12    10.0   .     S
Er4     V10    10.0   .     S
Er5     V14    10.0   1_545     S
Er5     V15    10.0   1_545     S
Er5     V16    10.0   .     S
Er5     V9    10.0   .     S
Er6     V12    10.0   1_455     S
Er6     V13    10.0   1_455     S
Er6     V15    10.0   .     S
Er6     V14    10.0   .     S
Er7     V13    10.0   1_545     S
Er7     V12    10.0   1_545     S
Er7     V10    10.0   .     S
Er7     V11    10.0   .     S
Er8     V11    10.0   1_455     S
Er8     V10    10.0   1_455     S
Er8     V9    10.0   .     S
Er8     V16    10.0   .     S
V10     Er8    10.0   1_655     S
V11     Er1    10.0   1_556     S
V11     Er4    10.0   1_556     S
V11     Er8    10.0   1_655     S
V12     Er6    10.0   1_655     S
V12     Er7    10.0   1_565     S
V13     Er3    10.0   1_556     S
V13     Er4    10.0   1_556     S
V13     Er6    10.0   1_655     S
V13     Er7    10.0   1_565     S
V14     Er5    10.0   1_565     S
V15     Er2    10.0   1_556     S
V15     Er3    10.0   1_556     S
V15     Er5    10.0   1_565     S
V16     Er1    10.0   1_556     S
V16     Er2    10.0   1_556     S
