data_ssc
_audit_creation_date              2020-02-02
_audit_creation_method            'Pymatgen'
_symmetry_space_group_name_H-M    'P1'
_symmetry_Int_Tables_number       1
loop_
_symmetry_equiv_pos_as_xyz
  x,y,z
_cell_length_a                    21.3809
_cell_length_b                    21.3809
_cell_length_c                    21.3809
_cell_angle_alpha                 90.0
_cell_angle_beta                 90.0
_cell_angle_gamma                 90.0
loop_
_atom_site_label
_atom_site_type_symbol
_atom_site_fract_x
_atom_site_fract_y
_atom_site_fract_z
V1     V     0.625   0.5   0.75
V2     V     0.75   0.625   0.5
V3     V     0.5   0.75   0.625
V4     V     0.875   0.5   0.25
V5     V     0.75   0.375   0.0
V6     V     0.375   0.0   0.75
V7     V     0.5   0.25   0.875
V8     V     0.25   0.125   0.0
Er9     Er     0.125   0.5   0.75
Er10     Er     0.0   0.75   0.875
V11     V     0.25   0.875   0.5
V12     V     0.0   0.75   0.375
V13     V     0.0   0.25   0.125
Er14     Er     0.875   0.0   0.75
V15     V     0.125   0.0   0.25
Er16     Er     0.75   0.875   0.0
Er17     Er     0.0   0.25   0.625
Er18     Er     0.5   0.75   0.125
Er19     Er     0.5   0.25   0.375
Er20     Er     0.625   0.0   0.25
Er21     Er     0.25   0.375   0.5
Er22     Er     0.25   0.625   0.0
Er23     Er     0.375   0.5   0.25
Er24     Er     0.75   0.125   0.5
loop_
_geom_bond_atom_site_label_1
_geom_bond_atom_site_label_2
_geom_bond_distance
_geom_bond_site_symmetry_2
_ccdc_geom_bond_type
V1     Er22    10.0   1_556     S
V1     Er21    10.0   .     S
V1     Er17    10.0   1_655     S
V1     Er10    10.0   1_655     S
V2     Er17    10.0   1_655     S
V2     Er19    10.0   .     S
V2     Er20    10.0   1_565     S
V2     Er14    10.0   1_565     S
V3     Er22    10.0   1_556     S
V3     Er20    10.0   1_565     S
V3     Er23    10.0   .     S
V3     Er16    10.0   1_556     S
V4     Er19    10.0   .     S
V4     Er18    10.0   .     S
V4     Er22    10.0   1_655     S
V4     Er21    10.0   1_655     S
V5     Er18    10.0   .     S
V5     Er10    10.0   1_654     S
V5     Er20    10.0   .     S
V5     Er14    10.0   1_554     S
V6     Er24    10.0   .     S
V6     Er16    10.0   1_546     S
V6     Er10    10.0   1_545     S
V6     Er17    10.0   .     S
V7     Er21    10.0   .     S
V7     Er24    10.0   .     S
V7     Er20    10.0   1_556     S
V7     Er23    10.0   1_556     S
V8     Er10    10.0   1_544     S
V8     Er9    10.0   1_554     S
V8     Er23    10.0   .     S
V8     Er18    10.0   1_545     S
Er9     V12    10.0   .     S
Er9     V11    10.0   .     S
Er9     V13    10.0   1_556     S
Er9     V8    10.0   1_556     S
Er10     V5    10.0   1_456     S
Er10     V1    10.0   1_455     S
Er10     V8    10.0   1_566     S
Er10     V6    10.0   1_565     S
V11     Er23    10.0   .     S
V11     Er17    10.0   1_565     S
V11     Er19    10.0   1_565     S
V12     Er22    10.0   .     S
V12     Er14    10.0   1_465     S
V12     Er16    10.0   1_455     S
V13     Er9    10.0   1_554     S
V13     Er21    10.0   .     S
V13     Er14    10.0   1_454     S
V13     Er24    10.0   1_455     S
Er14     V12    10.0   1_645     S
Er14     V2    10.0   1_545     S
Er14     V13    10.0   1_656     S
Er14     V5    10.0   1_556     S
V15     Er24    10.0   1_455     S
V15     Er19    10.0   .     S
V15     Er18    10.0   1_545     S
V15     Er16    10.0   1_445     S
Er16     V3    10.0   1_554     S
Er16     V6    10.0   1_564     S
Er16     V12    10.0   1_655     S
Er16     V15    10.0   1_665     S
Er17     V2    10.0   1_455     S
Er17     V1    10.0   1_455     S
Er17     V11    10.0   1_545     S
Er18     V8    10.0   1_565     S
Er18     V15    10.0   1_565     S
Er19     V11    10.0   1_545     S
Er20     V3    10.0   1_545     S
Er20     V2    10.0   1_545     S
Er20     V7    10.0   1_554     S
Er21     V4    10.0   1_455     S
Er22     V3    10.0   1_554     S
Er22     V1    10.0   1_554     S
Er22     V4    10.0   1_455     S
Er23     V7    10.0   1_554     S
Er24     V13    10.0   1_655     S
Er24     V15    10.0   1_655     S
