data_ssde
_audit_creation_date              2020-02-02
_audit_creation_method            'Pymatgen'
_symmetry_space_group_name_H-M    'P1'
_symmetry_Int_Tables_number       1
loop_
_symmetry_equiv_pos_as_xyz
  x,y,z
_cell_length_a                    42.4264
_cell_length_b                    42.4264
_cell_length_c                    42.4264
_cell_angle_alpha                 90.0
_cell_angle_beta                 90.0
_cell_angle_gamma                 90.0
loop_
_atom_site_label
_atom_site_type_symbol
_atom_site_fract_x
_atom_site_fract_y
_atom_site_fract_z
Er1     Er     0.5   0.6667   0.0
V2     V     0.8333   0.6667   0.0
V3     V     0.6667   0.8333   0.0
Er4     Er     0.6667   0.5   0.0
V5     V     0.6667   0.1667   0.0
V6     V     0.8333   0.3333   0.0
Er7     Er     0.5   0.3333   0.0
V8     V     0.1667   0.3333   0.0
V9     V     0.3333   0.1667   0.0
V10     V     0.1667   0.6667   0.0
V11     V     0.3333   0.8333   0.0
Er12     Er     0.3333   0.5   0.0
Er13     Er     0.5   0.0   0.6667
V14     V     0.8333   0.0   0.6667
V15     V     0.6667   0.0   0.8333
Er16     Er     0.6667   0.0   0.5
V17     V     0.1667   0.0   0.6667
V18     V     0.3333   0.0   0.8333
Er19     Er     0.3333   0.0   0.5
V20     V     0.3333   0.0   0.1667
V21     V     0.1667   0.0   0.3333
V22     V     0.6667   0.0   0.1667
V23     V     0.8333   0.0   0.3333
Er24     Er     0.5   0.0   0.3333
Er25     Er     0.0   0.5   0.6667
V26     V     0.0   0.8333   0.6667
V27     V     0.0   0.6667   0.8333
Er28     Er     0.0   0.6667   0.5
V29     V     0.0   0.6667   0.1667
V30     V     0.0   0.8333   0.3333
Er31     Er     0.0   0.5   0.3333
V32     V     0.0   0.1667   0.6667
V33     V     0.0   0.3333   0.8333
V34     V     0.0   0.1667   0.3333
V35     V     0.0   0.3333   0.1667
Er36     Er     0.0   0.3333   0.5
loop_
_geom_bond_atom_site_label_1
_geom_bond_atom_site_label_2
_geom_bond_distance
_geom_bond_site_symmetry_2
_ccdc_geom_bond_type
Er1     V3    10.0   .     S
Er1     V11    10.0   .     S
Er1     Er12    10.0   .     S
Er1     Er4    10.0   .     S
V2     V3    10.0   .     S
V2     V29    10.0   1_655     S
V2     Er4    10.0   .     S
V2     V27    10.0   1_654     S
V3     V22    10.0   1_565     S
V3     V15    10.0   1_564     S
Er4     V6    10.0   .     S
Er4     Er7    10.0   .     S
V5     V6    10.0   .     S
V5     Er7    10.0   .     S
V5     V15    10.0   1_554     S
V5     V22    10.0   .     S
V6     V35    10.0   1_655     S
V6     V33    10.0   1_654     S
Er7     V9    10.0   .     S
Er7     Er12    10.0   .     S
V8     V9    10.0   .     S
V8     Er12    10.0   .     S
V8     V33    10.0   1_554     S
V8     V35    10.0   .     S
V9     V18    10.0   1_554     S
V9     V20    10.0   .     S
V10     V11    10.0   .     S
V10     Er12    10.0   .     S
V10     V27    10.0   1_554     S
V10     V29    10.0   .     S
V11     V20    10.0   1_565     S
V11     V18    10.0   1_564     S
Er13     V18    10.0   .     S
Er13     V15    10.0   .     S
Er13     Er19    10.0   .     S
Er13     Er16    10.0   .     S
V14     V15    10.0   .     S
V14     V32    10.0   1_655     S
V14     Er16    10.0   .     S
V14     V26    10.0   1_645     S
V15     V5    10.0   1_556     S
V15     V3    10.0   1_546     S
Er16     V23    10.0   .     S
Er16     Er24    10.0   .     S
V17     V18    10.0   .     S
V17     Er19    10.0   .     S
V17     V26    10.0   1_545     S
V17     V32    10.0   .     S
V18     V9    10.0   1_556     S
V18     V11    10.0   1_546     S
Er19     V21    10.0   .     S
Er19     Er24    10.0   .     S
V20     V11    10.0   1_545     S
V20     V21    10.0   .     S
V20     Er24    10.0   .     S
V21     V30    10.0   1_545     S
V21     V34    10.0   .     S
V22     V3    10.0   1_545     S
V22     V23    10.0   .     S
V22     Er24    10.0   .     S
V23     V34    10.0   1_655     S
V23     V30    10.0   1_645     S
Er25     V33    10.0   .     S
Er25     V27    10.0   .     S
Er25     Er28    10.0   .     S
Er25     Er36    10.0   .     S
V26     V27    10.0   .     S
V26     V17    10.0   1_565     S
V26     Er28    10.0   .     S
V26     V14    10.0   1_465     S
V27     V10    10.0   1_556     S
V27     V2    10.0   1_456     S
Er28     V30    10.0   .     S
Er28     Er31    10.0   .     S
V29     V2    10.0   1_455     S
V29     V30    10.0   .     S
V29     Er31    10.0   .     S
V30     V21    10.0   1_565     S
V30     V23    10.0   1_465     S
Er31     V35    10.0   .     S
Er31     Er36    10.0   .     S
V32     V14    10.0   1_455     S
V32     V33    10.0   .     S
V32     Er36    10.0   .     S
V33     V8    10.0   1_556     S
V33     V6    10.0   1_456     S
V34     V23    10.0   1_455     S
V34     V35    10.0   .     S
V34     Er36    10.0   .     S
V35     V6    10.0   1_455     S
