data_ssf
_audit_creation_date              2020-02-02
_audit_creation_method            'Pymatgen'
_symmetry_space_group_name_H-M    'P1'
_symmetry_Int_Tables_number       1
loop_
_symmetry_equiv_pos_as_xyz
  x,y,z
_cell_length_a                    40.0
_cell_length_b                    40.0
_cell_length_c                    20.0
_cell_angle_alpha                 90.0
_cell_angle_beta                 90.0
_cell_angle_gamma                 90.0
loop_
_atom_site_label
_atom_site_type_symbol
_atom_site_fract_x
_atom_site_fract_y
_atom_site_fract_z
Er1     Er     0.3748   0.875   0.0
Er2     Er     0.3748   0.875   0.5
Er3     Er     0.3748   0.125   0.0
Er4     Er     0.3748   0.125   0.5
Er5     Er     0.875   0.6252   0.0
Er6     Er     0.875   0.6252   0.5
Er7     Er     0.125   0.6252   0.0
Er8     Er     0.125   0.6252   0.5
Er9     Er     0.6252   0.125   0.0
Er10     Er     0.6252   0.125   0.5
Er11     Er     0.6252   0.875   0.0
Er12     Er     0.6252   0.875   0.5
V13     V     0.375   0.375   0.0
V14     V     0.375   0.375   0.5
V15     V     0.375   0.625   0.0
V16     V     0.375   0.625   0.5
V17     V     0.625   0.375   0.0
V18     V     0.625   0.375   0.5
V19     V     0.625   0.625   0.0
V20     V     0.625   0.625   0.5
Er21     Er     0.125   0.3748   0.0
Er22     Er     0.125   0.3748   0.5
Er23     Er     0.875   0.3748   0.0
Er24     Er     0.875   0.3748   0.5
loop_
_geom_bond_atom_site_label_1
_geom_bond_atom_site_label_2
_geom_bond_distance
_geom_bond_site_symmetry_2
_ccdc_geom_bond_type
Er1     Er3    10.0   1_565     S
Er1     Er2    10.0   .     S
Er1     Er2    10.0   1_554     S
Er1     V15    10.0   .     S
Er2     Er4    10.0   1_565     S
Er2     Er1    10.0   1_556     S
Er2     V16    10.0   .     S
Er3     Er1    10.0   1_545     S
Er3     Er4    10.0   .     S
Er3     Er4    10.0   1_554     S
Er3     V13    10.0   .     S
Er4     Er2    10.0   1_545     S
Er4     Er3    10.0   1_556     S
Er4     V14    10.0   .     S
Er5     Er7    10.0   1_655     S
Er5     Er6    10.0   .     S
Er5     Er6    10.0   1_554     S
Er5     V19    10.0   .     S
Er6     Er8    10.0   1_655     S
Er6     Er5    10.0   1_556     S
Er6     V20    10.0   .     S
Er7     Er5    10.0   1_455     S
Er7     Er8    10.0   .     S
Er7     Er8    10.0   1_554     S
Er7     V15    10.0   .     S
Er8     Er6    10.0   1_455     S
Er8     Er7    10.0   1_556     S
Er8     V16    10.0   .     S
Er9     Er11    10.0   1_545     S
Er9     Er10    10.0   .     S
Er9     Er10    10.0   1_554     S
Er9     V17    10.0   .     S
Er10     Er12    10.0   1_545     S
Er10     Er9    10.0   1_556     S
Er10     V18    10.0   .     S
Er11     Er9    10.0   1_565     S
Er11     Er12    10.0   .     S
Er11     Er12    10.0   1_554     S
Er11     V19    10.0   .     S
Er12     Er10    10.0   1_565     S
Er12     Er11    10.0   1_556     S
Er12     V20    10.0   .     S
V13     V15    10.0   .     S
V13     V17    10.0   .     S
V13     Er21    10.0   .     S
V14     V16    10.0   .     S
V14     V18    10.0   .     S
V14     Er22    10.0   .     S
V15     V19    10.0   .     S
V16     V20    10.0   .     S
V17     V19    10.0   .     S
V17     Er23    10.0   .     S
V18     V20    10.0   .     S
V18     Er24    10.0   .     S
Er21     Er23    10.0   1_455     S
Er21     Er22    10.0   .     S
Er21     Er22    10.0   1_554     S
Er22     Er24    10.0   1_455     S
Er22     Er21    10.0   1_556     S
Er23     Er21    10.0   1_655     S
Er23     Er24    10.0   .     S
Er23     Er24    10.0   1_554     S
Er24     Er22    10.0   1_655     S
Er24     Er23    10.0   1_556     S
