data_ssfe
_audit_creation_date              2020-02-02
_audit_creation_method            'Pymatgen'
_symmetry_space_group_name_H-M    'P1'
_symmetry_Int_Tables_number       1
loop_
_symmetry_equiv_pos_as_xyz
  x,y,z
_cell_length_a                    56.4293
_cell_length_b                    56.4293
_cell_length_c                    14.2104
_cell_angle_alpha                 90.0
_cell_angle_beta                 90.0
_cell_angle_gamma                 90.0
loop_
_atom_site_label
_atom_site_type_symbol
_atom_site_fract_x
_atom_site_fract_y
_atom_site_fract_z
Er1     Er     0.8747   0.7494   0.0
Ti2     Ti     0.8768   0.6247   0.5
Er3     Er     0.8747   0.2506   0.0
Ti4     Ti     0.8768   0.3753   0.5
Ce5     Ce     0.8771   0.5   0.0
Er6     Er     0.7494   0.8747   0.0
Ti7     Ti     0.6247   0.8768   0.5
Er8     Er     0.2506   0.8747   0.0
Ti9     Ti     0.3753   0.8768   0.5
Ce10     Ce     0.5   0.8771   0.0
Er11     Er     0.7494   0.1253   0.0
Ti12     Ti     0.6247   0.1232   0.5
Er13     Er     0.2506   0.1253   0.0
Ti14     Ti     0.3753   0.1232   0.5
Ce15     Ce     0.5   0.1229   0.0
Er16     Er     0.1253   0.7494   0.0
Ti17     Ti     0.1232   0.6247   0.5
Er18     Er     0.1253   0.2506   0.0
Ti19     Ti     0.1232   0.3753   0.5
Ce20     Ce     0.1229   0.5   0.0
V21     V     0.1253   0.0   0.0
V22     V     0.0   0.1253   0.0
V23     V     0.0   0.8747   0.0
V24     V     0.8747   0.0   0.0
loop_
_geom_bond_atom_site_label_1
_geom_bond_atom_site_label_2
_geom_bond_distance
_geom_bond_site_symmetry_2
_ccdc_geom_bond_type
Er1     Ti2    10.0   .     S
Er1     Ti2    10.0   1_554     S
Er1     V23    10.0   1_655     S
Er1     Er6    10.0   .     S
Ti2     Er1    10.0   1_556     S
Ti2     Ce5    10.0   .     S
Ti2     Ce5    10.0   1_556     S
Er3     Ti4    10.0   1_554     S
Er3     Ti4    10.0   .     S
Er3     Er11    10.0   .     S
Er3     V22    10.0   1_655     S
Ti4     Er3    10.0   1_556     S
Ti4     Ce5    10.0   1_556     S
Ti4     Ce5    10.0   .     S
Ce5     Ti4    10.0   1_554     S
Ce5     Ti2    10.0   1_554     S
Er6     Ti7    10.0   1_554     S
Er6     Ti7    10.0   .     S
Er6     V24    10.0   1_565     S
Ti7     Er6    10.0   1_556     S
Ti7     Ce10    10.0   1_556     S
Ti7     Ce10    10.0   .     S
Er8     Ti9    10.0   .     S
Er8     Ti9    10.0   1_554     S
Er8     Er16    10.0   .     S
Er8     V21    10.0   1_565     S
Ti9     Er8    10.0   1_556     S
Ti9     Ce10    10.0   .     S
Ti9     Ce10    10.0   1_556     S
Ce10     Ti7    10.0   1_554     S
Ce10     Ti9    10.0   1_554     S
Er11     Ti12    10.0   .     S
Er11     Ti12    10.0   1_554     S
Er11     V24    10.0   .     S
Ti12     Er11    10.0   1_556     S
Ti12     Ce15    10.0   .     S
Ti12     Ce15    10.0   1_556     S
Er13     Ti14    10.0   1_554     S
Er13     Ti14    10.0   .     S
Er13     Er18    10.0   .     S
Er13     V21    10.0   .     S
Ti14     Er13    10.0   1_556     S
Ti14     Ce15    10.0   1_556     S
Ti14     Ce15    10.0   .     S
Ce15     Ti14    10.0   1_554     S
Ce15     Ti12    10.0   1_554     S
Er16     Ti17    10.0   1_554     S
Er16     Ti17    10.0   .     S
Er16     V23    10.0   .     S
Ti17     Er16    10.0   1_556     S
Ti17     Ce20    10.0   1_556     S
Ti17     Ce20    10.0   .     S
Er18     Ti19    10.0   .     S
Er18     Ti19    10.0   1_554     S
Er18     V22    10.0   .     S
Ti19     Er18    10.0   1_556     S
Ti19     Ce20    10.0   .     S
Ti19     Ce20    10.0   1_556     S
Ce20     Ti17    10.0   1_554     S
Ce20     Ti19    10.0   1_554     S
V21     Er8    10.0   1_545     S
V21     V23    10.0   1_545     S
V21     V22    10.0   .     S
V22     Er3    10.0   1_455     S
V22     V24    10.0   1_455     S
V23     V21    10.0   1_565     S
V23     Er1    10.0   1_455     S
V23     V24    10.0   1_465     S
V24     V22    10.0   1_655     S
V24     Er6    10.0   1_545     S
V24     V23    10.0   1_645     S
