data_stb
_audit_creation_date              2020-02-02
_audit_creation_method            'Pymatgen'
_symmetry_space_group_name_H-M    'P1'
_symmetry_Int_Tables_number       1
loop_
_symmetry_equiv_pos_as_xyz
  x,y,z
_cell_length_a                    14.1329
_cell_length_b                    14.1329
_cell_length_c                    52.0296
_cell_angle_alpha                 90.0
_cell_angle_beta                 90.0
_cell_angle_gamma                 120.0
loop_
_atom_site_label
_atom_site_type_symbol
_atom_site_fract_x
_atom_site_fract_y
_atom_site_fract_z
Er1     Er     0.6667   0.3333   0.5556
Er2     Er     0.3333   0.6667   0.4444
V3     V     0.3333   0.6667   0.6667
Er4     Er     0.0   0.0   0.7778
Er5     Er     0.3333   0.6667   0.8889
Er6     Er     0.6667   0.3333   0.1111
Er7     Er     0.0   0.0   0.2222
V8     V     0.6667   0.3333   0.3333
V9     V     0.0   0.0   0.0
loop_
_geom_bond_atom_site_label_1
_geom_bond_atom_site_label_2
_geom_bond_distance
_geom_bond_site_symmetry_2
_ccdc_geom_bond_type
Er1     Er2    10.0   1_655     S
Er1     Er2    10.0   1_545     S
Er1     Er2    10.0   .     S
Er1     V3    10.0   1_545     S
Er1     V3    10.0   1_655     S
Er1     V3    10.0   .     S
Er2     Er1    10.0   1_455     S
Er2     Er1    10.0   1_565     S
Er2     V8    10.0   1_565     S
Er2     V8    10.0   1_455     S
Er2     V8    10.0   .     S
V3     Er1    10.0   1_565     S
V3     Er1    10.0   1_455     S
V3     Er4    10.0   1_565     S
V3     Er4    10.0   .     S
V3     Er4    10.0   1_665     S
Er4     Er5    10.0   1_445     S
Er4     Er5    10.0   .     S
Er4     Er5    10.0   1_545     S
Er4     V3    10.0   1_545     S
Er4     V3    10.0   1_445     S
Er5     Er4    10.0   1_665     S
Er5     Er4    10.0   1_565     S
Er5     V9    10.0   1_566     S
Er5     V9    10.0   1_556     S
Er5     V9    10.0   1_666     S
Er6     Er7    10.0   1_665     S
Er6     Er7    10.0   .     S
Er6     Er7    10.0   1_655     S
Er6     V9    10.0   1_655     S
Er6     V9    10.0   .     S
Er6     V9    10.0   1_665     S
Er7     Er6    10.0   1_445     S
Er7     Er6    10.0   1_455     S
Er7     V8    10.0   1_455     S
Er7     V8    10.0   1_445     S
Er7     V8    10.0   .     S
V8     Er2    10.0   1_545     S
V8     Er2    10.0   1_655     S
V8     Er7    10.0   1_655     S
V8     Er7    10.0   1_665     S
V9     Er5    10.0   1_544     S
V9     Er5    10.0   1_554     S
V9     Er5    10.0   1_444     S
V9     Er6    10.0   1_455     S
V9     Er6    10.0   1_445     S
