data_ste
_audit_creation_date              2020-02-02
_audit_creation_method            'Pymatgen'
_symmetry_space_group_name_H-M    'P1'
_symmetry_Int_Tables_number       1
loop_
_symmetry_equiv_pos_as_xyz
  x,y,z
_cell_length_a                    14.1427
_cell_length_b                    14.1427
_cell_length_c                    46.1842
_cell_angle_alpha                 90.0
_cell_angle_beta                 90.0
_cell_angle_gamma                 120.0
loop_
_atom_site_label
_atom_site_type_symbol
_atom_site_fract_x
_atom_site_fract_y
_atom_site_fract_z
V1     V     0.3333   0.6667   0.625
Ti2     Ti     0.6667   0.3333   0.75
V3     V     0.3333   0.6667   0.875
V4     V     0.6667   0.3333   0.375
Ti5     Ti     0.3333   0.6667   0.25
V6     V     0.6667   0.3333   0.125
Er7     Er     0.0   0.0   0.0
Er8     Er     0.0   0.0   0.5
loop_
_geom_bond_atom_site_label_1
_geom_bond_atom_site_label_2
_geom_bond_distance
_geom_bond_site_symmetry_2
_ccdc_geom_bond_type
V1     Er8    10.0   1_565     S
V1     Er8    10.0   1_665     S
V1     Ti2    10.0   .     S
V1     Er8    10.0   .     S
V1     Ti2    10.0   1_565     S
V1     Ti2    10.0   1_455     S
Ti2     V1    10.0   1_545     S
Ti2     V1    10.0   1_655     S
Ti2     V3    10.0   .     S
Ti2     V3    10.0   1_545     S
Ti2     V3    10.0   1_655     S
V3     Er7    10.0   1_566     S
V3     Er7    10.0   1_666     S
V3     Ti2    10.0   1_565     S
V3     Ti2    10.0   1_455     S
V3     Er7    10.0   1_556     S
V4     Er8    10.0   1_655     S
V4     Er8    10.0   1_665     S
V4     Ti5    10.0   .     S
V4     Er8    10.0   .     S
V4     Ti5    10.0   1_655     S
V4     Ti5    10.0   1_545     S
Ti5     V6    10.0   .     S
Ti5     V6    10.0   1_565     S
Ti5     V6    10.0   1_455     S
Ti5     V4    10.0   1_455     S
Ti5     V4    10.0   1_565     S
V6     Er7    10.0   1_655     S
V6     Er7    10.0   1_665     S
V6     Er7    10.0   .     S
V6     Ti5    10.0   1_545     S
V6     Ti5    10.0   1_655     S
Er7     V3    10.0   1_544     S
Er7     V3    10.0   1_444     S
Er7     V3    10.0   1_554     S
Er7     V6    10.0   1_455     S
Er7     V6    10.0   1_445     S
Er8     V1    10.0   1_545     S
Er8     V1    10.0   1_445     S
Er8     V4    10.0   1_455     S
Er8     V4    10.0   1_445     S
