data_sth
_audit_creation_date              2020-02-02
_audit_creation_method            'Pymatgen'
_symmetry_space_group_name_H-M    'P1'
_symmetry_Int_Tables_number       1
loop_
_symmetry_equiv_pos_as_xyz
  x,y,z
_cell_length_a                    25.0122
_cell_length_b                    25.0122
_cell_length_c                    43.6797
_cell_angle_alpha                 90.0
_cell_angle_beta                 90.0
_cell_angle_gamma                 120.0
loop_
_atom_site_label
_atom_site_type_symbol
_atom_site_fract_x
_atom_site_fract_y
_atom_site_fract_z
V1     V     0.0668   0.5334   0.8904
V2     V     0.8667   0.1333   0.7762
V3     V     0.4666   0.9332   0.8904
V4     V     0.2665   0.1333   0.7762
V5     V     0.4666   0.5334   0.8904
V6     V     0.8667   0.7335   0.7762
V7     V     0.5334   0.0668   0.1096
V8     V     0.7335   0.8667   0.2238
V9     V     0.1333   0.8667   0.2238
V10     V     0.9332   0.4666   0.1096
V11     V     0.1333   0.2665   0.2238
V12     V     0.5334   0.4666   0.1096
V13     V     0.2001   0.7999   0.4429
V14     V     0.4001   0.2001   0.5571
V15     V     0.2001   0.4001   0.4429
V16     V     0.5999   0.7999   0.4429
V17     V     0.7999   0.5999   0.5571
V18     V     0.7999   0.2001   0.5571
loop_
_geom_bond_atom_site_label_1
_geom_bond_atom_site_label_2
_geom_bond_distance
_geom_bond_site_symmetry_2
_ccdc_geom_bond_type
V1     V3    10.0   .     S
V1     V5    10.0   .     S
V1     V2    10.0   1_455     S
V1     V6    10.0   1_455     S
V1     V10    10.0   1_456     S
V2     V6    10.0   1_545     S
V2     V18    10.0   .     S
V2     V3    10.0   1_545     S
V2     V1    10.0   1_655     S
V2     V4    10.0   1_655     S
V3     V7    10.0   1_566     S
V3     V2    10.0   1_565     S
V3     V4    10.0   1_565     S
V3     V5    10.0   .     S
V4     V14    10.0   .     S
V4     V5    10.0   .     S
V4     V3    10.0   1_545     S
V4     V6    10.0   1_445     S
V4     V2    10.0   1_455     S
V5     V12    10.0   1_556     S
V5     V6    10.0   .     S
V6     V2    10.0   1_565     S
V6     V17    10.0   .     S
V6     V1    10.0   1_655     S
V6     V4    10.0   1_665     S
V7     V10    10.0   .     S
V7     V12    10.0   .     S
V7     V3    10.0   1_544     S
V7     V8    10.0   1_545     S
V7     V9    10.0   1_545     S
V8     V9    10.0   1_655     S
V8     V12    10.0   .     S
V8     V7    10.0   1_565     S
V8     V16    10.0   .     S
V8     V11    10.0   1_665     S
V9     V8    10.0   1_455     S
V9     V7    10.0   1_565     S
V9     V10    10.0   1_455     S
V9     V13    10.0   .     S
V9     V11    10.0   1_565     S
V10     V1    10.0   1_654     S
V10     V9    10.0   1_655     S
V10     V11    10.0   1_655     S
V10     V12    10.0   .     S
V11     V12    10.0   .     S
V11     V10    10.0   1_455     S
V11     V15    10.0   .     S
V11     V9    10.0   1_545     S
V11     V8    10.0   1_445     S
V12     V5    10.0   1_554     S
V13     V16    10.0   .     S
V13     V17    10.0   1_455     S
V13     V14    10.0   1_565     S
V13     V15    10.0   .     S
V14     V17    10.0   .     S
V14     V13    10.0   1_545     S
V14     V15    10.0   .     S
V14     V18    10.0   .     S
V15     V16    10.0   .     S
V15     V18    10.0   1_455     S
V16     V18    10.0   1_565     S
V16     V17    10.0   .     S
V17     V18    10.0   .     S
V17     V13    10.0   1_655     S
V18     V15    10.0   1_655     S
V18     V16    10.0   1_545     S
