data_stja
_audit_creation_date              2020-02-02
_audit_creation_method            'Pymatgen'
_symmetry_space_group_name_H-M    'P1'
_symmetry_Int_Tables_number       1
loop_
_symmetry_equiv_pos_as_xyz
  x,y,z
_cell_length_a                    107.6574
_cell_length_b                    107.6574
_cell_length_c                    62.0262
_cell_angle_alpha                 90.0
_cell_angle_beta                 90.0
_cell_angle_gamma                 90.0
loop_
_atom_site_label
_atom_site_type_symbol
_atom_site_fract_x
_atom_site_fract_y
_atom_site_fract_z
Ti1     Ti     0.7624   0.6967   0.6869
Ti2     Ti     0.6967   0.7624   0.6869
Ti3     Ti     0.8033   0.7376   0.8131
Ti4     Ti     0.7376   0.8033   0.8131
Ti5     Ti     0.6967   0.2376   0.6869
Ti6     Ti     0.7624   0.3033   0.6869
Ti7     Ti     0.8033   0.2624   0.8131
Ti8     Ti     0.7376   0.1967   0.8131
Ti9     Ti     0.2376   0.3033   0.6869
Ti10     Ti     0.3033   0.2376   0.6869
Ti11     Ti     0.1967   0.2624   0.8131
Ti12     Ti     0.2624   0.1967   0.8131
Ti13     Ti     0.2376   0.6967   0.6869
Ti14     Ti     0.3033   0.7624   0.6869
Ti15     Ti     0.2624   0.8033   0.8131
Ti16     Ti     0.1967   0.7376   0.8131
Er17     Er     0.7617   0.3731   0.4194
Er18     Er     0.7617   0.3731   0.5806
V19     V     0.7624   0.4536   0.5
V20     V     0.7624   0.5464   0.5
Er21     Er     0.7617   0.6269   0.4194
Er22     Er     0.7617   0.6269   0.5806
Ti23     Ti     0.8033   0.2624   0.1869
Ti24     Ti     0.7376   0.1967   0.1869
Ti25     Ti     0.6967   0.2376   0.3131
Ti26     Ti     0.7624   0.3033   0.3131
Er27     Er     0.7383   0.1269   0.0806
Er28     Er     0.7383   0.1269   0.9194
V29     V     0.7376   0.0464   0.0
V30     V     0.7376   0.9536   0.0
Er31     Er     0.7383   0.8731   0.9194
Er32     Er     0.7383   0.8731   0.0806
Ti33     Ti     0.6967   0.7624   0.3131
Ti34     Ti     0.7624   0.6967   0.3131
Ti35     Ti     0.7376   0.8033   0.1869
Ti36     Ti     0.8033   0.7376   0.1869
Er37     Er     0.3731   0.7617   0.4194
Er38     Er     0.3731   0.7617   0.5806
V39     V     0.4536   0.7624   0.5
V40     V     0.5464   0.7624   0.5
Er41     Er     0.6269   0.7617   0.4194
Er42     Er     0.6269   0.7617   0.5806
Er43     Er     0.1269   0.7383   0.9194
Er44     Er     0.1269   0.7383   0.0806
V45     V     0.0464   0.7376   0.0
V46     V     0.9536   0.7376   0.0
Er47     Er     0.8731   0.7383   0.0806
Er48     Er     0.8731   0.7383   0.9194
Ti49     Ti     0.2624   0.8033   0.1869
Ti50     Ti     0.1967   0.7376   0.1869
Ti51     Ti     0.2376   0.6967   0.3131
Ti52     Ti     0.3033   0.7624   0.3131
Er53     Er     0.3731   0.2383   0.4194
Er54     Er     0.3731   0.2383   0.5806
V55     V     0.4536   0.2376   0.5
V56     V     0.5464   0.2376   0.5
Er57     Er     0.6269   0.2383   0.4194
Er58     Er     0.6269   0.2383   0.5806
Er59     Er     0.2383   0.3731   0.4194
Er60     Er     0.2383   0.3731   0.5806
V61     V     0.2376   0.4536   0.5
V62     V     0.2376   0.5464   0.5
Er63     Er     0.2383   0.6269   0.4194
Er64     Er     0.2383   0.6269   0.5806
Er65     Er     0.2617   0.1269   0.9194
Er66     Er     0.2617   0.1269   0.0806
V67     V     0.2624   0.0464   0.0
V68     V     0.2624   0.9536   0.0
Er69     Er     0.2617   0.8731   0.0806
Er70     Er     0.2617   0.8731   0.9194
Er71     Er     0.1269   0.2617   0.0806
Er72     Er     0.1269   0.2617   0.9194
V73     V     0.0464   0.2624   0.0
V74     V     0.9536   0.2624   0.0
Er75     Er     0.8731   0.2617   0.0806
Er76     Er     0.8731   0.2617   0.9194
Ti77     Ti     0.3033   0.2376   0.3131
Ti78     Ti     0.2376   0.3033   0.3131
Ti79     Ti     0.2624   0.1967   0.1869
Ti80     Ti     0.1967   0.2624   0.1869
loop_
_geom_bond_atom_site_label_1
_geom_bond_atom_site_label_2
_geom_bond_distance
_geom_bond_site_symmetry_2
_ccdc_geom_bond_type
Ti1     Er22    10.0   .     S
Ti1     Ti2    10.0   .     S
Ti1     Ti3    10.001   .     S
Ti2     Er42    10.0   .     S
Ti2     Ti4    10.001   .     S
Ti3     Er48    10.0   .     S
Ti3     Ti4    10.0   .     S
Ti4     Er31    10.0   .     S
Ti5     Er58    10.0   .     S
Ti5     Ti6    10.0   .     S
Ti5     Ti8    10.001   .     S
Ti6     Er18    10.0   .     S
Ti6     Ti7    10.001   .     S
Ti7     Er76    10.0   .     S
Ti7     Ti8    10.0   .     S
Ti8     Er28    10.0   .     S
Ti9     Er60    10.0   .     S
Ti9     Ti10    10.0   .     S
Ti9     Ti11    10.001   .     S
Ti10     Er54    10.0   .     S
Ti10     Ti12    10.001   .     S
Ti11     Er72    10.0   .     S
Ti11     Ti12    10.0   .     S
Ti12     Er65    10.0   .     S
Ti13     Er64    10.0   .     S
Ti13     Ti14    10.0   .     S
Ti13     Ti16    10.001   .     S
Ti14     Er38    10.0   .     S
Ti14     Ti15    10.001   .     S
Ti15     Er70    10.0   .     S
Ti15     Ti16    10.0   .     S
Ti16     Er43    10.0   .     S
Er17     V19    10.0   .     S
Er17     Er18    10.0   .     S
Er17     Ti26    10.0   .     S
Er18     V19    10.0   .     S
V19     V20    9.999   .     S
V20     Er21    10.0   .     S
V20     Er22    10.0   .     S
Er21     Er22    10.0   .     S
Er21     Ti34    10.0   .     S
Ti23     Er75    10.0   .     S
Ti23     Ti24    10.0   .     S
Ti23     Ti26    10.001   .     S
Ti24     Er27    10.0   .     S
Ti24     Ti25    10.001   .     S
Ti25     Er57    10.0   .     S
Ti25     Ti26    10.0   .     S
Er27     V29    10.0   .     S
Er27     Er28    10.0   1_554     S
Er28     V29    10.0   1_556     S
Er28     Er27    10.0   1_556     S
V29     Er28    10.0   1_554     S
V29     V30    9.999   1_545     S
V30     V29    9.999   1_565     S
V30     Er31    10.0   1_554     S
V30     Er32    10.0   .     S
Er31     V30    10.0   1_556     S
Er31     Er32    10.0   1_556     S
Er32     Er31    10.0   1_554     S
Er32     Ti35    10.0   .     S
Ti33     Er41    10.0   .     S
Ti33     Ti34    10.0   .     S
Ti33     Ti35    10.001   .     S
Ti34     Ti36    10.001   .     S
Ti35     Ti36    10.0   .     S
Ti36     Er47    10.0   .     S
Er37     V39    10.0   .     S
Er37     Er38    10.0   .     S
Er37     Ti52    10.0   .     S
Er38     V39    10.0   .     S
V39     V40    9.999   .     S
V40     Er41    10.0   .     S
V40     Er42    10.0   .     S
Er41     Er42    10.0   .     S
Er43     V45    10.0   1_556     S
Er43     Er44    10.0   1_556     S
Er44     V45    10.0   .     S
Er44     Er43    10.0   1_554     S
Er44     Ti50    10.0   .     S
V45     Er43    10.0   1_554     S
V45     V46    9.999   1_455     S
V46     V45    9.999   1_655     S
V46     Er47    10.0   .     S
V46     Er48    10.0   1_554     S
Er47     Er48    10.0   1_554     S
Er48     V46    10.0   1_556     S
Er48     Er47    10.0   1_556     S
Ti49     Er69    10.0   .     S
Ti49     Ti50    10.0   .     S
Ti49     Ti52    10.001   .     S
Ti50     Ti51    10.001   .     S
Ti51     Er63    10.0   .     S
Ti51     Ti52    10.0   .     S
Er53     V55    10.0   .     S
Er53     Er54    10.0   .     S
Er53     Ti77    10.0   .     S
Er54     V55    10.0   .     S
V55     V56    9.999   .     S
V56     Er57    10.0   .     S
V56     Er58    10.0   .     S
Er57     Er58    10.0   .     S
Er59     V61    10.0   .     S
Er59     Er60    10.0   .     S
Er59     Ti78    10.0   .     S
Er60     V61    10.0   .     S
V61     V62    9.999   .     S
V62     Er63    10.0   .     S
V62     Er64    10.0   .     S
Er63     Er64    10.0   .     S
Er65     V67    10.0   1_556     S
Er65     Er66    10.0   1_556     S
Er66     V67    10.0   .     S
Er66     Er65    10.0   1_554     S
Er66     Ti79    10.0   .     S
V67     Er65    10.0   1_554     S
V67     V68    9.999   1_545     S
V68     V67    9.999   1_565     S
V68     Er69    10.0   .     S
V68     Er70    10.0   1_554     S
Er69     Er70    10.0   1_554     S
Er70     V68    10.0   1_556     S
Er70     Er69    10.0   1_556     S
Er71     V73    10.0   .     S
Er71     Er72    10.0   1_554     S
Er71     Ti80    10.0   .     S
Er72     V73    10.0   1_556     S
Er72     Er71    10.0   1_556     S
V73     Er72    10.0   1_554     S
V73     V74    9.999   1_455     S
V74     V73    9.999   1_655     S
V74     Er75    10.0   .     S
V74     Er76    10.0   1_554     S
Er75     Er76    10.0   1_554     S
Er76     V74    10.0   1_556     S
Er76     Er75    10.0   1_556     S
Ti77     Ti78    10.0   .     S
Ti77     Ti79    10.001   .     S
Ti78     Ti80    10.001   .     S
Ti79     Ti80    10.0   .     S
