data_stua
_audit_creation_date              2020-02-02
_audit_creation_method            'Pymatgen'
_symmetry_space_group_name_H-M    'P1'
_symmetry_Int_Tables_number       1
loop_
_symmetry_equiv_pos_as_xyz
  x,y,z
_cell_length_a                    98.7692
_cell_length_b                    98.7692
_cell_length_c                    60.5502
_cell_angle_alpha                 90.0
_cell_angle_beta                 90.0
_cell_angle_gamma                 90.0
loop_
_atom_site_label
_atom_site_type_symbol
_atom_site_fract_x
_atom_site_fract_y
_atom_site_fract_z
Er1     Er     0.629   0.1754   0.1871
Er2     Er     0.6754   0.129   0.3129
Ti3     Ti     0.7142   0.2142   0.25
V4     V     0.6756   0.0506   0.4174
V5     V     0.6756   0.9494   0.4174
Er6     Er     0.629   0.8246   0.1871
Er7     Er     0.6754   0.871   0.3129
Ti8     Ti     0.7142   0.7858   0.25
V9     V     0.4494   0.1756   0.0826
V10     V     0.5506   0.1756   0.0826
V11     V     0.4494   0.8244   0.0826
V12     V     0.5506   0.8244   0.0826
Er13     Er     0.371   0.1754   0.1871
Er14     Er     0.3246   0.129   0.3129
Ti15     Ti     0.2858   0.2142   0.25
V16     V     0.3244   0.0506   0.4174
V17     V     0.3244   0.9494   0.4174
Er18     Er     0.371   0.8246   0.1871
Er19     Er     0.3246   0.871   0.3129
Ti20     Ti     0.2858   0.7858   0.25
Er21     Er     0.629   0.1754   0.8129
Er22     Er     0.6754   0.129   0.6871
Ti23     Ti     0.7142   0.2142   0.75
V24     V     0.6756   0.0506   0.5826
V25     V     0.6756   0.9494   0.5826
Er26     Er     0.629   0.8246   0.8129
Er27     Er     0.6754   0.871   0.6871
Ti28     Ti     0.7142   0.7858   0.75
V29     V     0.4494   0.8244   0.9174
V30     V     0.5506   0.8244   0.9174
V31     V     0.5506   0.1756   0.9174
V32     V     0.4494   0.1756   0.9174
Er33     Er     0.371   0.1754   0.8129
Er34     Er     0.3246   0.129   0.6871
Ti35     Ti     0.2858   0.2142   0.75
V36     V     0.3244   0.0506   0.5826
V37     V     0.3244   0.9494   0.5826
Er38     Er     0.371   0.8246   0.8129
Er39     Er     0.3246   0.871   0.6871
Ti40     Ti     0.2858   0.7858   0.75
Er41     Er     0.1754   0.629   0.1871
Er42     Er     0.129   0.6754   0.3129
Ti43     Ti     0.2142   0.7142   0.25
V44     V     0.0506   0.6756   0.4174
V45     V     0.9494   0.6756   0.4174
Er46     Er     0.8246   0.629   0.1871
Er47     Er     0.871   0.6754   0.3129
Ti48     Ti     0.7858   0.7142   0.25
V49     V     0.8244   0.4494   0.0826
V50     V     0.8244   0.5506   0.0826
V51     V     0.1756   0.4494   0.0826
V52     V     0.1756   0.5506   0.0826
Er53     Er     0.1754   0.371   0.1871
Er54     Er     0.129   0.3246   0.3129
Ti55     Ti     0.2142   0.2858   0.25
V56     V     0.0506   0.3244   0.4174
V57     V     0.9494   0.3244   0.4174
Er58     Er     0.8246   0.371   0.1871
Er59     Er     0.871   0.3246   0.3129
Ti60     Ti     0.7858   0.2858   0.25
Er61     Er     0.1754   0.371   0.8129
Er62     Er     0.129   0.3246   0.6871
Ti63     Ti     0.2142   0.2858   0.75
V64     V     0.0506   0.3244   0.5826
V65     V     0.9494   0.3244   0.5826
Er66     Er     0.8246   0.371   0.8129
Er67     Er     0.871   0.3246   0.6871
Ti68     Ti     0.7858   0.2858   0.75
V69     V     0.8244   0.5506   0.9174
V70     V     0.8244   0.4494   0.9174
V71     V     0.1756   0.4494   0.9174
V72     V     0.1756   0.5506   0.9174
Er73     Er     0.1754   0.629   0.8129
Er74     Er     0.129   0.6754   0.6871
Ti75     Ti     0.2142   0.7142   0.75
V76     V     0.0506   0.6756   0.5826
V77     V     0.9494   0.6756   0.5826
Er78     Er     0.8246   0.629   0.8129
Er79     Er     0.871   0.6754   0.6871
Ti80     Ti     0.7858   0.7142   0.75
loop_
_geom_bond_atom_site_label_1
_geom_bond_atom_site_label_2
_geom_bond_distance
_geom_bond_site_symmetry_2
_ccdc_geom_bond_type
Er1     Ti3    9.999   .     S
Er1     Er2    10.001   .     S
Er1     V10    10.0   .     S
Er2     Ti3    9.999   .     S
Er2     V4    10.0   .     S
Ti3     Ti60    10.001   .     S
V4     V5    9.999   1_545     S
V4     V24    10.0   .     S
V5     V4    9.999   1_565     S
V5     Er7    10.0   .     S
V5     V25    10.0   .     S
Er6     Ti8    9.999   .     S
Er6     Er7    10.001   .     S
Er6     V12    10.0   .     S
Er7     Ti8    9.999   .     S
Ti8     Ti48    10.001   .     S
V9     V10    9.999   .     S
V9     Er13    10.0   .     S
V9     V32    10.0   1_554     S
V10     V31    10.0   1_554     S
V11     V12    9.999   .     S
V11     Er18    10.0   .     S
V11     V29    10.0   1_554     S
V12     V30    10.0   1_554     S
Er13     Ti15    9.999   .     S
Er13     Er14    10.001   .     S
Er14     Ti15    9.999   .     S
Er14     V16    10.0   .     S
Ti15     Ti55    10.001   .     S
V16     V17    9.999   1_545     S
V16     V36    10.0   .     S
V17     V16    9.999   1_565     S
V17     Er19    10.0   .     S
V17     V37    10.0   .     S
Er18     Ti20    9.999   .     S
Er18     Er19    10.001   .     S
Er19     Ti20    9.999   .     S
Ti20     Ti43    10.001   .     S
Er21     Ti23    9.999   .     S
Er21     Er22    10.001   .     S
Er21     V31    10.0   .     S
Er22     Ti23    9.999   .     S
Er22     V24    10.0   .     S
Ti23     Ti68    10.001   .     S
V24     V25    9.999   1_545     S
V25     V24    9.999   1_565     S
V25     Er27    10.0   .     S
Er26     Ti28    9.999   .     S
Er26     Er27    10.001   .     S
Er26     V30    10.0   .     S
Er27     Ti28    9.999   .     S
Ti28     Ti80    10.001   .     S
V29     V30    9.999   .     S
V29     Er38    10.0   .     S
V29     V11    10.0   1_556     S
V30     V12    10.0   1_556     S
V31     V32    9.999   .     S
V31     V10    10.0   1_556     S
V32     Er33    10.0   .     S
V32     V9    10.0   1_556     S
Er33     Ti35    9.999   .     S
Er33     Er34    10.001   .     S
Er34     Ti35    9.999   .     S
Er34     V36    10.0   .     S
Ti35     Ti63    10.001   .     S
V36     V37    9.999   1_545     S
V37     V36    9.999   1_565     S
V37     Er39    10.0   .     S
Er38     Ti40    9.999   .     S
Er38     Er39    10.001   .     S
Er39     Ti40    9.999   .     S
Ti40     Ti75    10.001   .     S
Er41     Ti43    9.999   .     S
Er41     Er42    10.001   .     S
Er41     V52    10.0   .     S
Er42     Ti43    9.999   .     S
Er42     V44    10.0   .     S
V44     V45    9.999   1_455     S
V44     V76    10.0   .     S
V45     V44    9.999   1_655     S
V45     Er47    10.0   .     S
V45     V77    10.0   .     S
Er46     Ti48    9.999   .     S
Er46     Er47    10.001   .     S
Er46     V50    10.0   .     S
Er47     Ti48    9.999   .     S
V49     V50    9.999   .     S
V49     Er58    10.0   .     S
V49     V70    10.0   1_554     S
V50     V69    10.0   1_554     S
V51     V52    9.999   .     S
V51     Er53    10.0   .     S
V51     V71    10.0   1_554     S
V52     V72    10.0   1_554     S
Er53     Ti55    9.999   .     S
Er53     Er54    10.001   .     S
Er54     Ti55    9.999   .     S
Er54     V56    10.0   .     S
V56     V57    9.999   1_455     S
V56     V64    10.0   .     S
V57     V56    9.999   1_655     S
V57     Er59    10.0   .     S
V57     V65    10.0   .     S
Er58     Ti60    9.999   .     S
Er58     Er59    10.001   .     S
Er59     Ti60    9.999   .     S
Er61     Ti63    9.999   .     S
Er61     Er62    10.001   .     S
Er61     V71    10.0   .     S
Er62     Ti63    9.999   .     S
Er62     V64    10.0   .     S
V64     V65    9.999   1_455     S
V65     V64    9.999   1_655     S
V65     Er67    10.0   .     S
Er66     Ti68    9.999   .     S
Er66     Er67    10.001   .     S
Er66     V70    10.0   .     S
Er67     Ti68    9.999   .     S
V69     V70    9.999   .     S
V69     Er78    10.0   .     S
V69     V50    10.0   1_556     S
V70     V49    10.0   1_556     S
V71     V72    9.999   .     S
V71     V51    10.0   1_556     S
V72     Er73    10.0   .     S
V72     V52    10.0   1_556     S
Er73     Ti75    9.999   .     S
Er73     Er74    10.001   .     S
Er74     Ti75    9.999   .     S
Er74     V76    10.0   .     S
V76     V77    9.999   1_455     S
V77     V76    9.999   1_655     S
V77     Er79    10.0   .     S
Er78     Ti80    9.999   .     S
Er78     Er79    10.001   .     S
Er79     Ti80    9.999   .     S
