data_stwa
_audit_creation_date              2020-02-02
_audit_creation_method            'Pymatgen'
_symmetry_space_group_name_H-M    'P1'
_symmetry_Int_Tables_number       1
loop_
_symmetry_equiv_pos_as_xyz
  x,y,z
_cell_length_a                    97.004
_cell_length_b                    97.004
_cell_length_c                    77.3844
_cell_angle_alpha                 90.0
_cell_angle_beta                 90.0
_cell_angle_gamma                 90.0
loop_
_atom_site_label
_atom_site_type_symbol
_atom_site_fract_x
_atom_site_fract_y
_atom_site_fract_z
Er1     Er     0.3618   0.289   0.8653
Er2     Er     0.289   0.3618   0.8653
V3     V     0.2777   0.2777   0.792
V4     V     0.2223   0.2223   0.708
Er5     Er     0.211   0.1382   0.6347
Er6     Er     0.1382   0.211   0.6347
Er7     Er     0.289   0.6382   0.8653
Er8     Er     0.3618   0.711   0.8653
V9     V     0.2777   0.7223   0.792
V10     V     0.2223   0.7777   0.708
Er11     Er     0.211   0.8618   0.6347
Er12     Er     0.1382   0.789   0.6347
Er13     Er     0.6382   0.711   0.8653
Er14     Er     0.711   0.6382   0.8653
V15     V     0.7223   0.7223   0.792
V16     V     0.7777   0.7777   0.708
Er17     Er     0.789   0.8618   0.6347
Er18     Er     0.8618   0.789   0.6347
Er19     Er     0.6382   0.289   0.8653
Er20     Er     0.711   0.3618   0.8653
V21     V     0.7223   0.2777   0.792
V22     V     0.7777   0.2223   0.708
Er23     Er     0.8618   0.211   0.6347
Er24     Er     0.789   0.1382   0.6347
Ti25     Ti     0.7891   0.0515   0.5646
Ti26     Ti     0.7891   0.9485   0.5646
Ti27     Ti     0.7891   0.0515   0.4354
Ti28     Ti     0.7891   0.9485   0.4354
Ti29     Ti     0.0515   0.2109   0.5646
Ti30     Ti     0.9485   0.2109   0.5646
Ti31     Ti     0.0515   0.2109   0.4354
Ti32     Ti     0.9485   0.2109   0.4354
Ti33     Ti     0.2109   0.0515   0.5646
Ti34     Ti     0.2109   0.9485   0.5646
Ti35     Ti     0.2109   0.0515   0.4354
Ti36     Ti     0.2109   0.9485   0.4354
Ti37     Ti     0.0515   0.7891   0.5646
Ti38     Ti     0.9485   0.7891   0.5646
Ti39     Ti     0.0515   0.7891   0.4354
Ti40     Ti     0.9485   0.7891   0.4354
Er41     Er     0.289   0.6382   0.1347
Er42     Er     0.3618   0.711   0.1347
V43     V     0.2777   0.7223   0.208
V44     V     0.2223   0.7777   0.292
Er45     Er     0.211   0.8618   0.3653
Er46     Er     0.1382   0.789   0.3653
Ti47     Ti     0.5515   0.7109   0.0646
Ti48     Ti     0.4485   0.7109   0.0646
Ti49     Ti     0.5515   0.7109   0.9354
Ti50     Ti     0.4485   0.7109   0.9354
Er51     Er     0.711   0.6382   0.1347
Er52     Er     0.6382   0.711   0.1347
V53     V     0.7223   0.7223   0.208
V54     V     0.7777   0.7777   0.292
Er55     Er     0.8618   0.789   0.3653
Er56     Er     0.789   0.8618   0.3653
Ti57     Ti     0.7109   0.4485   0.0646
Ti58     Ti     0.7109   0.5515   0.0646
Ti59     Ti     0.7109   0.4485   0.9354
Ti60     Ti     0.7109   0.5515   0.9354
Er61     Er     0.6382   0.289   0.1347
Er62     Er     0.711   0.3618   0.1347
V63     V     0.7223   0.2777   0.208
V64     V     0.7777   0.2223   0.292
Er65     Er     0.8618   0.211   0.3653
Er66     Er     0.789   0.1382   0.3653
Ti67     Ti     0.4485   0.2891   0.0646
Ti68     Ti     0.5515   0.2891   0.0646
Ti69     Ti     0.4485   0.2891   0.9354
Ti70     Ti     0.5515   0.2891   0.9354
Ti71     Ti     0.2891   0.4485   0.0646
Ti72     Ti     0.2891   0.5515   0.0646
Ti73     Ti     0.2891   0.5515   0.9354
Ti74     Ti     0.2891   0.4485   0.9354
Er75     Er     0.289   0.3618   0.1347
Er76     Er     0.3618   0.289   0.1347
V77     V     0.2223   0.2223   0.292
V78     V     0.2777   0.2777   0.208
Er79     Er     0.1382   0.211   0.3653
Er80     Er     0.211   0.1382   0.3653
loop_
_geom_bond_atom_site_label_1
_geom_bond_atom_site_label_2
_geom_bond_distance
_geom_bond_site_symmetry_2
_ccdc_geom_bond_type
Er1     V3    10.0   .     S
Er1     Er2    9.999   .     S
Er1     Ti69    10.001   .     S
Er2     V3    10.0   .     S
Er2     Ti74    10.001   .     S
V3     V4    10.0   .     S
V4     Er5    10.0   .     S
V4     Er6    10.0   .     S
Er5     Er6    9.999   .     S
Er5     Ti33    10.001   .     S
Er6     Ti29    10.001   .     S
Er7     V9    10.0   .     S
Er7     Er8    9.999   .     S
Er7     Ti73    10.001   .     S
Er8     V9    10.0   .     S
Er8     Ti50    10.001   .     S
V9     V10    10.0   .     S
V10     Er12    10.0   .     S
V10     Er11    10.0   .     S
Er11     Er12    9.999   .     S
Er11     Ti34    10.001   .     S
Er12     Ti37    10.001   .     S
Er13     V15    10.0   .     S
Er13     Er14    9.999   .     S
Er13     Ti49    10.001   .     S
Er14     V15    10.0   .     S
Er14     Ti60    10.001   .     S
V15     V16    10.0   .     S
V16     Er17    10.0   .     S
V16     Er18    10.0   .     S
Er17     Er18    9.999   .     S
Er17     Ti26    10.001   .     S
Er18     Ti38    10.001   .     S
Er19     V21    10.0   .     S
Er19     Er20    9.999   .     S
Er19     Ti70    10.001   .     S
Er20     V21    10.0   .     S
Er20     Ti59    10.001   .     S
V21     V22    10.0   .     S
V22     Er23    10.0   .     S
V22     Er24    10.0   .     S
Er23     Er24    9.999   .     S
Er23     Ti30    10.001   .     S
Er24     Ti25    10.001   .     S
Ti25     Ti26    9.999   1_545     S
Ti25     Ti27    10.0   .     S
Ti26     Ti25    9.999   1_565     S
Ti26     Ti28    10.0   .     S
Ti27     Ti28    9.999   1_545     S
Ti27     Er66    10.001   .     S
Ti28     Ti27    9.999   1_565     S
Ti28     Er56    10.001   .     S
Ti29     Ti30    9.999   1_455     S
Ti29     Ti31    10.0   .     S
Ti30     Ti29    9.999   1_655     S
Ti30     Ti32    10.0   .     S
Ti31     Ti32    9.999   1_455     S
Ti31     Er79    10.001   .     S
Ti32     Ti31    9.999   1_655     S
Ti32     Er65    10.001   .     S
Ti33     Ti34    9.999   1_545     S
Ti33     Ti35    10.0   .     S
Ti34     Ti33    9.999   1_565     S
Ti34     Ti36    10.0   .     S
Ti35     Ti36    9.999   1_545     S
Ti35     Er80    10.001   .     S
Ti36     Ti35    9.999   1_565     S
Ti36     Er45    10.001   .     S
Ti37     Ti38    9.999   1_455     S
Ti37     Ti39    10.0   .     S
Ti38     Ti37    9.999   1_655     S
Ti38     Ti40    10.0   .     S
Ti39     Ti40    9.999   1_455     S
Ti39     Er46    10.001   .     S
Ti40     Ti39    9.999   1_655     S
Ti40     Er55    10.001   .     S
Er41     V43    10.0   .     S
Er41     Er42    9.999   .     S
Er41     Ti72    10.001   .     S
Er42     V43    10.0   .     S
Er42     Ti48    10.001   .     S
V43     V44    10.0   .     S
V44     Er45    10.0   .     S
V44     Er46    10.0   .     S
Er45     Er46    9.999   .     S
Ti47     Ti48    9.999   .     S
Ti47     Ti49    10.0   1_554     S
Ti47     Er52    10.001   .     S
Ti48     Ti50    10.0   1_554     S
Ti49     Ti50    9.999   .     S
Ti49     Ti47    10.0   1_556     S
Ti50     Ti48    10.0   1_556     S
Er51     V53    10.0   .     S
Er51     Er52    9.999   .     S
Er51     Ti58    10.001   .     S
Er52     V53    10.0   .     S
V53     V54    10.0   .     S
V54     Er55    10.0   .     S
V54     Er56    10.0   .     S
Er55     Er56    9.999   .     S
Ti57     Ti58    9.999   .     S
Ti57     Ti59    10.0   1_554     S
Ti57     Er62    10.001   .     S
Ti58     Ti60    10.0   1_554     S
Ti59     Ti60    9.999   .     S
Ti59     Ti57    10.0   1_556     S
Ti60     Ti58    10.0   1_556     S
Er61     V63    10.0   .     S
Er61     Er62    9.999   .     S
Er61     Ti68    10.001   .     S
Er62     V63    10.0   .     S
V63     V64    10.0   .     S
V64     Er66    10.0   .     S
V64     Er65    10.0   .     S
Er65     Er66    9.999   .     S
Ti67     Ti68    9.999   .     S
Ti67     Ti69    10.0   1_554     S
Ti67     Er76    10.001   .     S
Ti68     Ti70    10.0   1_554     S
Ti69     Ti70    9.999   .     S
Ti69     Ti67    10.0   1_556     S
Ti70     Ti68    10.0   1_556     S
Ti71     Ti72    9.999   .     S
Ti71     Ti74    10.0   1_554     S
Ti71     Er75    10.001   .     S
Ti72     Ti73    10.0   1_554     S
Ti73     Ti74    9.999   .     S
Ti73     Ti72    10.0   1_556     S
Ti74     Ti71    10.0   1_556     S
Er75     V78    10.0   .     S
Er75     Er76    9.999   .     S
Er76     V78    10.0   .     S
V77     V78    10.0   .     S
V77     Er79    10.0   .     S
V77     Er80    10.0   .     S
Er79     Er80    9.999   .     S
