data_stxa
_audit_creation_date              2020-02-02
_audit_creation_method            'Pymatgen'
_symmetry_space_group_name_H-M    'P1'
_symmetry_Int_Tables_number       1
loop_
_symmetry_equiv_pos_as_xyz
  x,y,z
_cell_length_a                    81.5108
_cell_length_b                    81.5108
_cell_length_c                    83.9793
_cell_angle_alpha                 90.0
_cell_angle_beta                 90.0
_cell_angle_gamma                 90.0
loop_
_atom_site_label
_atom_site_type_symbol
_atom_site_fract_x
_atom_site_fract_y
_atom_site_fract_z
Er1     Er     0.4387   0.2436   0.1627
Er2     Er     0.5613   0.2436   0.1627
Ti3     Ti     0.5   0.2427   0.0595
V4     V     0.7578   0.329   0.216
V5     V     0.671   0.2422   0.216
Er6     Er     0.7564   0.4387   0.1627
Er7     Er     0.7564   0.5613   0.1627
Ti8     Ti     0.7573   0.5   0.0595
Er9     Er     0.4387   0.7564   0.1627
Er10     Er     0.5613   0.7564   0.1627
Ti11     Ti     0.5   0.7573   0.0595
V12     V     0.671   0.7578   0.216
V13     V     0.7578   0.671   0.216
V14     V     0.2422   0.329   0.216
V15     V     0.329   0.2422   0.216
Er16     Er     0.2436   0.4387   0.1627
Er17     Er     0.2436   0.5613   0.1627
Ti18     Ti     0.2427   0.5   0.0595
V19     V     0.329   0.7578   0.216
V20     V     0.2422   0.671   0.216
Er21     Er     0.2436   0.4387   0.8373
Er22     Er     0.2436   0.5613   0.8373
Ti23     Ti     0.2427   0.5   0.9405
V24     V     0.329   0.7578   0.784
V25     V     0.2422   0.671   0.784
V26     V     0.329   0.2422   0.784
V27     V     0.2422   0.329   0.784
Er28     Er     0.7564   0.4387   0.8373
Er29     Er     0.7564   0.5613   0.8373
Ti30     Ti     0.7573   0.5   0.9405
Er31     Er     0.4387   0.7564   0.8373
Er32     Er     0.5613   0.7564   0.8373
Ti33     Ti     0.5   0.7573   0.9405
V34     V     0.671   0.7578   0.784
V35     V     0.7578   0.671   0.784
Er36     Er     0.4387   0.2436   0.8373
Er37     Er     0.5613   0.2436   0.8373
Ti38     Ti     0.5   0.2427   0.9405
V39     V     0.7578   0.329   0.784
V40     V     0.671   0.2422   0.784
Er41     Er     0.2564   0.0613   0.3373
Er42     Er     0.2564   0.9387   0.3373
Ti43     Ti     0.2573   0.0   0.4405
V44     V     0.171   0.7422   0.2841
V45     V     0.2578   0.829   0.2841
Er46     Er     0.0613   0.7436   0.3373
Er47     Er     0.9387   0.7436   0.3373
Ti48     Ti     0.0   0.7427   0.4405
Er49     Er     0.7436   0.0613   0.3373
Er50     Er     0.7436   0.9387   0.3373
Ti51     Ti     0.7427   0.0   0.4405
V52     V     0.7422   0.829   0.2841
V53     V     0.829   0.7422   0.2841
V54     V     0.171   0.2578   0.2841
V55     V     0.2578   0.171   0.2841
Er56     Er     0.0613   0.2564   0.3373
Er57     Er     0.9387   0.2564   0.3373
Ti58     Ti     0.0   0.2573   0.4405
V59     V     0.7422   0.171   0.2841
V60     V     0.829   0.2578   0.2841
Er61     Er     0.7436   0.0613   0.6627
Er62     Er     0.7436   0.9387   0.6627
Ti63     Ti     0.7427   0.0   0.5595
Er64     Er     0.0613   0.7436   0.6627
Er65     Er     0.9387   0.7436   0.6627
Ti66     Ti     0.0   0.7427   0.5595
V67     V     0.829   0.7422   0.716
V68     V     0.7422   0.829   0.716
Er69     Er     0.2564   0.0613   0.6627
Er70     Er     0.2564   0.9387   0.6627
Ti71     Ti     0.2573   0.0   0.5595
V72     V     0.171   0.7422   0.716
V73     V     0.2578   0.829   0.716
V74     V     0.171   0.2578   0.716
V75     V     0.2578   0.171   0.716
Er76     Er     0.0613   0.2564   0.6627
Er77     Er     0.9387   0.2564   0.6627
Ti78     Ti     0.0   0.2573   0.5595
V79     V     0.7422   0.171   0.716
V80     V     0.829   0.2578   0.716
loop_
_geom_bond_atom_site_label_1
_geom_bond_atom_site_label_2
_geom_bond_distance
_geom_bond_site_symmetry_2
_ccdc_geom_bond_type
Er1     Ti3    10.0   .     S
Er1     V15    10.0   .     S
Er1     Er2    10.0   .     S
Er2     Ti3    10.0   .     S
Er2     V5    10.0   .     S
Ti3     Ti38    10.0   1_554     S
V4     V5    10.0   .     S
V4     Er6    10.0   .     S
V4     V60    10.001   .     S
V5     V59    10.001   .     S
Er6     Ti8    10.0   .     S
Er6     Er7    10.0   .     S
Er7     Ti8    10.0   .     S
Er7     V13    10.0   .     S
Ti8     Ti30    10.0   1_554     S
Er9     Ti11    10.0   .     S
Er9     V19    10.0   .     S
Er9     Er10    10.0   .     S
Er10     Ti11    10.0   .     S
Er10     V12    10.0   .     S
Ti11     Ti33    10.0   1_554     S
V12     V13    10.0   .     S
V12     V52    10.001   .     S
V13     V53    10.001   .     S
V14     V15    10.0   .     S
V14     Er16    10.0   .     S
V14     V54    10.001   .     S
V15     V55    10.001   .     S
Er16     Ti18    10.0   .     S
Er16     Er17    10.0   .     S
Er17     Ti18    10.0   .     S
Er17     V20    10.0   .     S
Ti18     Ti23    10.0   1_554     S
V19     V20    10.0   .     S
V19     V45    10.001   .     S
V20     V44    10.001   .     S
Er21     Ti23    10.0   .     S
Er21     V27    10.0   .     S
Er21     Er22    10.0   .     S
Er22     Ti23    10.0   .     S
Er22     V25    10.0   .     S
Ti23     Ti18    10.0   1_556     S
V24     V25    10.0   .     S
V24     Er31    10.0   .     S
V24     V73    10.001   .     S
V25     V72    10.001   .     S
V26     V27    10.0   .     S
V26     Er36    10.0   .     S
V26     V75    10.001   .     S
V27     V74    10.001   .     S
Er28     Ti30    10.0   .     S
Er28     V39    10.0   .     S
Er28     Er29    10.0   .     S
Er29     Ti30    10.0   .     S
Er29     V35    10.0   .     S
Ti30     Ti8    10.0   1_556     S
Er31     Er32    10.0   .     S
Er31     Ti33    10.0   .     S
Er32     V34    10.0   .     S
Er32     Ti33    10.0   .     S
Ti33     Ti11    10.0   1_556     S
V34     V35    10.0   .     S
V34     V68    10.001   .     S
V35     V67    10.001   .     S
Er36     Ti38    10.0   .     S
Er36     Er37    10.0   .     S
Er37     Ti38    10.0   .     S
Er37     V40    10.0   .     S
Ti38     Ti3    10.0   1_556     S
V39     V40    10.0   .     S
V39     V80    10.001   .     S
V40     V79    10.001   .     S
Er41     V55    10.0   .     S
Er41     Er42    10.0   1_545     S
Er41     Ti43    10.0   .     S
Er42     V45    10.0   .     S
Er42     Er41    10.0   1_565     S
Er42     Ti43    10.0   1_565     S
Ti43     Er42    10.0   1_545     S
Ti43     Ti71    10.0   .     S
V44     V45    10.0   .     S
V44     Er46    10.0   .     S
Er46     Er47    10.0   1_455     S
Er46     Ti48    10.0   .     S
Er47     V53    10.0   .     S
Er47     Er46    10.0   1_655     S
Er47     Ti48    10.0   1_655     S
Ti48     Er47    10.0   1_455     S
Ti48     Ti66    10.0   .     S
Er49     V59    10.0   .     S
Er49     Er50    10.0   1_545     S
Er49     Ti51    10.0   .     S
Er50     V52    10.0   .     S
Er50     Er49    10.0   1_565     S
Er50     Ti51    10.0   1_565     S
Ti51     Er50    10.0   1_545     S
Ti51     Ti63    10.0   .     S
V52     V53    10.0   .     S
V54     V55    10.0   .     S
V54     Er56    10.0   .     S
Er56     Er57    10.0   1_455     S
Er56     Ti58    10.0   .     S
Er57     V60    10.0   .     S
Er57     Er56    10.0   1_655     S
Er57     Ti58    10.0   1_655     S
Ti58     Er57    10.0   1_455     S
Ti58     Ti78    10.0   .     S
V59     V60    10.0   .     S
Er61     Ti63    10.0   .     S
Er61     V79    10.0   .     S
Er61     Er62    10.0   1_545     S
Er62     Ti63    10.0   1_565     S
Er62     V68    10.0   .     S
Er62     Er61    10.0   1_565     S
Ti63     Er62    10.0   1_545     S
Er64     Ti66    10.0   .     S
Er64     V72    10.0   .     S
Er64     Er65    10.0   1_455     S
Er65     Ti66    10.0   1_655     S
Er65     V67    10.0   .     S
Er65     Er64    10.0   1_655     S
Ti66     Er65    10.0   1_455     S
V67     V68    10.0   .     S
Er69     Ti71    10.0   .     S
Er69     V75    10.0   .     S
Er69     Er70    10.0   1_545     S
Er70     Ti71    10.0   1_565     S
Er70     V73    10.0   .     S
Er70     Er69    10.0   1_565     S
Ti71     Er70    10.0   1_545     S
V72     V73    10.0   .     S
V74     V75    10.0   .     S
V74     Er76    10.0   .     S
Er76     Er77    10.0   1_455     S
Er76     Ti78    10.0   .     S
Er77     V80    10.0   .     S
Er77     Er76    10.0   1_655     S
Er77     Ti78    10.0   1_655     S
Ti78     Er77    10.0   1_455     S
V79     V80    10.0   .     S
