data_stya
_audit_creation_date              2020-02-02
_audit_creation_method            'Pymatgen'
_symmetry_space_group_name_H-M    'P1'
_symmetry_Int_Tables_number       1
loop_
_symmetry_equiv_pos_as_xyz
  x,y,z
_cell_length_a                    80.9311
_cell_length_b                    80.9311
_cell_length_c                    82.2153
_cell_angle_alpha                 90.0
_cell_angle_beta                 90.0
_cell_angle_gamma                 120.0
loop_
_atom_site_label
_atom_site_type_symbol
_atom_site_fract_x
_atom_site_fract_y
_atom_site_fract_z
V1     V     0.8274   0.5312   0.0838
Ti2     Ti     0.7657   0.5314   0.1892
Er3     Er     0.9384   0.4074   0.0307
Er4     Er     0.9384   0.531   0.0307
V5     V     0.7038   0.1726   0.0838
V6     V     0.8274   0.2962   0.0838
Ti7     Ti     0.7657   0.2343   0.1892
Er8     Er     0.5926   0.0616   0.0307
Er9     Er     0.469   0.0616   0.0307
V10     V     0.4688   0.2962   0.0838
V11     V     0.4688   0.1726   0.0838
Ti12     Ti     0.4686   0.2343   0.1892
V13     V     0.7038   0.5312   0.0838
Er14     Er     0.469   0.4074   0.0307
Er15     Er     0.5926   0.531   0.0307
V16     V     0.5312   0.8274   0.9162
Ti17     Ti     0.5314   0.7657   0.8108
Er18     Er     0.4074   0.9384   0.9693
Er19     Er     0.531   0.9384   0.9693
V20     V     0.2962   0.8274   0.9162
V21     V     0.1726   0.7038   0.9162
Ti22     Ti     0.2343   0.7657   0.8108
Er23     Er     0.0616   0.5926   0.9693
Er24     Er     0.0616   0.469   0.9693
V25     V     0.1726   0.4688   0.9162
V26     V     0.2962   0.4688   0.9162
Ti27     Ti     0.2343   0.4686   0.8108
V28     V     0.5312   0.7038   0.9162
Er29     Er     0.4074   0.469   0.9693
Er30     Er     0.531   0.5926   0.9693
V31     V     0.5312   0.8274   0.5838
V32     V     0.5312   0.7038   0.5838
Ti33     Ti     0.5314   0.7657   0.6892
Er34     Er     0.4074   0.9384   0.5307
Er35     Er     0.531   0.9384   0.5307
V36     V     0.2962   0.8274   0.5838
V37     V     0.1726   0.7038   0.5838
Ti38     Ti     0.2343   0.7657   0.6892
Er39     Er     0.0616   0.469   0.5307
Er40     Er     0.0616   0.5926   0.5307
V41     V     0.1726   0.4688   0.5838
V42     V     0.2962   0.4688   0.5838
Ti43     Ti     0.2343   0.4686   0.6892
Er44     Er     0.4074   0.469   0.5307
Er45     Er     0.531   0.5926   0.5307
Er46     Er     0.5926   0.531   0.4693
Er47     Er     0.469   0.4074   0.4693
V48     V     0.7038   0.5312   0.4162
Ti49     Ti     0.7657   0.5314   0.3108
V50     V     0.4688   0.2962   0.4162
V51     V     0.4688   0.1726   0.4162
Ti52     Ti     0.4686   0.2343   0.3108
Er53     Er     0.469   0.0616   0.4693
Er54     Er     0.5926   0.0616   0.4693
V55     V     0.8274   0.5312   0.4162
Er56     Er     0.9384   0.4074   0.4693
Er57     Er     0.9384   0.531   0.4693
V58     V     0.7038   0.1726   0.4162
V59     V     0.8274   0.2962   0.4162
Ti60     Ti     0.7657   0.2343   0.3108
loop_
_geom_bond_atom_site_label_1
_geom_bond_atom_site_label_2
_geom_bond_distance
_geom_bond_site_symmetry_2
_ccdc_geom_bond_type
V1     Er4    10.0   .     S
V1     Ti2    10.0   .     S
V1     V13    10.001   .     S
Ti2     V13    10.0   .     S
Ti2     Ti49    10.001   .     S
Er3     Er4    10.0   .     S
Er3     V6    10.0   .     S
Er3     Er24    10.001   1_654     S
Er4     Er23    10.001   1_654     S
V5     Er8    10.0   .     S
V5     V6    10.001   .     S
V5     Ti7    10.0   .     S
V6     Ti7    10.0   .     S
Ti7     Ti60    10.001   .     S
Er8     Er9    10.0   .     S
Er8     Er19    10.001   1_544     S
Er9     V11    10.0   .     S
Er9     Er18    10.001   1_544     S
V10     Er14    10.0   .     S
V10     V11    10.001   .     S
V10     Ti12    10.0   .     S
V11     Ti12    10.0   .     S
Ti12     Ti52    10.001   .     S
V13     Er15    10.0   .     S
Er14     Er15    10.0   .     S
Er14     Er29    10.001   1_554     S
Er15     Er30    10.001   1_554     S
V16     Er19    10.0   .     S
V16     Ti17    10.0   .     S
V16     V28    10.001   .     S
Ti17     V28    10.0   .     S
Ti17     Ti33    10.001   .     S
Er18     Er19    10.0   .     S
Er18     V20    10.0   .     S
Er18     Er9    10.001   1_566     S
Er19     Er8    10.001   1_566     S
V20     V21    10.001   .     S
V20     Ti22    10.0   .     S
V21     Er23    10.0   .     S
V21     Ti22    10.0   .     S
Ti22     Ti38    10.001   .     S
Er23     Er24    10.0   .     S
Er23     Er4    10.001   1_456     S
Er24     V25    10.0   .     S
Er24     Er3    10.001   1_456     S
V25     V26    10.001   .     S
V25     Ti27    10.0   .     S
V26     Er29    10.0   .     S
V26     Ti27    10.0   .     S
Ti27     Ti43    10.001   .     S
V28     Er30    10.0   .     S
Er29     Er14    10.001   1_556     S
Er29     Er30    10.0   .     S
Er30     Er15    10.001   1_556     S
V31     Er35    10.0   .     S
V31     Ti33    10.0   .     S
V31     V32    10.001   .     S
V32     Er45    10.0   .     S
V32     Ti33    10.0   .     S
Er34     Er35    10.0   .     S
Er34     V36    10.0   .     S
Er34     Er53    10.001   1_565     S
Er35     Er54    10.001   1_565     S
V36     V37    10.001   .     S
V36     Ti38    10.0   .     S
V37     Er40    10.0   .     S
V37     Ti38    10.0   .     S
Er39     Er40    10.0   .     S
Er39     V41    10.0   .     S
Er39     Er56    10.001   1_455     S
Er40     Er57    10.001   1_455     S
V41     V42    10.001   .     S
V41     Ti43    10.0   .     S
V42     Er44    10.0   .     S
V42     Ti43    10.0   .     S
Er44     Er45    10.0   .     S
Er44     Er47    10.001   .     S
Er45     Er46    10.001   .     S
Er46     Er47    10.0   .     S
Er46     V48    10.0   .     S
Er47     V50    10.0   .     S
V48     Ti49    10.0   .     S
V48     V55    10.001   .     S
Ti49     V55    10.0   .     S
V50     V51    10.001   .     S
V50     Ti52    10.0   .     S
V51     Er53    10.0   .     S
V51     Ti52    10.0   .     S
Er53     Er54    10.0   .     S
Er53     Er34    10.001   1_545     S
Er54     V58    10.0   .     S
Er54     Er35    10.001   1_545     S
V55     Er57    10.0   .     S
Er56     Er57    10.0   .     S
Er56     V59    10.0   .     S
Er56     Er39    10.001   1_655     S
Er57     Er40    10.001   1_655     S
V58     V59    10.001   .     S
V58     Ti60    10.0   .     S
V59     Ti60    10.0   .     S
