data_sum
_audit_creation_date              2020-02-02
_audit_creation_method            'Pymatgen'
_symmetry_space_group_name_H-M    'P1'
_symmetry_Int_Tables_number       1
loop_
_symmetry_equiv_pos_as_xyz
  x,y,z
_cell_length_a                    41.961
_cell_length_b                    41.961
_cell_length_c                    45.7376
_cell_angle_alpha                 90.0
_cell_angle_beta                 90.0
_cell_angle_gamma                 90.0
loop_
_atom_site_label
_atom_site_type_symbol
_atom_site_fract_x
_atom_site_fract_y
_atom_site_fract_z
Er1     Er     0.25   0.3866   0.3488
Er2     Er     0.25   0.1134   0.3488
Er3     Er     0.8866   0.75   0.1512
Er4     Er     0.6133   0.75   0.1512
V5     V     0.6308   0.9623   0.2492
V6     V     0.4623   0.1308   0.2508
Ti7     Ti     0.75   0.9259   0.4356
Ti8     Ti     0.4259   0.25   0.0644
V9     V     0.6308   0.5377   0.2492
V10     V     0.4623   0.3692   0.2508
Ti11     Ti     0.0741   0.25   0.0644
V12     V     0.0377   0.1308   0.2508
V13     V     0.8692   0.9623   0.2492
V14     V     0.0377   0.3692   0.2508
V15     V     0.8692   0.5377   0.2492
Ti16     Ti     0.75   0.5741   0.4356
Er17     Er     0.1134   0.25   0.8488
Er18     Er     0.75   0.6133   0.6512
Er19     Er     0.75   0.8866   0.6512
Er20     Er     0.3866   0.25   0.8488
Ti21     Ti     0.25   0.4259   0.5644
V22     V     0.9623   0.6308   0.7492
V23     V     0.1308   0.4623   0.7508
V24     V     0.1308   0.0377   0.7508
V25     V     0.9623   0.8692   0.7492
Ti26     Ti     0.9259   0.75   0.9356
Ti27     Ti     0.25   0.0741   0.5644
V28     V     0.3692   0.0377   0.7508
V29     V     0.5377   0.8692   0.7492
Ti30     Ti     0.5741   0.75   0.9356
V31     V     0.3692   0.4623   0.7508
V32     V     0.5377   0.6308   0.7492
loop_
_geom_bond_atom_site_label_1
_geom_bond_atom_site_label_2
_geom_bond_distance
_geom_bond_site_symmetry_2
_ccdc_geom_bond_type
Er1     Ti21    10.0   .     S
Er1     V10    10.0   .     S
Er1     V14    10.0   .     S
Er2     Ti27    10.0   .     S
Er2     V12    10.0   .     S
Er2     V6    10.0   .     S
Er3     Ti26    10.0   1_554     S
Er3     V15    10.0   .     S
Er3     V13    10.0   .     S
Er4     Ti30    10.0   1_554     S
Er4     V9    10.0   .     S
Er4     V5    10.0   .     S
V5     V6    10.0   1_565     S
V5     Ti7    10.0   .     S
V5     V13    10.0   .     S
V6     V5    10.0   1_545     S
V6     Ti8    10.0   .     S
V6     V10    10.0   .     S
Ti7     V13    10.0   .     S
Ti7     Er19    10.0   .     S
Ti8     V10    10.0   .     S
Ti8     Er20    10.0   1_554     S
V9     V10    10.0   .     S
V9     Ti16    10.0   .     S
V9     V15    10.0   .     S
Ti11     V14    10.0   .     S
Ti11     V12    10.0   .     S
Ti11     Er17    10.0   1_554     S
V12     V13    10.0   1_445     S
V12     V14    10.0   .     S
V13     V12    10.0   1_665     S
V14     V15    10.0   1_455     S
V15     V14    10.0   1_655     S
V15     Ti16    10.0   .     S
Ti16     Er18    10.0   .     S
Er17     Ti11    10.0   1_556     S
Er17     V23    10.0   .     S
Er17     V24    10.0   .     S
Er18     V32    10.0   .     S
Er18     V22    10.0   .     S
Er19     V29    10.0   .     S
Er19     V25    10.0   .     S
Er20     Ti8    10.0   1_556     S
Er20     V28    10.0   .     S
Er20     V31    10.0   .     S
Ti21     V31    10.0   .     S
Ti21     V23    10.0   .     S
V22     V23    10.0   1_655     S
V22     Ti26    10.0   .     S
V22     V25    10.0   .     S
V23     V31    10.0   .     S
V23     V22    10.0   1_455     S
V24     V25    10.0   1_445     S
V24     Ti27    10.0   .     S
V24     V28    10.0   .     S
V25     V24    10.0   1_665     S
V25     Ti26    10.0   .     S
Ti26     Er3    10.0   1_556     S
Ti27     V28    10.0   .     S
V28     V29    10.0   1_545     S
V29     V28    10.0   1_565     S
V29     Ti30    10.0   .     S
V29     V32    10.0   .     S
Ti30     Er4    10.0   1_556     S
Ti30     V32    10.0   .     S
V31     V32    10.0   .     S
