data_sura
_audit_creation_date              2020-02-02
_audit_creation_method            'Pymatgen'
_symmetry_space_group_name_H-M    'P1'
_symmetry_Int_Tables_number       1
loop_
_symmetry_equiv_pos_as_xyz
  x,y,z
_cell_length_a                    56.706
_cell_length_b                    83.5077
_cell_length_c                    58.8893
_cell_angle_alpha                 90.0
_cell_angle_beta                 90.0
_cell_angle_gamma                 90.0
loop_
_atom_site_label
_atom_site_type_symbol
_atom_site_fract_x
_atom_site_fract_y
_atom_site_fract_z
Er1     Er     0.177   0.2164   0.5849
Er2     Er     0.323   0.2836   0.5849
Ti3     Ti     0.0629   0.1636   0.6905
V4     V     0.0   0.0599   0.75
Ti5     Ti     0.9371   0.1636   0.8095
Ti6     Ti     0.4371   0.3364   0.6905
Ti7     Ti     0.5629   0.3364   0.8095
V8     V     0.5   0.4401   0.75
Er9     Er     0.823   0.2164   0.9151
Er10     Er     0.677   0.2836   0.9151
Er11     Er     0.823   0.2164   0.0849
Er12     Er     0.677   0.2836   0.0849
V13     V     0.0   0.0599   0.25
Ti14     Ti     0.0629   0.1636   0.3095
Ti15     Ti     0.9371   0.1636   0.1905
Ti16     Ti     0.4371   0.3364   0.3095
Ti17     Ti     0.5629   0.3364   0.1905
V18     V     0.5   0.4401   0.25
Er19     Er     0.177   0.2164   0.4151
Er20     Er     0.323   0.2836   0.4151
Er21     Er     0.823   0.7836   0.5849
Er22     Er     0.677   0.7164   0.5849
Ti23     Ti     0.9371   0.8364   0.6905
V24     V     0.0   0.9401   0.75
Ti25     Ti     0.0629   0.8364   0.8095
Ti26     Ti     0.5629   0.6636   0.6905
Ti27     Ti     0.4371   0.6636   0.8095
V28     V     0.5   0.5599   0.75
Er29     Er     0.177   0.7836   0.9151
Er30     Er     0.323   0.7164   0.9151
Er31     Er     0.177   0.7836   0.0849
Er32     Er     0.323   0.7164   0.0849
Ti33     Ti     0.4371   0.6636   0.1905
Ti34     Ti     0.5629   0.6636   0.3095
V35     V     0.5   0.5599   0.25
V36     V     0.0   0.9401   0.25
Ti37     Ti     0.0629   0.8364   0.1905
Ti38     Ti     0.9371   0.8364   0.3095
Er39     Er     0.823   0.7836   0.4151
Er40     Er     0.677   0.7164   0.4151
loop_
_geom_bond_atom_site_label_1
_geom_bond_atom_site_label_2
_geom_bond_distance
_geom_bond_site_symmetry_2
_ccdc_geom_bond_type
Er1     Ti3    10.0   .     S
Er1     Er2    10.0   .     S
Er1     Er19    10.001   .     S
Er2     Ti6    10.0   .     S
Er2     Er20    10.001   .     S
Ti3     V4    10.0   .     S
Ti3     Ti5    10.0   1_455     S
V4     Ti5    10.0   1_455     S
V4     V24    10.001   1_545     S
Ti5     V4    10.0   1_655     S
Ti5     Ti3    10.0   1_655     S
Ti5     Er9    10.0   .     S
Ti6     V8    10.0   .     S
Ti6     Ti7    10.0   .     S
Ti7     V8    10.0   .     S
Ti7     Er10    10.0   .     S
V8     V28    10.001   .     S
Er9     Er10    10.0   .     S
Er9     Er11    10.001   1_556     S
Er10     Er12    10.001   1_556     S
Er11     Ti15    10.0   .     S
Er11     Er12    10.0   .     S
Er11     Er9    10.001   1_554     S
Er12     Ti17    10.0   .     S
Er12     Er10    10.001   1_554     S
V13     Ti15    10.0   1_455     S
V13     Ti14    10.0   .     S
V13     V36    10.001   1_545     S
Ti14     Ti15    10.0   1_455     S
Ti14     Er19    10.0   .     S
Ti15     V13    10.0   1_655     S
Ti15     Ti14    10.0   1_655     S
Ti16     V18    10.0   .     S
Ti16     Ti17    10.0   .     S
Ti16     Er20    10.0   .     S
Ti17     V18    10.0   .     S
V18     V35    10.001   .     S
Er19     Er20    10.0   .     S
Er21     Ti23    10.0   .     S
Er21     Er22    10.0   .     S
Er21     Er39    10.001   .     S
Er22     Ti26    10.0   .     S
Er22     Er40    10.001   .     S
Ti23     V24    10.0   1_655     S
Ti23     Ti25    10.0   1_655     S
V24     Ti23    10.0   1_455     S
V24     Ti25    10.0   .     S
V24     V4    10.001   1_565     S
Ti25     Ti23    10.0   1_455     S
Ti25     Er29    10.0   .     S
Ti26     V28    10.0   .     S
Ti26     Ti27    10.0   .     S
Ti27     V28    10.0   .     S
Ti27     Er30    10.0   .     S
Er29     Er30    10.0   .     S
Er29     Er31    10.001   1_556     S
Er30     Er32    10.001   1_556     S
Er31     Ti37    10.0   .     S
Er31     Er32    10.0   .     S
Er31     Er29    10.001   1_554     S
Er32     Ti33    10.0   .     S
Er32     Er30    10.001   1_554     S
Ti33     Ti34    10.0   .     S
Ti33     V35    10.0   .     S
Ti34     V35    10.0   .     S
Ti34     Er40    10.0   .     S
V36     Ti37    10.0   .     S
V36     Ti38    10.0   1_455     S
V36     V13    10.001   1_565     S
Ti37     Ti38    10.0   1_455     S
Ti38     V36    10.0   1_655     S
Ti38     Ti37    10.0   1_655     S
Ti38     Er39    10.0   .     S
Er39     Er40    10.0   .     S
