data_svc
_audit_creation_date              2020-02-02
_audit_creation_method            'Pymatgen'
_symmetry_space_group_name_H-M    'P1'
_symmetry_Int_Tables_number       1
loop_
_symmetry_equiv_pos_as_xyz
  x,y,z
_cell_length_a                    19.3186
_cell_length_b                    19.3186
_cell_length_c                    38.6368
_cell_angle_alpha                 90.0
_cell_angle_beta                 90.0
_cell_angle_gamma                 90.0
loop_
_atom_site_label
_atom_site_type_symbol
_atom_site_fract_x
_atom_site_fract_y
_atom_site_fract_z
V1     V     0.183   0.067   0.625
V2     V     0.817   0.433   0.625
V3     V     0.317   0.067   0.375
V4     V     0.683   0.433   0.375
V5     V     0.683   0.567   0.125
V6     V     0.317   0.933   0.125
V7     V     0.817   0.567   0.875
V8     V     0.183   0.933   0.875
V9     V     0.317   0.567   0.625
V10     V     0.683   0.933   0.625
V11     V     0.183   0.567   0.375
V12     V     0.817   0.933   0.375
V13     V     0.817   0.067   0.125
V14     V     0.183   0.433   0.125
V15     V     0.683   0.067   0.875
V16     V     0.317   0.433   0.875
loop_
_geom_bond_atom_site_label_1
_geom_bond_atom_site_label_2
_geom_bond_distance
_geom_bond_site_symmetry_2
_ccdc_geom_bond_type
V1     V9    10.0   .     S
V1     V10    10.0   1_445     S
V1     V9    10.0   1_545     S
V1     V10    10.0   1_545     S
V1     V2    10.0   1_455     S
V1     V3    10.0   .     S
V1     V8    10.0   1_545     S
V2     V9    10.0   1_655     S
V2     V10    10.0   .     S
V2     V9    10.0   .     S
V2     V10    10.0   1_545     S
V2     V1    10.0   1_655     S
V2     V4    10.0   .     S
V2     V7    10.0   .     S
V3     V12    10.0   1_445     S
V3     V11    10.0   1_545     S
V3     V11    10.0   .     S
V3     V12    10.0   1_545     S
V3     V4    10.0   .     S
V3     V6    10.0   1_545     S
V4     V11    10.0   .     S
V4     V11    10.0   1_655     S
V4     V12    10.0   .     S
V4     V12    10.0   1_545     S
V4     V5    10.0   .     S
V5     V14    10.0   .     S
V5     V13    10.0   .     S
V5     V14    10.0   1_655     S
V5     V13    10.0   1_565     S
V5     V6    10.0   .     S
V5     V7    10.0   1_554     S
V6     V14    10.0   .     S
V6     V13    10.0   1_565     S
V6     V14    10.0   1_565     S
V6     V13    10.0   1_465     S
V6     V8    10.0   1_554     S
V6     V3    10.0   1_565     S
V7     V16    10.0   1_655     S
V7     V16    10.0   .     S
V7     V15    10.0   .     S
V7     V15    10.0   1_565     S
V7     V8    10.0   1_655     S
V7     V5    10.0   1_556     S
V8     V16    10.0   .     S
V8     V15    10.0   1_465     S
V8     V7    10.0   1_455     S
V8     V1    10.0   1_565     S
V8     V6    10.0   1_556     S
V8     V15    10.0   1_565     S
V8     V16    10.0   1_565     S
V9     V2    10.0   1_455     S
V9     V1    10.0   1_565     S
V9     V10    10.0   .     S
V9     V11    10.0   .     S
V9     V16    10.0   .     S
V10     V1    10.0   1_665     S
V10     V2    10.0   1_565     S
V10     V1    10.0   1_565     S
V10     V12    10.0   .     S
V10     V15    10.0   1_565     S
V11     V3    10.0   1_565     S
V11     V4    10.0   1_455     S
V11     V12    10.0   1_455     S
V11     V14    10.0   .     S
V12     V3    10.0   1_665     S
V12     V4    10.0   1_565     S
V12     V3    10.0   1_565     S
V12     V11    10.0   1_655     S
V12     V13    10.0   1_565     S
V13     V6    10.0   1_545     S
V13     V5    10.0   1_545     S
V13     V6    10.0   1_645     S
V13     V14    10.0   1_655     S
V13     V15    10.0   1_554     S
V13     V12    10.0   1_545     S
V14     V5    10.0   1_455     S
V14     V6    10.0   1_545     S
V14     V13    10.0   1_455     S
V14     V16    10.0   1_554     S
V15     V7    10.0   1_545     S
V15     V8    10.0   1_645     S
V15     V8    10.0   1_545     S
V15     V16    10.0   .     S
V15     V10    10.0   1_545     S
V15     V13    10.0   1_556     S
V16     V7    10.0   1_455     S
V16     V8    10.0   1_545     S
V16     V14    10.0   1_556     S
