data_svl
_audit_creation_date              2020-02-02
_audit_creation_method            'Pymatgen'
_symmetry_space_group_name_H-M    'P1'
_symmetry_Int_Tables_number       1
loop_
_symmetry_equiv_pos_as_xyz
  x,y,z
_cell_length_a                    28.8593
_cell_length_b                    28.8593
_cell_length_c                    28.8593
_cell_angle_alpha                 90.0
_cell_angle_beta                 90.0
_cell_angle_gamma                 90.0
loop_
_atom_site_label
_atom_site_type_symbol
_atom_site_fract_x
_atom_site_fract_y
_atom_site_fract_z
V1     V     0.5   0.2197   0.3268
V2     V     0.5   0.2197   0.6732
V3     V     0.3268   0.5   0.2197
V4     V     0.6732   0.5   0.2197
V5     V     0.2197   0.3268   0.5
V6     V     0.2197   0.6732   0.5
V7     V     0.5   0.7803   0.3268
V8     V     0.5   0.7803   0.6732
V9     V     0.7803   0.3268   0.5
V10     V     0.7803   0.6732   0.5
V11     V     0.3268   0.5   0.7803
V12     V     0.6732   0.5   0.7803
V13     V     0.1732   0.7197   0.0
V14     V     0.8268   0.7197   0.0
V15     V     0.0   0.1732   0.7197
V16     V     0.0   0.8268   0.7197
V17     V     0.7197   0.0   0.1732
V18     V     0.7197   0.0   0.8268
V19     V     0.2803   0.0   0.1732
V20     V     0.2803   0.0   0.8268
V21     V     0.0   0.1732   0.2803
V22     V     0.0   0.8268   0.2803
V23     V     0.1732   0.2803   0.0
V24     V     0.8268   0.2803   0.0
loop_
_geom_bond_atom_site_label_1
_geom_bond_atom_site_label_2
_geom_bond_distance
_geom_bond_site_symmetry_2
_ccdc_geom_bond_type
V1     V5    10.0   .     S
V1     V3    10.0   .     S
V1     V9    10.0   .     S
V1     V4    10.0   .     S
V1     V2    10.0   .     S
V1     V19    10.0   .     S
V1     V17    10.0   .     S
V2     V11    10.0   .     S
V2     V5    10.0   .     S
V2     V9    10.0   .     S
V2     V12    10.0   .     S
V2     V20    10.0   .     S
V2     V18    10.0   .     S
V3     V5    10.0   .     S
V3     V7    10.0   .     S
V3     V6    10.0   .     S
V3     V4    10.0   .     S
V3     V23    10.0   .     S
V3     V13    10.0   .     S
V4     V9    10.0   .     S
V4     V7    10.0   .     S
V4     V10    10.0   .     S
V4     V24    10.0   .     S
V4     V14    10.0   .     S
V5     V11    10.0   .     S
V5     V6    10.0   .     S
V5     V15    10.0   .     S
V5     V21    10.0   .     S
V6     V7    10.0   .     S
V6     V11    10.0   .     S
V6     V8    10.0   .     S
V6     V22    10.0   .     S
V6     V16    10.0   .     S
V7     V10    10.0   .     S
V7     V8    10.0   .     S
V7     V17    10.0   1_565     S
V7     V19    10.0   1_565     S
V8     V11    10.0   .     S
V8     V10    10.0   .     S
V8     V12    10.0   .     S
V8     V20    10.0   1_565     S
V8     V18    10.0   1_565     S
V9     V12    10.0   .     S
V9     V10    10.0   .     S
V9     V15    10.0   1_655     S
V9     V21    10.0   1_655     S
V10     V12    10.0   .     S
V10     V22    10.0   1_655     S
V10     V16    10.0   1_655     S
V11     V12    10.0   .     S
V11     V13    10.0   1_556     S
V11     V23    10.0   1_556     S
V12     V24    10.0   1_556     S
V12     V14    10.0   1_556     S
V13     V19    10.0   1_565     S
V13     V22    10.0   .     S
V13     V14    10.0   1_455     S
V13     V20    10.0   1_564     S
V13     V16    10.0   1_554     S
V13     V11    10.0   1_554     S
V14     V18    10.0   1_564     S
V14     V16    10.0   1_654     S
V14     V17    10.0   1_565     S
V14     V22    10.0   1_655     S
V14     V13    10.0   1_655     S
V14     V12    10.0   1_554     S
V15     V23    10.0   1_556     S
V15     V20    10.0   .     S
V15     V16    10.0   1_545     S
V15     V24    10.0   1_456     S
V15     V18    10.0   1_455     S
V15     V9    10.0   1_455     S
V16     V14    10.0   1_456     S
V16     V18    10.0   1_465     S
V16     V13    10.0   1_556     S
V16     V20    10.0   1_565     S
V16     V15    10.0   1_565     S
V16     V10    10.0   1_455     S
V17     V14    10.0   1_545     S
V17     V22    10.0   1_645     S
V17     V21    10.0   1_655     S
V17     V24    10.0   .     S
V17     V18    10.0   1_554     S
V17     V7    10.0   1_545     S
V18     V14    10.0   1_546     S
V18     V16    10.0   1_645     S
V18     V15    10.0   1_655     S
V18     V24    10.0   1_556     S
V18     V17    10.0   1_556     S
V18     V8    10.0   1_545     S
V19     V13    10.0   1_545     S
V19     V22    10.0   1_545     S
V19     V20    10.0   1_554     S
V19     V23    10.0   .     S
V19     V21    10.0   .     S
V19     V7    10.0   1_545     S
V20     V23    10.0   1_556     S
V20     V13    10.0   1_546     S
V20     V16    10.0   1_545     S
V20     V19    10.0   1_556     S
V20     V8    10.0   1_545     S
V21     V24    10.0   1_455     S
V21     V17    10.0   1_455     S
V21     V22    10.0   1_545     S
V21     V23    10.0   .     S
V21     V9    10.0   1_455     S
V22     V19    10.0   1_565     S
V22     V17    10.0   1_465     S
V22     V14    10.0   1_455     S
V22     V21    10.0   1_565     S
V22     V10    10.0   1_455     S
V23     V20    10.0   1_554     S
V23     V15    10.0   1_554     S
V23     V24    10.0   1_455     S
V23     V11    10.0   1_554     S
V24     V15    10.0   1_654     S
V24     V18    10.0   1_554     S
V24     V21    10.0   1_655     S
V24     V23    10.0   1_655     S
V24     V12    10.0   1_554     S
