data_svm
_audit_creation_date              2020-02-02
_audit_creation_method            'Pymatgen'
_symmetry_space_group_name_H-M    'P1'
_symmetry_Int_Tables_number       1
loop_
_symmetry_equiv_pos_as_xyz
  x,y,z
_cell_length_a                    48.2664
_cell_length_b                    48.2664
_cell_length_c                    48.2664
_cell_angle_alpha                 90.0
_cell_angle_beta                 90.0
_cell_angle_gamma                 90.0
loop_
_atom_site_label
_atom_site_type_symbol
_atom_site_fract_x
_atom_site_fract_y
_atom_site_fract_z
V1     V     0.5266   0.3252   0.5927
V2     V     0.5927   0.2234   0.4248
V3     V     0.4248   0.1573   0.5266
V4     V     0.6573   0.2234   0.8252
V5     V     0.8252   0.1573   0.7234
V6     V     0.7234   0.3252   0.6573
V7     V     0.8252   0.0927   0.5266
V8     V     0.7234   0.9248   0.5927
V9     V     0.6573   0.0266   0.4248
V10     V     0.5266   0.9248   0.6573
V11     V     0.5927   0.0266   0.8252
V12     V     0.4248   0.0927   0.7234
V13     V     0.6573   0.5266   0.9248
V14     V     0.7234   0.4248   0.0927
V15     V     0.8252   0.5927   0.0266
V16     V     0.5927   0.5266   0.3252
V17     V     0.5266   0.4248   0.1573
V18     V     0.4248   0.5927   0.2234
V19     V     0.5927   0.7234   0.9248
V20     V     0.5266   0.8252   0.0927
V21     V     0.4248   0.6573   0.0266
V22     V     0.7234   0.8252   0.1573
V23     V     0.8252   0.6573   0.2234
V24     V     0.6573   0.7234   0.3252
V25     V     0.9248   0.6573   0.5266
V26     V     0.0927   0.7234   0.4248
V27     V     0.0266   0.8252   0.5927
V28     V     0.3252   0.5927   0.5266
V29     V     0.1573   0.5266   0.4248
V30     V     0.2234   0.4248   0.5927
V31     V     0.9248   0.5927   0.7234
V32     V     0.0927   0.5266   0.8252
V33     V     0.0266   0.4248   0.6573
V34     V     0.2234   0.8252   0.6573
V35     V     0.1573   0.7234   0.8252
V36     V     0.3252   0.6573   0.7234
V37     V     0.6748   0.8427   0.7766
V38     V     0.7766   0.6748   0.8427
V39     V     0.8427   0.7766   0.6748
V40     V     0.0752   0.8427   0.9734
V41     V     0.9073   0.7766   0.0752
V42     V     0.9734   0.6748   0.9073
V43     V     0.0752   0.9073   0.7766
V44     V     0.9734   0.0752   0.8427
V45     V     0.9073   0.9734   0.6748
V46     V     0.7766   0.0752   0.9073
V47     V     0.8427   0.9734   0.0752
V48     V     0.6748   0.9073   0.9734
V49     V     0.0752   0.3427   0.4734
V50     V     0.9734   0.1748   0.4073
V51     V     0.9073   0.2766   0.5752
V52     V     0.7766   0.1748   0.3427
V53     V     0.8427   0.2766   0.1748
V54     V     0.6748   0.3427   0.2766
V55     V     0.7766   0.5752   0.4073
V56     V     0.8427   0.4734   0.5752
V57     V     0.6748   0.4073   0.4734
V58     V     0.9734   0.5752   0.3427
V59     V     0.0752   0.4073   0.2766
V60     V     0.9073   0.4734   0.1748
V61     V     0.1748   0.4073   0.9734
V62     V     0.3427   0.4734   0.0752
V63     V     0.2766   0.5752   0.9073
V64     V     0.4734   0.5752   0.8427
V65     V     0.5752   0.4073   0.7766
V66     V     0.4073   0.4734   0.6748
V67     V     0.1748   0.3427   0.7766
V68     V     0.2766   0.1748   0.8427
V69     V     0.3427   0.2766   0.6748
V70     V     0.5752   0.3427   0.9734
V71     V     0.4073   0.2766   0.0752
V72     V     0.4734   0.1748   0.9073
V73     V     0.4073   0.7766   0.5752
V74     V     0.5752   0.8427   0.4734
V75     V     0.4734   0.6748   0.4073
V76     V     0.3427   0.7766   0.1748
V77     V     0.1748   0.8427   0.2766
V78     V     0.2766   0.6748   0.3427
V79     V     0.4734   0.0752   0.3427
V80     V     0.4073   0.9734   0.1748
V81     V     0.5752   0.9073   0.2766
V82     V     0.3427   0.9734   0.5752
V83     V     0.2766   0.0752   0.4073
V84     V     0.1748   0.9073   0.4734
V85     V     0.2234   0.9248   0.0927
V86     V     0.1573   0.0266   0.9248
V87     V     0.3252   0.0927   0.0266
V88     V     0.0266   0.9248   0.1573
V89     V     0.9248   0.0927   0.2234
V90     V     0.0927   0.0266   0.3252
V91     V     0.2234   0.3252   0.1573
V92     V     0.1573   0.2234   0.3252
V93     V     0.3252   0.1573   0.2234
V94     V     0.9248   0.1573   0.0266
V95     V     0.0927   0.2234   0.9248
V96     V     0.0266   0.3252   0.0927
loop_
_geom_bond_atom_site_label_1
_geom_bond_atom_site_label_2
_geom_bond_distance
_geom_bond_site_symmetry_2
_ccdc_geom_bond_type
V1     V57    10.0   .     S
V1     V2    10.0   .     S
V1     V3    10.0   .     S
V1     V6    10.0   .     S
V1     V65    10.0   .     S
V1     V66    10.0   .     S
V1     V69    10.0   .     S
V2     V52    10.0   .     S
V2     V54    10.0   .     S
V2     V57    10.0   .     S
V2     V3    10.0   .     S
V2     V9    10.0   .     S
V2     V79    10.0   .     S
V3     V12    10.0   .     S
V3     V69    10.0   .     S
V3     V82    10.0   1_545     S
V3     V83    10.0   .     S
V3     V79    10.0   .     S
V4     V5    10.0   .     S
V4     V6    10.0   .     S
V4     V11    10.0   .     S
V4     V72    10.0   .     S
V4     V70    10.0   .     S
V4     V65    10.0   .     S
V4     V46    10.0   .     S
V5     V51    10.0   .     S
V5     V6    10.0   .     S
V5     V7    10.0   .     S
V5     V45    10.0   1_545     S
V5     V44    10.0   .     S
V5     V46    10.0   .     S
V6     V57    10.0   .     S
V6     V56    10.0   .     S
V6     V51    10.0   .     S
V6     V65    10.0   .     S
V7     V51    10.0   .     S
V7     V50    10.0   .     S
V7     V52    10.0   .     S
V7     V8    10.0   1_545     S
V7     V9    10.0   .     S
V7     V45    10.0   1_545     S
V8     V7    10.0   1_565     S
V8     V9    10.0   1_565     S
V8     V10    10.0   .     S
V8     V45    10.0   .     S
V8     V37    10.0   .     S
V8     V39    10.0   .     S
V8     V74    10.0   .     S
V9     V52    10.0   .     S
V9     V8    10.0   1_545     S
V9     V79    10.0   .     S
V9     V81    10.0   1_545     S
V9     V74    10.0   1_545     S
V10     V11    10.0   1_565     S
V10     V12    10.0   1_565     S
V10     V37    10.0   .     S
V10     V74    10.0   .     S
V10     V73    10.0   .     S
V10     V82    10.0   .     S
V11     V10    10.0   1_545     S
V11     V12    10.0   .     S
V11     V72    10.0   .     S
V11     V37    10.0   1_545     S
V11     V46    10.0   .     S
V11     V48    10.0   1_545     S
V12     V10    10.0   1_545     S
V12     V69    10.0   .     S
V12     V68    10.0   .     S
V12     V72    10.0   .     S
V12     V82    10.0   1_545     S
V13     V64    10.0   .     S
V13     V65    10.0   .     S
V13     V70    10.0   .     S
V13     V14    10.0   1_556     S
V13     V15    10.0   1_556     S
V13     V19    10.0   .     S
V13     V38    10.0   .     S
V14     V70    10.0   1_554     S
V14     V54    10.0   .     S
V14     V53    10.0   .     S
V14     V60    10.0   .     S
V14     V13    10.0   1_554     S
V14     V15    10.0   .     S
V14     V17    10.0   .     S
V15     V60    10.0   .     S
V15     V13    10.0   1_554     S
V15     V23    10.0   .     S
V15     V38    10.0   1_554     S
V15     V41    10.0   .     S
V15     V42    10.0   1_554     S
V16     V75    10.0   .     S
V16     V55    10.0   .     S
V16     V57    10.0   .     S
V16     V54    10.0   .     S
V16     V17    10.0   .     S
V16     V18    10.0   .     S
V16     V24    10.0   .     S
V17     V70    10.0   1_554     S
V17     V71    10.0   .     S
V17     V62    10.0   .     S
V17     V54    10.0   .     S
V17     V18    10.0   .     S
V18     V76    10.0   .     S
V18     V78    10.0   .     S
V18     V75    10.0   .     S
V18     V62    10.0   .     S
V18     V21    10.0   .     S
V19     V64    10.0   .     S
V19     V21    10.0   1_556     S
V19     V20    10.0   1_556     S
V19     V48    10.0   .     S
V19     V38    10.0   .     S
V19     V37    10.0   .     S
V20     V81    10.0   .     S
V20     V80    10.0   .     S
V20     V76    10.0   .     S
V20     V19    10.0   1_554     S
V20     V21    10.0   .     S
V20     V22    10.0   .     S
V20     V48    10.0   1_554     S
V21     V76    10.0   .     S
V21     V62    10.0   .     S
V21     V63    10.0   1_554     S
V21     V64    10.0   1_554     S
V21     V19    10.0   1_554     S
V22     V81    10.0   .     S
V22     V24    10.0   .     S
V22     V23    10.0   .     S
V22     V48    10.0   1_554     S
V22     V47    10.0   .     S
V22     V41    10.0   .     S
V23     V60    10.0   .     S
V23     V58    10.0   .     S
V23     V55    10.0   .     S
V23     V24    10.0   .     S
V23     V41    10.0   .     S
V24     V75    10.0   .     S
V24     V74    10.0   .     S
V24     V81    10.0   .     S
V24     V55    10.0   .     S
V25     V26    10.0   1_655     S
V25     V27    10.0   1_655     S
V25     V31    10.0   .     S
V25     V39    10.0   .     S
V25     V56    10.0   .     S
V25     V55    10.0   .     S
V25     V58    10.0   .     S
V26     V78    10.0   .     S
V26     V77    10.0   .     S
V26     V84    10.0   .     S
V26     V25    10.0   1_455     S
V26     V27    10.0   .     S
V26     V29    10.0   .     S
V26     V58    10.0   1_455     S
V27     V84    10.0   .     S
V27     V25    10.0   1_455     S
V27     V34    10.0   .     S
V27     V39    10.0   1_455     S
V27     V43    10.0   .     S
V27     V45    10.0   1_455     S
V28     V66    10.0   .     S
V28     V73    10.0   .     S
V28     V75    10.0   .     S
V28     V78    10.0   .     S
V28     V29    10.0   .     S
V28     V30    10.0   .     S
V28     V36    10.0   .     S
V29     V78    10.0   .     S
V29     V30    10.0   .     S
V29     V58    10.0   1_455     S
V29     V59    10.0   .     S
V29     V49    10.0   .     S
V30     V67    10.0   .     S
V30     V69    10.0   .     S
V30     V66    10.0   .     S
V30     V33    10.0   .     S
V30     V49    10.0   .     S
V31     V33    10.0   1_655     S
V31     V32    10.0   1_655     S
V31     V42    10.0   .     S
V31     V39    10.0   .     S
V31     V38    10.0   .     S
V31     V56    10.0   .     S
V32     V63    10.0   .     S
V32     V61    10.0   .     S
V32     V67    10.0   .     S
V32     V31    10.0   1_455     S
V32     V33    10.0   .     S
V32     V35    10.0   .     S
V32     V42    10.0   1_455     S
V33     V67    10.0   .     S
V33     V31    10.0   1_455     S
V33     V49    10.0   .     S
V33     V51    10.0   1_455     S
V33     V56    10.0   1_455     S
V34     V84    10.0   .     S
V34     V82    10.0   .     S
V34     V73    10.0   .     S
V34     V35    10.0   .     S
V34     V36    10.0   .     S
V34     V43    10.0   .     S
V35     V63    10.0   .     S
V35     V36    10.0   .     S
V35     V42    10.0   1_455     S
V35     V40    10.0   .     S
V35     V43    10.0   .     S
V36     V66    10.0   .     S
V36     V64    10.0   .     S
V36     V63    10.0   .     S
V36     V73    10.0   .     S
V37     V11    10.0   1_565     S
V37     V39    10.0   .     S
V37     V38    10.0   .     S
V37     V48    10.0   .     S
V38     V15    10.0   1_556     S
V38     V39    10.0   .     S
V38     V42    10.0   .     S
V39     V27    10.0   1_655     S
V39     V45    10.0   .     S
V40     V42    10.0   1_455     S
V40     V41    10.0   1_456     S
V40     V43    10.0   .     S
V40     V86    10.0   1_565     S
V40     V85    10.0   1_556     S
V40     V88    10.0   1_556     S
V41     V40    10.0   1_654     S
V41     V42    10.0   1_554     S
V41     V47    10.0   .     S
V41     V88    10.0   1_655     S
V42     V35    10.0   1_655     S
V42     V32    10.0   1_655     S
V42     V15    10.0   1_556     S
V42     V40    10.0   1_655     S
V42     V41    10.0   1_556     S
V43     V44    10.0   1_465     S
V43     V45    10.0   1_455     S
V43     V86    10.0   1_565     S
V44     V43    10.0   1_645     S
V44     V45    10.0   1_545     S
V44     V46    10.0   .     S
V44     V94    10.0   1_556     S
V44     V95    10.0   1_655     S
V44     V86    10.0   1_655     S
V45     V5    10.0   1_565     S
V45     V7    10.0   1_565     S
V45     V27    10.0   1_655     S
V45     V44    10.0   1_565     S
V45     V43    10.0   1_655     S
V46     V47    10.0   1_546     S
V46     V48    10.0   1_545     S
V46     V94    10.0   1_556     S
V47     V46    10.0   1_564     S
V47     V48    10.0   1_554     S
V47     V88    10.0   1_655     S
V47     V89    10.0   1_565     S
V47     V94    10.0   1_565     S
V48     V11    10.0   1_565     S
V48     V22    10.0   1_556     S
V48     V20    10.0   1_556     S
V48     V47    10.0   1_556     S
V48     V46    10.0   1_565     S
V49     V51    10.0   1_455     S
V49     V50    10.0   1_455     S
V49     V59    10.0   .     S
V49     V92    10.0   .     S
V50     V51    10.0   .     S
V50     V49    10.0   1_655     S
V50     V52    10.0   .     S
V50     V89    10.0   .     S
V50     V90    10.0   1_655     S
V50     V92    10.0   1_655     S
V51     V33    10.0   1_655     S
V51     V49    10.0   1_655     S
V51     V56    10.0   .     S
V52     V53    10.0   .     S
V52     V54    10.0   .     S
V52     V89    10.0   .     S
V53     V54    10.0   .     S
V53     V60    10.0   .     S
V53     V89    10.0   .     S
V53     V96    10.0   1_655     S
V53     V94    10.0   .     S
V54     V57    10.0   .     S
V55     V56    10.0   .     S
V55     V57    10.0   .     S
V55     V58    10.0   .     S
V56     V33    10.0   1_655     S
V56     V57    10.0   .     S
V58     V29    10.0   1_655     S
V58     V26    10.0   1_655     S
V58     V60    10.0   .     S
V58     V59    10.0   1_655     S
V59     V60    10.0   1_455     S
V59     V58    10.0   1_455     S
V59     V92    10.0   .     S
V59     V91    10.0   .     S
V59     V96    10.0   .     S
V60     V59    10.0   1_655     S
V60     V96    10.0   1_655     S
V61     V63    10.0   .     S
V61     V62    10.0   1_556     S
V61     V67    10.0   .     S
V61     V95    10.0   .     S
V61     V96    10.0   1_556     S
V61     V91    10.0   1_556     S
V62     V63    10.0   1_554     S
V62     V61    10.0   1_554     S
V62     V71    10.0   .     S
V62     V91    10.0   .     S
V63     V21    10.0   1_556     S
V63     V62    10.0   1_556     S
V63     V64    10.0   .     S
V64     V21    10.0   1_556     S
V64     V66    10.0   .     S
V64     V65    10.0   .     S
V65     V66    10.0   .     S
V65     V70    10.0   .     S
V66     V69    10.0   .     S
V67     V68    10.0   .     S
V67     V69    10.0   .     S
V67     V95    10.0   .     S
V68     V69    10.0   .     S
V68     V72    10.0   .     S
V68     V95    10.0   .     S
V68     V87    10.0   1_556     S
V68     V86    10.0   .     S
V70     V17    10.0   1_556     S
V70     V14    10.0   1_556     S
V70     V72    10.0   .     S
V70     V71    10.0   1_556     S
V71     V72    10.0   1_554     S
V71     V70    10.0   1_554     S
V71     V91    10.0   .     S
V71     V93    10.0   .     S
V71     V87    10.0   .     S
V72     V71    10.0   1_556     S
V72     V87    10.0   1_556     S
V73     V74    10.0   .     S
V73     V75    10.0   .     S
V73     V82    10.0   .     S
V74     V9    10.0   1_565     S
V74     V75    10.0   .     S
V74     V81    10.0   .     S
V75     V78    10.0   .     S
V76     V77    10.0   .     S
V76     V78    10.0   .     S
V76     V80    10.0   .     S
V76     V85    10.0   .     S
V77     V78    10.0   .     S
V77     V84    10.0   .     S
V77     V85    10.0   .     S
V77     V90    10.0   1_565     S
V77     V88    10.0   .     S
V79     V81    10.0   1_545     S
V79     V80    10.0   1_545     S
V79     V83    10.0   .     S
V79     V93    10.0   .     S
V80     V81    10.0   .     S
V80     V79    10.0   1_565     S
V80     V85    10.0   .     S
V80     V87    10.0   1_565     S
V80     V93    10.0   1_565     S
V81     V9    10.0   1_565     S
V81     V79    10.0   1_565     S
V82     V3    10.0   1_565     S
V82     V12    10.0   1_565     S
V82     V84    10.0   .     S
V82     V83    10.0   1_565     S
V83     V84    10.0   1_545     S
V83     V82    10.0   1_545     S
V83     V93    10.0   .     S
V83     V92    10.0   .     S
V83     V90    10.0   .     S
V84     V83    10.0   1_565     S
V84     V90    10.0   1_565     S
V85     V40    10.0   1_554     S
V85     V86    10.0   1_564     S
V85     V87    10.0   1_565     S
V85     V88    10.0   .     S
V86     V44    10.0   1_455     S
V86     V43    10.0   1_545     S
V86     V40    10.0   1_545     S
V86     V85    10.0   1_546     S
V86     V87    10.0   1_556     S
V86     V95    10.0   .     S
V87     V68    10.0   1_554     S
V87     V72    10.0   1_554     S
V87     V86    10.0   1_554     S
V87     V85    10.0   1_545     S
V87     V93    10.0   .     S
V87     V80    10.0   1_545     S
V88     V40    10.0   1_554     S
V88     V41    10.0   1_455     S
V88     V47    10.0   1_455     S
V88     V90    10.0   1_565     S
V88     V89    10.0   1_465     S
V89     V47    10.0   1_545     S
V89     V88    10.0   1_645     S
V89     V90    10.0   1_655     S
V89     V94    10.0   .     S
V90     V50    10.0   1_455     S
V90     V88    10.0   1_545     S
V90     V89    10.0   1_455     S
V90     V92    10.0   .     S
V90     V77    10.0   1_545     S
V90     V84    10.0   1_545     S
V91     V61    10.0   1_554     S
V91     V92    10.0   .     S
V91     V93    10.0   .     S
V91     V96    10.0   .     S
V92     V50    10.0   1_455     S
V92     V93    10.0   .     S
V93     V80    10.0   1_545     S
V94     V44    10.0   1_554     S
V94     V47    10.0   1_545     S
V94     V46    10.0   1_554     S
V94     V96    10.0   1_655     S
V94     V95    10.0   1_654     S
V95     V44    10.0   1_455     S
V95     V94    10.0   1_456     S
V95     V96    10.0   1_556     S
V96     V53    10.0   1_455     S
V96     V60    10.0   1_455     S
V96     V61    10.0   1_554     S
V96     V94    10.0   1_455     S
V96     V95    10.0   1_554     S
