data_svna
_audit_creation_date              2020-02-02
_audit_creation_method            'Pymatgen'
_symmetry_space_group_name_H-M    'P1'
_symmetry_Int_Tables_number       1
loop_
_symmetry_equiv_pos_as_xyz
  x,y,z
_cell_length_a                    51.3506
_cell_length_b                    51.3506
_cell_length_c                    51.3506
_cell_angle_alpha                 90.0
_cell_angle_beta                 90.0
_cell_angle_gamma                 90.0
loop_
_atom_site_label
_atom_site_type_symbol
_atom_site_fract_x
_atom_site_fract_y
_atom_site_fract_z
Er1     Er     0.6373   0.7157   0.4794
Er2     Er     0.7157   0.4794   0.6373
Er3     Er     0.4794   0.6373   0.7157
V4     V     0.5562   0.5562   0.5562
Ti5     Ti     0.7188   0.7959   0.637
Ti6     Ti     0.637   0.7188   0.7959
Ti7     Ti     0.7959   0.637   0.7188
Er8     Er     0.2157   0.4794   0.8627
Er9     Er     0.1373   0.7157   0.0207
Er10     Er     0.9794   0.6373   0.7843
V11     V     0.0562   0.5562   0.9438
Ti12     Ti     0.2188   0.7959   0.863
Ti13     Ti     0.2959   0.637   0.7812
Ti14     Ti     0.137   0.7188   0.7041
Er15     Er     0.4794   0.8627   0.2157
Er16     Er     0.7157   0.0207   0.1373
Er17     Er     0.6373   0.7843   0.9794
V18     V     0.5562   0.9438   0.0562
Ti19     Ti     0.7959   0.863   0.2188
Ti20     Ti     0.637   0.7812   0.2959
Ti21     Ti     0.7188   0.7041   0.137
Er22     Er     0.8627   0.2157   0.4794
Er23     Er     0.7843   0.9794   0.6373
Er24     Er     0.0207   0.1373   0.7157
V25     V     0.9438   0.0562   0.5562
Ti26     Ti     0.863   0.2188   0.7959
Ti27     Ti     0.7812   0.2959   0.637
Ti28     Ti     0.7041   0.137   0.7188
Er29     Er     0.3627   0.2157   0.0207
Er30     Er     0.2843   0.9794   0.8627
Er31     Er     0.5206   0.1373   0.7843
V32     V     0.4438   0.0562   0.9438
Ti33     Ti     0.2041   0.137   0.7812
Ti34     Ti     0.363   0.2188   0.7041
Ti35     Ti     0.2812   0.2959   0.863
Er36     Er     0.2157   0.0207   0.3627
Er37     Er     0.9794   0.8627   0.2843
Er38     Er     0.1373   0.7843   0.5206
V39     V     0.0562   0.9438   0.4438
Ti40     Ti     0.137   0.7812   0.2041
Ti41     Ti     0.2188   0.7041   0.363
Ti42     Ti     0.2959   0.863   0.2812
Er43     Er     0.0207   0.3627   0.2157
Er44     Er     0.8627   0.2843   0.9794
Er45     Er     0.7843   0.5206   0.1373
V46     V     0.9438   0.4438   0.0562
Ti47     Ti     0.7812   0.2041   0.137
Ti48     Ti     0.7041   0.363   0.2188
Ti49     Ti     0.863   0.2812   0.2959
Er50     Er     0.3627   0.2843   0.5207
Er51     Er     0.2843   0.5207   0.3627
Er52     Er     0.5207   0.3627   0.2843
V53     V     0.4438   0.4438   0.4438
Ti54     Ti     0.2812   0.2041   0.363
Ti55     Ti     0.363   0.2812   0.2041
Ti56     Ti     0.2041   0.363   0.2812
loop_
_geom_bond_atom_site_label_1
_geom_bond_atom_site_label_2
_geom_bond_distance
_geom_bond_site_symmetry_2
_ccdc_geom_bond_type
Er1     Ti20    10.0   .     S
Er1     V4    10.0   .     S
Er1     Ti5    10.0   .     S
Er2     Ti27    10.0   .     S
Er2     V4    10.0   .     S
Er2     Ti7    10.0   .     S
Er3     Ti13    10.0   .     S
Er3     V4    10.0   .     S
Er3     Ti6    10.0   .     S
V4     V53    10.001   .     S
Ti5     Ti6    10.0   .     S
Ti5     Ti7    10.0   .     S
Ti5     Er23    10.0   .     S
Ti6     Ti7    10.0   .     S
Ti6     Er17    10.0   .     S
Ti7     Er10    10.0   .     S
Er8     Ti35    10.0   .     S
Er8     V11    10.0   .     S
Er8     Ti13    10.0   .     S
Er9     Ti40    10.0   .     S
Er9     V11    10.0   1_554     S
Er9     Ti12    10.0   1_554     S
Er10     V11    10.0   1_655     S
Er10     Ti14    10.0   1_655     S
V11     Er10    10.0   1_455     S
V11     Er9    10.0   1_556     S
V11     V46    10.001   1_456     S
Ti12     Er9    10.0   1_556     S
Ti12     Ti13    10.0   .     S
Ti12     Ti14    10.0   .     S
Ti12     Er30    10.0   .     S
Ti13     Ti14    10.0   .     S
Ti14     Er10    10.0   1_455     S
Ti14     Er38    10.0   .     S
Er15     Ti42    10.0   .     S
Er15     V18    10.0   .     S
Er15     Ti20    10.0   .     S
Er16     Ti47    10.0   .     S
Er16     V18    10.0   1_545     S
Er16     Ti19    10.0   1_545     S
Er17     V18    10.0   1_556     S
Er17     Ti21    10.0   1_556     S
V18     Er17    10.0   1_554     S
V18     Er16    10.0   1_565     S
V18     V32    10.001   1_564     S
Ti19     Er16    10.0   1_565     S
Ti19     Ti20    10.0   .     S
Ti19     Ti21    10.0   .     S
Ti19     Er37    10.0   .     S
Ti20     Ti21    10.0   .     S
Ti21     Er17    10.0   1_554     S
Ti21     Er45    10.0   .     S
Er22     Ti49    10.0   .     S
Er22     V25    10.0   .     S
Er22     Ti27    10.0   .     S
Er23     V25    10.0   1_565     S
Er23     Ti28    10.0   1_565     S
Er24     Ti33    10.0   .     S
Er24     V25    10.0   1_455     S
Er24     Ti26    10.0   1_455     S
V25     Er23    10.0   1_545     S
V25     Er24    10.0   1_655     S
V25     V39    10.001   1_645     S
Ti26     Er24    10.0   1_655     S
Ti26     Ti27    10.0   .     S
Ti26     Ti28    10.0   .     S
Ti26     Er44    10.0   .     S
Ti27     Ti28    10.0   .     S
Ti28     Er23    10.0   1_545     S
Ti28     Er31    10.0   .     S
Er29     Ti55    10.0   .     S
Er29     V32    10.0   1_554     S
Er29     Ti35    10.0   1_554     S
Er30     V32    10.0   1_565     S
Er30     Ti33    10.0   1_565     S
Er31     V32    10.0   .     S
Er31     Ti34    10.0   .     S
V32     Er30    10.0   1_545     S
V32     Er29    10.0   1_556     S
V32     V18    10.001   1_546     S
Ti33     Er30    10.0   1_545     S
Ti33     Ti34    10.0   .     S
Ti33     Ti35    10.0   .     S
Ti34     Ti35    10.0   .     S
Ti34     Er50    10.0   .     S
Ti35     Er29    10.0   1_556     S
Er36     Ti54    10.0   .     S
Er36     V39    10.0   1_545     S
Er36     Ti42    10.0   1_545     S
Er37     V39    10.0   1_655     S
Er37     Ti40    10.0   1_655     S
Er38     V39    10.0   .     S
Er38     Ti41    10.0   .     S
V39     Er37    10.0   1_455     S
V39     Er36    10.0   1_565     S
V39     V25    10.001   1_465     S
Ti40     Er37    10.0   1_455     S
Ti40     Ti41    10.0   .     S
Ti40     Ti42    10.0   .     S
Ti41     Ti42    10.0   .     S
Ti41     Er51    10.0   .     S
Ti42     Er36    10.0   1_565     S
Er43     Ti56    10.0   .     S
Er43     V46    10.0   1_455     S
Er43     Ti49    10.0   1_455     S
Er44     V46    10.0   1_556     S
Er44     Ti47    10.0   1_556     S
Er45     V46    10.0   .     S
Er45     Ti48    10.0   .     S
V46     Er44    10.0   1_554     S
V46     Er43    10.0   1_655     S
V46     V11    10.001   1_654     S
Ti47     Er44    10.0   1_554     S
Ti47     Ti48    10.0   .     S
Ti47     Ti49    10.0   .     S
Ti48     Ti49    10.0   .     S
Ti48     Er52    10.0   .     S
Ti49     Er43    10.0   1_655     S
Er50     V53    10.0   .     S
Er50     Ti54    10.0   .     S
Er51     V53    10.0   .     S
Er51     Ti56    10.0   .     S
Er52     V53    10.0   .     S
Er52     Ti55    10.0   .     S
Ti54     Ti55    10.0   .     S
Ti54     Ti56    10.0   .     S
Ti55     Ti56    10.0   .     S
