data_svq
_audit_creation_date              2020-02-02
_audit_creation_method            'Pymatgen'
_symmetry_space_group_name_H-M    'P1'
_symmetry_Int_Tables_number       1
loop_
_symmetry_equiv_pos_as_xyz
  x,y,z
_cell_length_a                    32.6196
_cell_length_b                    32.6196
_cell_length_c                    16.818
_cell_angle_alpha                 90.0
_cell_angle_beta                 90.0
_cell_angle_gamma                 90.0
loop_
_atom_site_label
_atom_site_type_symbol
_atom_site_fract_x
_atom_site_fract_y
_atom_site_fract_z
V1     V     0.083   0.7997   0.5
V2     V     0.7997   0.917   0.5
V3     V     0.917   0.2003   0.5
V4     V     0.2003   0.083   0.5
V5     V     0.7997   0.083   0.0
V6     V     0.917   0.7997   0.0
V7     V     0.2003   0.917   0.0
V8     V     0.083   0.2003   0.0
V9     V     0.417   0.7003   0.0
V10     V     0.7003   0.583   0.0
V11     V     0.583   0.2997   0.0
V12     V     0.2997   0.417   0.0
V13     V     0.7003   0.417   0.5
V14     V     0.583   0.7003   0.5
V15     V     0.2997   0.583   0.5
V16     V     0.417   0.2997   0.5
loop_
_geom_bond_atom_site_label_1
_geom_bond_atom_site_label_2
_geom_bond_distance
_geom_bond_site_symmetry_2
_ccdc_geom_bond_type
V1     V6    10.0   1_456     S
V1     V7    10.0   1_556     S
V1     V4    10.0   1_565     S
V1     V2    10.0   1_455     S
V1     V6    10.0   1_455     S
V1     V7    10.0   .     S
V1     V15    10.0   .     S
V2     V6    10.0   1_556     S
V2     V5    10.0   1_566     S
V2     V3    10.0   1_565     S
V2     V1    10.0   1_655     S
V2     V5    10.0   1_565     S
V2     V6    10.0   .     S
V2     V14    10.0   .     S
V3     V8    10.0   1_656     S
V3     V5    10.0   1_556     S
V3     V2    10.0   1_545     S
V3     V4    10.0   1_655     S
V3     V5    10.0   .     S
V3     V8    10.0   1_655     S
V3     V13    10.0   .     S
V4     V7    10.0   1_546     S
V4     V8    10.0   1_556     S
V4     V1    10.0   1_545     S
V4     V3    10.0   1_455     S
V4     V8    10.0   .     S
V4     V7    10.0   1_545     S
V4     V16    10.0   .     S
V5     V3    10.0   1_554     S
V5     V2    10.0   1_544     S
V5     V2    10.0   1_545     S
V5     V8    10.0   1_655     S
V5     V6    10.0   1_545     S
V5     V11    10.0   .     S
V6     V2    10.0   1_554     S
V6     V1    10.0   1_654     S
V6     V1    10.0   1_655     S
V6     V7    10.0   1_655     S
V6     V5    10.0   1_565     S
V6     V10    10.0   .     S
V7     V1    10.0   1_554     S
V7     V4    10.0   1_564     S
V7     V4    10.0   1_565     S
V7     V6    10.0   1_455     S
V7     V8    10.0   1_565     S
V7     V9    10.0   .     S
V8     V4    10.0   1_554     S
V8     V3    10.0   1_454     S
V8     V3    10.0   1_455     S
V8     V5    10.0   1_455     S
V8     V7    10.0   1_545     S
V8     V12    10.0   .     S
V9     V14    10.0   .     S
V9     V15    10.0   .     S
V9     V12    10.0   .     S
V9     V10    10.0   .     S
V9     V14    10.0   1_554     S
V9     V15    10.0   1_554     S
V10     V13    10.0   .     S
V10     V14    10.0   .     S
V10     V11    10.0   .     S
V10     V14    10.0   1_554     S
V10     V13    10.0   1_554     S
V11     V13    10.0   .     S
V11     V16    10.0   .     S
V11     V12    10.0   .     S
V11     V16    10.0   1_554     S
V11     V13    10.0   1_554     S
V12     V16    10.0   .     S
V12     V15    10.0   .     S
V12     V15    10.0   1_554     S
V12     V16    10.0   1_554     S
V13     V11    10.0   1_556     S
V13     V10    10.0   1_556     S
V13     V16    10.0   .     S
V13     V14    10.0   .     S
V14     V10    10.0   1_556     S
V14     V9    10.0   1_556     S
V14     V15    10.0   .     S
V15     V9    10.0   1_556     S
V15     V12    10.0   1_556     S
V15     V16    10.0   .     S
V16     V12    10.0   1_556     S
V16     V11    10.0   1_556     S
