data_svy
_audit_creation_date              2020-02-02
_audit_creation_method            'Pymatgen'
_symmetry_space_group_name_H-M    'P1'
_symmetry_Int_Tables_number       1
loop_
_symmetry_equiv_pos_as_xyz
  x,y,z
_cell_length_a                    34.9558
_cell_length_b                    34.9558
_cell_length_c                    34.9558
_cell_angle_alpha                 90.0
_cell_angle_beta                 90.0
_cell_angle_gamma                 90.0
loop_
_atom_site_label
_atom_site_type_symbol
_atom_site_fract_x
_atom_site_fract_y
_atom_site_fract_z
V1     V     0.3305   0.14   0.1182
V2     V     0.1182   0.3305   0.14
V3     V     0.14   0.1182   0.3305
V4     V     0.11   0.5805   0.6318
V5     V     0.1318   0.39   0.4195
V6     V     0.9195   0.3682   0.61
V7     V     0.1695   0.86   0.6182
V8     V     0.36   0.8818   0.8305
V9     V     0.3818   0.6695   0.64
V10     V     0.39   0.5805   0.3682
V11     V     0.5805   0.3682   0.39
V12     V     0.3682   0.39   0.5805
V13     V     0.86   0.6182   0.1695
V14     V     0.8818   0.8305   0.36
V15     V     0.6695   0.64   0.3818
V16     V     0.0805   0.8682   0.89
V17     V     0.89   0.0805   0.8682
V18     V     0.8682   0.89   0.0805
V19     V     0.89   0.9195   0.6318
V20     V     0.8682   0.11   0.4195
V21     V     0.0805   0.1318   0.61
V22     V     0.6182   0.1695   0.86
V23     V     0.8305   0.36   0.8818
V24     V     0.64   0.3818   0.6695
V25     V     0.6318   0.89   0.9195
V26     V     0.4195   0.8682   0.11
V27     V     0.61   0.0805   0.1318
V28     V     0.8818   0.1695   0.14
V29     V     0.86   0.3818   0.3305
V30     V     0.6695   0.36   0.1182
V31     V     0.9195   0.6318   0.89
V32     V     0.11   0.4195   0.8682
V33     V     0.1318   0.61   0.0805
V34     V     0.14   0.8818   0.1695
V35     V     0.3305   0.86   0.3818
V36     V     0.1182   0.6695   0.36
V37     V     0.5805   0.6318   0.11
V38     V     0.3682   0.61   0.9195
V39     V     0.39   0.4195   0.1318
V40     V     0.1695   0.14   0.8818
V41     V     0.36   0.1182   0.6695
V42     V     0.3818   0.3305   0.86
V43     V     0.6182   0.8305   0.64
V44     V     0.64   0.6182   0.8305
V45     V     0.8305   0.64   0.6182
V46     V     0.61   0.9195   0.3682
V47     V     0.4195   0.1318   0.39
V48     V     0.6318   0.11   0.5805
loop_
_geom_bond_atom_site_label_1
_geom_bond_atom_site_label_2
_geom_bond_distance
_geom_bond_site_symmetry_2
_ccdc_geom_bond_type
V1     V27    10.0   .     S
V1     V26    10.0   1_545     S
V1     V39    10.0   .     S
V1     V47    10.0   .     S
V1     V3    10.0   .     S
V1     V2    10.0   .     S
V1     V40    10.0   1_554     S
V2     V33    10.0   .     S
V2     V32    10.0   1_554     S
V2     V39    10.0   .     S
V2     V3    10.0   .     S
V2     V5    10.0   .     S
V2     V28    10.0   1_455     S
V3     V21    10.0   .     S
V3     V20    10.0   1_455     S
V3     V47    10.0   .     S
V3     V5    10.0   .     S
V3     V34    10.0   1_545     S
V4     V45    10.0   1_455     S
V4     V5    10.0   .     S
V4     V6    10.0   1_455     S
V4     V7    10.0   .     S
V4     V9    10.0   .     S
V4     V36    10.0   .     S
V4     V32    10.0   .     S
V5     V29    10.0   1_455     S
V5     V6    10.0   1_455     S
V5     V36    10.0   .     S
V5     V12    10.0   .     S
V6     V45    10.0   .     S
V6     V29    10.0   .     S
V6     V5    10.0   1_655     S
V6     V4    10.0   1_655     S
V6     V24    10.0   .     S
V6     V23    10.0   .     S
V6     V21    10.0   1_655     S
V7     V9    10.0   .     S
V7     V8    10.0   .     S
V7     V16    10.0   .     S
V7     V19    10.0   1_455     S
V7     V21    10.0   1_565     S
V7     V35    10.0   .     S
V8     V38    10.0   .     S
V8     V26    10.0   1_556     S
V8     V25    10.0   .     S
V8     V9    10.0   .     S
V8     V16    10.0   .     S
V8     V41    10.0   1_565     S
V9     V38    10.0   .     S
V9     V12    10.0   .     S
V9     V10    10.0   .     S
V9     V43    10.0   .     S
V10     V15    10.0   .     S
V10     V12    10.0   .     S
V10     V11    10.0   .     S
V10     V35    10.0   .     S
V10     V36    10.0   .     S
V10     V39    10.0   .     S
V11     V24    10.0   .     S
V11     V15    10.0   .     S
V11     V12    10.0   .     S
V11     V29    10.0   .     S
V11     V30    10.0   .     S
V11     V47    10.0   .     S
V12     V24    10.0   .     S
V12     V42    10.0   .     S
V12     V41    10.0   .     S
V13     V37    10.0   .     S
V13     V14    10.0   .     S
V13     V15    10.0   .     S
V13     V18    10.0   .     S
V13     V31    10.0   1_554     S
V13     V33    10.0   1_655     S
V13     V29    10.0   .     S
V14     V20    10.0   1_565     S
V14     V19    10.0   .     S
V14     V46    10.0   .     S
V14     V15    10.0   .     S
V14     V18    10.0   .     S
V14     V36    10.0   1_655     S
V15     V37    10.0   .     S
V15     V46    10.0   .     S
V15     V45    10.0   .     S
V16     V40    10.0   1_565     S
V16     V34    10.0   1_556     S
V16     V17    10.0   1_465     S
V16     V18    10.0   1_456     S
V16     V31    10.0   1_455     S
V17     V40    10.0   1_655     S
V17     V28    10.0   1_556     S
V17     V23    10.0   .     S
V17     V22    10.0   .     S
V17     V18    10.0   1_546     S
V17     V16    10.0   1_645     S
V17     V19    10.0   1_545     S
V18     V34    10.0   1_655     S
V18     V28    10.0   1_565     S
V18     V17    10.0   1_564     S
V18     V16    10.0   1_654     S
V18     V25    10.0   1_554     S
V19     V7    10.0   1_655     S
V19     V20    10.0   1_565     S
V19     V21    10.0   1_665     S
V19     V45    10.0   .     S
V19     V43    10.0   .     S
V19     V17    10.0   1_565     S
V20     V3    10.0   1_655     S
V20     V14    10.0   1_545     S
V20     V21    10.0   1_655     S
V20     V19    10.0   1_545     S
V20     V28    10.0   .     S
V20     V29    10.0   .     S
V20     V48    10.0   .     S
V21     V41    10.0   .     S
V21     V40    10.0   .     S
V21     V7    10.0   1_545     S
V21     V20    10.0   1_455     S
V21     V19    10.0   1_445     S
V21     V6    10.0   1_455     S
V22     V48    10.0   .     S
V22     V24    10.0   .     S
V22     V23    10.0   .     S
V22     V25    10.0   1_545     S
V22     V27    10.0   1_556     S
V22     V42    10.0   .     S
V23     V32    10.0   1_655     S
V23     V31    10.0   .     S
V23     V24    10.0   .     S
V23     V30    10.0   1_556     S
V24     V48    10.0   .     S
V24     V44    10.0   .     S
V25     V22    10.0   1_565     S
V25     V26    10.0   1_556     S
V25     V27    10.0   1_566     S
V25     V43    10.0   .     S
V25     V44    10.0   .     S
V25     V18    10.0   1_556     S
V26     V1    10.0   1_565     S
V26     V8    10.0   1_554     S
V26     V25    10.0   1_554     S
V26     V27    10.0   1_565     S
V26     V34    10.0   .     S
V26     V35    10.0   .     S
V26     V37    10.0   .     S
V27     V22    10.0   1_554     S
V27     V26    10.0   1_545     S
V27     V25    10.0   1_544     S
V27     V30    10.0   .     S
V27     V28    10.0   .     S
V27     V46    10.0   1_545     S
V28     V18    10.0   1_545     S
V28     V17    10.0   1_554     S
V28     V29    10.0   .     S
V28     V30    10.0   .     S
V28     V2    10.0   1_655     S
V29     V5    10.0   1_655     S
V29     V30    10.0   .     S
V30     V39    10.0   .     S
V30     V37    10.0   .     S
V30     V23    10.0   1_554     S
V31     V13    10.0   1_556     S
V31     V33    10.0   1_656     S
V31     V32    10.0   1_655     S
V31     V44    10.0   .     S
V31     V45    10.0   .     S
V31     V16    10.0   1_655     S
V32     V2    10.0   1_556     S
V32     V23    10.0   1_455     S
V32     V31    10.0   1_455     S
V32     V33    10.0   1_556     S
V32     V40    10.0   .     S
V32     V42    10.0   .     S
V33     V13    10.0   1_455     S
V33     V31    10.0   1_454     S
V33     V32    10.0   1_554     S
V33     V36    10.0   .     S
V33     V34    10.0   .     S
V33     V38    10.0   1_554     S
V34     V16    10.0   1_554     S
V34     V18    10.0   1_455     S
V34     V36    10.0   .     S
V34     V35    10.0   .     S
V34     V3    10.0   1_565     S
V35     V36    10.0   .     S
V35     V46    10.0   .     S
V35     V47    10.0   1_565     S
V36     V14    10.0   1_455     S
V37     V44    10.0   1_554     S
V37     V38    10.0   1_554     S
V37     V39    10.0   .     S
V38     V44    10.0   .     S
V38     V42    10.0   .     S
V38     V37    10.0   1_556     S
V38     V39    10.0   1_556     S
V38     V33    10.0   1_556     S
V39     V42    10.0   1_554     S
V39     V38    10.0   1_554     S
V40     V17    10.0   1_455     S
V40     V16    10.0   1_545     S
V40     V41    10.0   .     S
V40     V42    10.0   .     S
V40     V1    10.0   1_556     S
V41     V47    10.0   .     S
V41     V48    10.0   .     S
V41     V42    10.0   .     S
V41     V8    10.0   1_545     S
V42     V39    10.0   1_556     S
V43     V44    10.0   .     S
V43     V45    10.0   .     S
V43     V48    10.0   1_565     S
V43     V46    10.0   .     S
V44     V37    10.0   1_556     S
V44     V45    10.0   .     S
V45     V4    10.0   1_655     S
V46     V47    10.0   1_565     S
V46     V48    10.0   1_565     S
V46     V27    10.0   1_565     S
V47     V35    10.0   1_545     S
V47     V48    10.0   .     S
V47     V46    10.0   1_545     S
V48     V43    10.0   1_545     S
V48     V46    10.0   1_545     S
