data_svz
_audit_creation_date              2020-02-02
_audit_creation_method            'Pymatgen'
_symmetry_space_group_name_H-M    'P1'
_symmetry_Int_Tables_number       1
loop_
_symmetry_equiv_pos_as_xyz
  x,y,z
_cell_length_a                    36.9072
_cell_length_b                    36.9072
_cell_length_c                    36.9072
_cell_angle_alpha                 90.0
_cell_angle_beta                 90.0
_cell_angle_gamma                 90.0
loop_
_atom_site_label
_atom_site_type_symbol
_atom_site_fract_x
_atom_site_fract_y
_atom_site_fract_z
V1     V     0.6854   0.4012   0.9304
V2     V     0.8146   0.5696   0.0988
V3     V     0.9012   0.3146   0.0696
V4     V     0.0696   0.1854   0.9012
V5     V     0.9304   0.0988   0.6854
V6     V     0.0988   0.9304   0.8146
V7     V     0.4012   0.6854   0.5696
V8     V     0.5696   0.8146   0.4012
V9     V     0.1854   0.0696   0.5988
V10     V     0.3146   0.9012   0.4304
V11     V     0.4304   0.5988   0.3146
V12     V     0.5988   0.4304   0.1854
V13     V     0.5696   0.6854   0.0988
V14     V     0.4012   0.8146   0.9304
V15     V     0.3146   0.5988   0.0696
V16     V     0.1854   0.4304   0.9012
V17     V     0.0988   0.5696   0.6854
V18     V     0.9304   0.4012   0.8146
V19     V     0.0696   0.3146   0.5988
V20     V     0.9012   0.1854   0.4304
V21     V     0.6854   0.0988   0.5696
V22     V     0.8146   0.9304   0.4012
V23     V     0.5988   0.0696   0.3146
V24     V     0.4304   0.9012   0.1854
V25     V     0.9012   0.4304   0.3146
V26     V     0.0696   0.5988   0.1854
V27     V     0.6854   0.5696   0.4012
V28     V     0.8146   0.4012   0.5696
V29     V     0.5988   0.3146   0.4304
V30     V     0.4304   0.1854   0.5988
V31     V     0.4012   0.9304   0.6854
V32     V     0.5696   0.0988   0.8146
V33     V     0.3146   0.0696   0.9012
V34     V     0.1854   0.9012   0.0696
V35     V     0.0988   0.6854   0.9304
V36     V     0.9304   0.8146   0.0988
V37     V     0.0696   0.9012   0.3146
V38     V     0.9012   0.0696   0.1854
V39     V     0.9304   0.6854   0.4012
V40     V     0.0988   0.8146   0.5696
V41     V     0.6854   0.9304   0.0988
V42     V     0.8146   0.0988   0.9304
V43     V     0.5988   0.1854   0.0696
V44     V     0.4304   0.3146   0.9012
V45     V     0.5696   0.4012   0.6854
V46     V     0.4012   0.5696   0.8146
V47     V     0.1854   0.5988   0.4304
V48     V     0.3146   0.4304   0.5988
loop_
_geom_bond_atom_site_label_1
_geom_bond_atom_site_label_2
_geom_bond_distance
_geom_bond_site_symmetry_2
_ccdc_geom_bond_type
V1     V43    10.0   1_556     S
V1     V12    10.0   1_556     S
V1     V2    10.0   1_556     S
V1     V3    10.0   1_556     S
V1     V44    10.0   .     S
V1     V45    10.0   .     S
V1     V18    10.0   .     S
V2     V25    10.0   .     S
V2     V3    10.0   .     S
V2     V1    10.0   1_554     S
V2     V12    10.0   .     S
V2     V13    10.0   .     S
V2     V26    10.0   1_655     S
V2     V36    10.0   .     S
V3     V1    10.0   1_554     S
V3     V18    10.0   1_554     S
V3     V4    10.0   1_654     S
V3     V25    10.0   .     S
V3     V42    10.0   1_554     S
V3     V38    10.0   .     S
V4     V5    10.0   1_455     S
V4     V42    10.0   1_455     S
V4     V3    10.0   1_456     S
V4     V6    10.0   1_545     S
V4     V33    10.0   .     S
V4     V18    10.0   1_455     S
V4     V16    10.0   .     S
V5     V4    10.0   1_655     S
V5     V19    10.0   1_655     S
V5     V9    10.0   1_655     S
V5     V6    10.0   1_645     S
V5     V20    10.0   .     S
V5     V21    10.0   .     S
V5     V42    10.0   .     S
V6     V33    10.0   1_565     S
V6     V4    10.0   1_565     S
V6     V5    10.0   1_465     S
V6     V9    10.0   1_565     S
V6     V34    10.0   1_556     S
V6     V35    10.0   .     S
V6     V40    10.0   .     S
V7     V47    10.0   .     S
V7     V11    10.0   .     S
V7     V8    10.0   .     S
V7     V10    10.0   .     S
V7     V31    10.0   .     S
V7     V48    10.0   .     S
V7     V46    10.0   .     S
V8     V24    10.0   .     S
V8     V10    10.0   .     S
V8     V11    10.0   .     S
V8     V27    10.0   .     S
V8     V23    10.0   1_565     S
V8     V22    10.0   .     S
V9     V5    10.0   1_455     S
V9     V6    10.0   1_545     S
V9     V40    10.0   1_545     S
V9     V10    10.0   1_545     S
V9     V19    10.0   .     S
V9     V31    10.0   1_545     S
V9     V30    10.0   .     S
V10     V31    10.0   .     S
V10     V9    10.0   1_565     S
V10     V24    10.0   .     S
V10     V40    10.0   .     S
V10     V37    10.0   .     S
V11     V27    10.0   .     S
V11     V12    10.0   .     S
V11     V47    10.0   .     S
V11     V13    10.0   .     S
V11     V15    10.0   .     S
V12     V1    10.0   1_554     S
V12     V13    10.0   .     S
V12     V43    10.0   .     S
V12     V27    10.0   .     S
V12     V29    10.0   .     S
V13     V15    10.0   .     S
V13     V14    10.0   1_554     S
V13     V24    10.0   .     S
V13     V41    10.0   .     S
V14     V34    10.0   1_556     S
V14     V24    10.0   1_556     S
V14     V13    10.0   1_556     S
V14     V15    10.0   1_556     S
V14     V33    10.0   1_565     S
V14     V46    10.0   .     S
V14     V31    10.0   .     S
V15     V14    10.0   1_554     S
V15     V46    10.0   1_554     S
V15     V16    10.0   1_554     S
V15     V35    10.0   1_554     S
V15     V26    10.0   .     S
V16     V17    10.0   .     S
V16     V35    10.0   .     S
V16     V15    10.0   1_556     S
V16     V18    10.0   1_455     S
V16     V46    10.0   .     S
V16     V44    10.0   .     S
V17     V48    10.0   .     S
V17     V19    10.0   .     S
V17     V18    10.0   1_455     S
V17     V35    10.0   .     S
V17     V47    10.0   .     S
V17     V40    10.0   .     S
V18     V3    10.0   1_556     S
V18     V4    10.0   1_655     S
V18     V16    10.0   1_655     S
V18     V17    10.0   1_655     S
V18     V19    10.0   1_655     S
V18     V28    10.0   .     S
V19     V5    10.0   1_455     S
V19     V18    10.0   1_455     S
V19     V28    10.0   1_455     S
V19     V20    10.0   1_455     S
V19     V48    10.0   .     S
V20     V21    10.0   .     S
V20     V19    10.0   1_655     S
V20     V22    10.0   1_545     S
V20     V38    10.0   .     S
V20     V28    10.0   .     S
V20     V25    10.0   .     S
V21     V29    10.0   .     S
V21     V23    10.0   .     S
V21     V22    10.0   1_545     S
V21     V30    10.0   .     S
V21     V32    10.0   .     S
V22     V38    10.0   1_565     S
V22     V20    10.0   1_565     S
V22     V21    10.0   1_565     S
V22     V23    10.0   1_565     S
V22     V37    10.0   1_655     S
V22     V39    10.0   .     S
V23     V22    10.0   1_545     S
V23     V8    10.0   1_545     S
V23     V24    10.0   1_545     S
V23     V29    10.0   .     S
V23     V41    10.0   1_545     S
V23     V43    10.0   .     S
V24     V14    10.0   1_554     S
V24     V41    10.0   .     S
V24     V23    10.0   1_565     S
V24     V34    10.0   .     S
V25     V27    10.0   .     S
V25     V39    10.0   .     S
V25     V26    10.0   1_655     S
V25     V28    10.0   .     S
V26     V36    10.0   1_455     S
V26     V2    10.0   1_455     S
V26     V25    10.0   1_455     S
V26     V35    10.0   1_554     S
V26     V39    10.0   1_455     S
V26     V47    10.0   .     S
V27     V39    10.0   .     S
V27     V29    10.0   .     S
V27     V28    10.0   .     S
V28     V19    10.0   1_655     S
V28     V29    10.0   .     S
V28     V45    10.0   .     S
V29     V45    10.0   .     S
V29     V30    10.0   .     S
V30     V32    10.0   .     S
V30     V31    10.0   1_545     S
V30     V45    10.0   .     S
V30     V48    10.0   .     S
V31     V9    10.0   1_565     S
V31     V30    10.0   1_565     S
V31     V32    10.0   1_565     S
V31     V33    10.0   1_565     S
V32     V44    10.0   .     S
V32     V33    10.0   .     S
V32     V31    10.0   1_545     S
V32     V43    10.0   1_556     S
V32     V42    10.0   .     S
V33     V6    10.0   1_545     S
V33     V31    10.0   1_545     S
V33     V14    10.0   1_545     S
V33     V34    10.0   1_546     S
V33     V44    10.0   .     S
V34     V14    10.0   1_554     S
V34     V35    10.0   1_554     S
V34     V6    10.0   1_554     S
V34     V33    10.0   1_564     S
V34     V36    10.0   1_455     S
V34     V37    10.0   .     S
V35     V34    10.0   1_556     S
V35     V15    10.0   1_556     S
V35     V26    10.0   1_556     S
V35     V36    10.0   1_456     S
V36     V26    10.0   1_655     S
V36     V37    10.0   1_655     S
V36     V34    10.0   1_655     S
V36     V35    10.0   1_654     S
V36     V38    10.0   1_565     S
V36     V41    10.0   .     S
V37     V36    10.0   1_455     S
V37     V39    10.0   1_455     S
V37     V22    10.0   1_455     S
V37     V38    10.0   1_465     S
V37     V40    10.0   .     S
V38     V22    10.0   1_545     S
V38     V41    10.0   1_545     S
V38     V36    10.0   1_545     S
V38     V37    10.0   1_645     S
V38     V42    10.0   1_554     S
V39     V37    10.0   1_655     S
V39     V26    10.0   1_655     S
V39     V47    10.0   1_655     S
V39     V40    10.0   1_655     S
V40     V9    10.0   1_565     S
V40     V39    10.0   1_455     S
V40     V47    10.0   .     S
V41     V38    10.0   1_565     S
V41     V23    10.0   1_565     S
V41     V43    10.0   1_565     S
V41     V42    10.0   1_564     S
V42     V4    10.0   1_655     S
V42     V3    10.0   1_556     S
V42     V38    10.0   1_556     S
V42     V41    10.0   1_546     S
V42     V43    10.0   1_556     S
V43     V1    10.0   1_554     S
V43     V41    10.0   1_545     S
V43     V42    10.0   1_554     S
V43     V32    10.0   1_554     S
V43     V44    10.0   1_554     S
V44     V45    10.0   .     S
V44     V43    10.0   1_556     S
V44     V46    10.0   .     S
V45     V48    10.0   .     S
V45     V46    10.0   .     S
V46     V15    10.0   1_556     S
V46     V48    10.0   .     S
V47     V39    10.0   1_455     S
V47     V48    10.0   .     S
