data_swq
_audit_creation_date              2020-02-02
_audit_creation_method            'Pymatgen'
_symmetry_space_group_name_H-M    'P1'
_symmetry_Int_Tables_number       1
loop_
_symmetry_equiv_pos_as_xyz
  x,y,z
_cell_length_a                    37.6622
_cell_length_b                    37.6622
_cell_length_c                    37.6622
_cell_angle_alpha                 90.0
_cell_angle_beta                 90.0
_cell_angle_gamma                 90.0
loop_
_atom_site_label
_atom_site_type_symbol
_atom_site_fract_x
_atom_site_fract_y
_atom_site_fract_z
V1     V     0.8078   0.8957   0.2458
V2     V     0.8078   0.1043   0.2543
V3     V     0.8957   0.2458   0.8078
V4     V     0.1043   0.2543   0.8078
V5     V     0.7542   0.6922   0.8957
V6     V     0.7458   0.6922   0.1043
V7     V     0.2542   0.8078   0.1043
V8     V     0.2458   0.8078   0.8957
V9     V     0.3957   0.7458   0.3078
V10     V     0.6043   0.7542   0.3078
V11     V     0.8957   0.7542   0.6922
V12     V     0.1043   0.7458   0.6922
V13     V     0.3078   0.6043   0.7542
V14     V     0.3078   0.3957   0.7458
V15     V     0.6922   0.8957   0.7542
V16     V     0.6922   0.1043   0.7458
V17     V     0.6043   0.2458   0.1922
V18     V     0.3957   0.2542   0.1922
V19     V     0.2458   0.1922   0.6043
V20     V     0.2542   0.1922   0.3957
V21     V     0.1922   0.6043   0.2458
V22     V     0.1922   0.3957   0.2542
V23     V     0.7458   0.3078   0.3957
V24     V     0.7542   0.3078   0.6043
V25     V     0.5578   0.5043   0.1457
V26     V     0.5578   0.4958   0.3543
V27     V     0.1457   0.5578   0.5043
V28     V     0.3543   0.5578   0.4958
V29     V     0.5043   0.1457   0.5578
V30     V     0.4958   0.3543   0.5578
V31     V     0.9958   0.8543   0.0578
V32     V     0.0043   0.6457   0.0578
V33     V     0.8543   0.0578   0.9958
V34     V     0.6457   0.0578   0.0043
V35     V     0.9422   0.5043   0.8543
V36     V     0.9422   0.4958   0.6457
V37     V     0.0578   0.9958   0.8543
V38     V     0.0578   0.0043   0.6457
V39     V     0.9958   0.1457   0.4422
V40     V     0.0043   0.3543   0.4422
V41     V     0.8543   0.9422   0.5042
V42     V     0.6457   0.9422   0.4958
V43     V     0.4422   0.9958   0.1457
V44     V     0.4422   0.0043   0.3543
V45     V     0.5043   0.8543   0.9422
V46     V     0.4958   0.6457   0.9422
V47     V     0.1457   0.4422   0.9958
V48     V     0.3543   0.4422   0.0043
loop_
_geom_bond_atom_site_label_1
_geom_bond_atom_site_label_2
_geom_bond_distance
_geom_bond_site_symmetry_2
_ccdc_geom_bond_type
V1     V6    9.621   .     S
V1     V10    9.621   .     S
V1     V31    10.131   .     S
V1     V2    7.864   1_565     S
V1     V41    10.046   .     S
V1     V42    11.358   .     S
V1     V33    11.358   1_564     S
V2     V23    9.621   .     S
V2     V17    9.621   .     S
V2     V39    10.131   .     S
V2     V1    7.864   1_545     S
V2     V33    10.046   1_554     S
V2     V41    11.358   1_545     S
V2     V34    11.358   .     S
V3     V16    9.621   .     S
V3     V24    9.621   .     S
V3     V33    10.131   .     S
V3     V4    7.864   1_655     S
V3     V35    10.046   .     S
V3     V36    11.358   .     S
V3     V37    11.358   1_645     S
V4     V19    9.621   .     S
V4     V14    9.621   .     S
V4     V47    10.131   .     S
V4     V3    7.864   1_455     S
V4     V37    10.046   1_545     S
V4     V35    11.358   1_455     S
V4     V38    11.358   .     S
V5     V15    9.621   .     S
V5     V11    9.621   .     S
V5     V35    10.131   .     S
V5     V6    7.864   1_556     S
V5     V46    10.046   .     S
V5     V45    11.358   .     S
V5     V32    11.358   1_656     S
V6     V10    9.621   .     S
V6     V25    10.131   .     S
V6     V5    7.864   1_554     S
V6     V32    10.046   1_655     S
V6     V46    11.358   1_554     S
V6     V31    11.358   .     S
V7     V9    9.621   .     S
V7     V21    9.621   .     S
V7     V43    10.131   .     S
V7     V8    7.864   1_554     S
V7     V31    10.046   1_455     S
V7     V45    11.358   1_554     S
V7     V32    11.358   .     S
V8     V12    9.621   .     S
V8     V13    9.621   .     S
V8     V37    10.131   .     S
V8     V7    7.864   1_556     S
V8     V45    10.046   .     S
V8     V46    11.358   .     S
V8     V31    11.358   1_456     S
V9     V21    9.621   .     S
V9     V28    10.131   .     S
V9     V10    7.864   .     S
V9     V44    10.046   1_565     S
V9     V43    11.358   .     S
V9     V26    11.358   .     S
V10     V42    10.131   .     S
V10     V26    10.046   .     S
V10     V44    11.358   1_565     S
V10     V25    11.358   .     S
V11     V15    9.621   .     S
V11     V41    10.131   .     S
V11     V12    7.864   1_655     S
V11     V36    10.046   .     S
V11     V35    11.358   .     S
V11     V38    11.358   1_665     S
V12     V13    9.621   .     S
V12     V27    10.131   .     S
V12     V11    7.864   1_455     S
V12     V38    10.046   1_565     S
V12     V36    11.358   1_455     S
V12     V37    11.358   .     S
V13     V46    10.131   .     S
V13     V14    7.864   .     S
V13     V28    10.046   .     S
V13     V48    11.358   1_556     S
V13     V27    11.358   .     S
V14     V19    9.621   .     S
V14     V30    10.131   .     S
V14     V48    10.046   1_556     S
V14     V47    11.358   .     S
V14     V28    11.358   .     S
V15     V45    10.131   .     S
V15     V16    7.864   1_565     S
V15     V42    10.046   .     S
V15     V34    11.358   1_566     S
V15     V41    11.358   .     S
V16     V24    9.621   .     S
V16     V29    10.131   .     S
V16     V15    7.864   1_545     S
V16     V34    10.046   1_556     S
V16     V33    11.358   .     S
V16     V42    11.358   1_545     S
V17     V23    9.621   .     S
V17     V34    10.131   .     S
V17     V18    7.864   .     S
V17     V25    10.046   .     S
V17     V43    11.358   1_545     S
V17     V26    11.358   .     S
V18     V22    9.621   .     S
V18     V20    9.621   .     S
V18     V48    10.131   .     S
V18     V43    10.046   1_545     S
V18     V44    11.358   .     S
V18     V25    11.358   .     S
V19     V38    10.131   .     S
V19     V20    7.864   .     S
V19     V29    10.046   .     S
V19     V39    11.358   1_455     S
V19     V30    11.358   .     S
V20     V22    9.621   .     S
V20     V44    10.131   .     S
V20     V39    10.046   1_455     S
V20     V40    11.358   .     S
V20     V29    11.358   .     S
V21     V32    10.131   .     S
V21     V22    7.864   .     S
V21     V27    10.046   .     S
V21     V28    11.358   .     S
V21     V47    11.358   1_554     S
V22     V40    10.131   .     S
V22     V47    10.046   1_554     S
V22     V27    11.358   .     S
V22     V48    11.358   .     S
V23     V26    10.131   .     S
V23     V24    7.864   .     S
V23     V40    10.046   1_655     S
V23     V39    11.358   .     S
V23     V30    11.358   .     S
V24     V36    10.131   .     S
V24     V30    10.046   .     S
V24     V40    11.358   1_655     S
V24     V29    11.358   .     S
V25     V48    9.621   .     S
V25     V46    9.621   1_554     S
V25     V26    7.864   .     S
V26     V28    9.621   .     S
V26     V30    9.621   .     S
V27     V40    9.621   .     S
V27     V36    9.621   1_455     S
V27     V28    7.864   .     S
V28     V30    9.621   .     S
V29     V44    9.621   .     S
V29     V42    9.621   1_545     S
V29     V30    7.864   .     S
V31     V37    9.621   1_654     S
V31     V33    9.621   1_564     S
V31     V32    7.864   1_655     S
V31     V7    10.046   1_655     S
V31     V8    11.358   1_654     S
V32     V35    9.621   1_454     S
V32     V47    9.621   1_554     S
V32     V31    7.864   1_455     S
V32     V6    10.046   1_455     S
V32     V5    11.358   1_454     S
V33     V37    9.621   1_645     S
V33     V31    9.621   1_546     S
V33     V34    7.864   1_556     S
V33     V2    10.046   1_556     S
V33     V1    11.358   1_546     S
V34     V45    9.621   1_544     S
V34     V43    9.621   1_545     S
V34     V33    7.864   1_554     S
V34     V16    10.046   1_554     S
V34     V15    11.358   1_544     S
V35     V47    9.621   1_655     S
V35     V32    9.621   1_656     S
V35     V36    7.864   .     S
V35     V4    11.358   1_655     S
V36     V27    9.621   1_655     S
V36     V40    9.621   1_655     S
V36     V12    11.358   1_655     S
V37     V33    9.621   1_465     S
V37     V31    9.621   1_456     S
V37     V38    7.864   1_565     S
V37     V4    10.046   1_565     S
V37     V3    11.358   1_465     S
V38     V39    9.621   1_455     S
V38     V41    9.621   1_445     S
V38     V37    7.864   1_545     S
V38     V12    10.046   1_545     S
V38     V11    11.358   1_445     S
V39     V38    9.621   1_655     S
V39     V41    9.621   1_545     S
V39     V40    7.864   1_655     S
V39     V20    10.046   1_655     S
V39     V19    11.358   1_655     S
V40     V36    9.621   1_455     S
V40     V39    7.864   1_455     S
V40     V23    10.046   1_455     S
V40     V24    11.358   1_455     S
V41     V39    9.621   1_565     S
V41     V38    9.621   1_665     S
V41     V42    7.864   .     S
V41     V2    11.358   1_565     S
V42     V29    9.621   1_565     S
V42     V44    9.621   1_565     S
V42     V16    11.358   1_565     S
V43     V45    9.621   1_554     S
V43     V34    9.621   1_565     S
V43     V44    7.864   1_565     S
V43     V18    10.046   1_565     S
V43     V17    11.358   1_565     S
V44     V42    9.621   1_545     S
V44     V43    7.864   1_545     S
V44     V9    10.046   1_545     S
V44     V10    11.358   1_545     S
V45     V43    9.621   1_556     S
V45     V34    9.621   1_566     S
V45     V46    7.864   .     S
V45     V7    11.358   1_556     S
V46     V25    9.621   1_556     S
V46     V48    9.621   1_556     S
V46     V6    11.358   1_556     S
V47     V35    9.621   1_455     S
V47     V32    9.621   1_556     S
V47     V48    7.864   1_556     S
V47     V22    10.046   1_556     S
V47     V21    11.358   1_556     S
V48     V46    9.621   1_554     S
V48     V47    7.864   1_554     S
V48     V14    10.046   1_554     S
V48     V13    11.358   1_554     S
