data_sxg
_audit_creation_date              2020-02-02
_audit_creation_method            'Pymatgen'
_symmetry_space_group_name_H-M    'P1'
_symmetry_Int_Tables_number       1
loop_
_symmetry_equiv_pos_as_xyz
  x,y,z
_cell_length_a                    29.1369
_cell_length_b                    29.1369
_cell_length_c                    29.1369
_cell_angle_alpha                 90.0
_cell_angle_beta                 90.0
_cell_angle_gamma                 90.0
loop_
_atom_site_label
_atom_site_type_symbol
_atom_site_fract_x
_atom_site_fract_y
_atom_site_fract_z
V1     V     0.192   0.7777   0.5341
V2     V     0.2777   0.9659   0.808
V3     V     0.4659   0.692   0.7223
V4     V     0.7777   0.5341   0.192
V5     V     0.692   0.7223   0.4659
V6     V     0.9659   0.808   0.2777
V7     V     0.5341   0.192   0.7777
V8     V     0.808   0.2777   0.9659
V9     V     0.7223   0.4659   0.692
V10     V     0.308   0.2223   0.0341
V11     V     0.0341   0.308   0.2223
V12     V     0.2223   0.0341   0.308
V13     V     0.0341   0.192   0.7223
V14     V     0.2223   0.4659   0.808
V15     V     0.308   0.2777   0.5341
V16     V     0.7223   0.0341   0.192
V17     V     0.808   0.2223   0.4659
V18     V     0.5341   0.308   0.2777
V19     V     0.192   0.7223   0.0341
V20     V     0.4659   0.808   0.2223
V21     V     0.2777   0.5341   0.308
V22     V     0.692   0.7777   0.9659
V23     V     0.7777   0.9659   0.692
V24     V     0.9659   0.692   0.7777
loop_
_geom_bond_atom_site_label_1
_geom_bond_atom_site_label_2
_geom_bond_distance
_geom_bond_site_symmetry_2
_ccdc_geom_bond_type
V1     V24    10.0   1_455     S
V1     V3    10.0   .     S
V1     V2    10.0   .     S
V1     V6    10.0   1_455     S
V1     V12    10.0   1_565     S
V1     V21    10.0   .     S
V2     V19    10.0   1_556     S
V2     V3    10.0   .     S
V2     V7    10.0   1_565     S
V2     V10    10.0   1_566     S
V2     V13    10.0   1_565     S
V3     V5    10.0   .     S
V3     V9    10.0   .     S
V3     V14    10.0   .     S
V3     V22    10.0   .     S
V4     V22    10.0   1_554     S
V4     V5    10.0   .     S
V4     V6    10.0   .     S
V4     V11    10.0   1_655     S
V4     V8    10.0   1_554     S
V4     V18    10.0   .     S
V5     V9    10.0   .     S
V5     V20    10.0   .     S
V5     V6    10.0   .     S
V5     V23    10.0   .     S
V6     V16    10.0   1_565     S
V6     V1    10.0   1_655     S
V6     V12    10.0   1_665     S
V6     V19    10.0   1_655     S
V7     V23    10.0   1_545     S
V7     V9    10.0   .     S
V7     V8    10.0   .     S
V7     V10    10.0   1_556     S
V7     V2    10.0   1_545     S
V7     V15    10.0   .     S
V8     V13    10.0   1_655     S
V8     V9    10.0   .     S
V8     V11    10.0   1_656     S
V8     V4    10.0   1_556     S
V8     V16    10.0   1_556     S
V9     V17    10.0   .     S
V9     V24    10.0   .     S
V10     V7    10.0   1_554     S
V10     V2    10.0   1_544     S
V10     V18    10.0   .     S
V10     V12    10.0   .     S
V10     V11    10.0   .     S
V10     V14    10.0   1_554     S
V11     V8    10.0   1_454     S
V11     V4    10.0   1_455     S
V11     V21    10.0   .     S
V11     V12    10.0   .     S
V11     V17    10.0   1_455     S
V12     V1    10.0   1_545     S
V12     V6    10.0   1_445     S
V12     V15    10.0   .     S
V12     V20    10.0   1_545     S
V13     V8    10.0   1_455     S
V13     V2    10.0   1_545     S
V13     V15    10.0   .     S
V13     V14    10.0   .     S
V13     V23    10.0   1_445     S
V13     V17    10.0   1_455     S
V14     V10    10.0   1_556     S
V14     V15    10.0   .     S
V14     V24    10.0   1_455     S
V14     V19    10.0   1_556     S
V15     V18    10.0   .     S
V15     V21    10.0   .     S
V16     V6    10.0   1_545     S
V16     V8    10.0   1_554     S
V16     V18    10.0   .     S
V16     V17    10.0   .     S
V16     V22    10.0   1_544     S
V16     V20    10.0   1_545     S
V17     V11    10.0   1_655     S
V17     V18    10.0   .     S
V17     V23    10.0   1_545     S
V17     V13    10.0   1_655     S
V18     V21    10.0   .     S
V19     V2    10.0   1_554     S
V19     V6    10.0   1_455     S
V19     V21    10.0   .     S
V19     V20    10.0   .     S
V19     V24    10.0   1_454     S
V19     V14    10.0   1_554     S
V20     V12    10.0   1_565     S
V20     V21    10.0   .     S
V20     V22    10.0   1_554     S
V20     V16    10.0   1_565     S
V22     V4    10.0   1_556     S
V22     V20    10.0   1_556     S
V22     V16    10.0   1_566     S
V22     V24    10.0   .     S
V22     V23    10.0   .     S
V23     V7    10.0   1_565     S
V23     V13    10.0   1_665     S
V23     V17    10.0   1_565     S
V23     V24    10.0   .     S
V24     V1    10.0   1_655     S
V24     V19    10.0   1_656     S
V24     V14    10.0   1_655     S
