data_sxh
_audit_creation_date              2020-02-02
_audit_creation_method            'Pymatgen'
_symmetry_space_group_name_H-M    'P1'
_symmetry_Int_Tables_number       1
loop_
_symmetry_equiv_pos_as_xyz
  x,y,z
_cell_length_a                    34.7794
_cell_length_b                    34.7794
_cell_length_c                    34.7794
_cell_angle_alpha                 90.0
_cell_angle_beta                 90.0
_cell_angle_gamma                 90.0
loop_
_atom_site_label
_atom_site_type_symbol
_atom_site_fract_x
_atom_site_fract_y
_atom_site_fract_z
V1     V     0.1323   0.6938   0.4174
V2     V     0.3677   0.6938   0.5826
V3     V     0.1938   0.9174   0.6323
V4     V     0.1938   0.0826   0.8677
V5     V     0.4174   0.1323   0.6938
V6     V     0.5826   0.3677   0.6938
V7     V     0.6323   0.1938   0.9174
V8     V     0.8677   0.1938   0.0826
V9     V     0.6938   0.4174   0.1323
V10     V     0.6938   0.5826   0.3677
V11     V     0.9174   0.6323   0.1938
V12     V     0.0826   0.8677   0.1938
V13     V     0.3062   0.9174   0.3677
V14     V     0.3062   0.0826   0.1323
V15     V     0.3677   0.3062   0.9174
V16     V     0.1323   0.3062   0.0826
V17     V     0.9174   0.3677   0.3062
V18     V     0.0826   0.1323   0.3062
V19     V     0.8062   0.5826   0.6323
V20     V     0.8062   0.4174   0.8677
V21     V     0.5826   0.6323   0.8062
V22     V     0.4174   0.8677   0.8062
V23     V     0.6323   0.8062   0.5826
V24     V     0.8677   0.8062   0.4174
V25     V     0.1323   0.8062   0.9174
V26     V     0.3677   0.8062   0.0826
V27     V     0.3062   0.5826   0.8677
V28     V     0.3062   0.4174   0.6323
V29     V     0.9174   0.1323   0.8062
V30     V     0.0826   0.3677   0.8062
V31     V     0.1323   0.1938   0.5826
V32     V     0.3677   0.1938   0.4174
V33     V     0.8062   0.9174   0.1323
V34     V     0.8062   0.0826   0.3677
V35     V     0.5826   0.8677   0.3062
V36     V     0.4174   0.6323   0.3062
V37     V     0.1938   0.5826   0.1323
V38     V     0.1938   0.4174   0.3677
V39     V     0.8677   0.3062   0.5826
V40     V     0.6323   0.3062   0.4174
V41     V     0.5826   0.1323   0.1938
V42     V     0.4174   0.3677   0.1938
V43     V     0.8677   0.6938   0.9174
V44     V     0.6323   0.6938   0.0826
V45     V     0.6938   0.9174   0.8677
V46     V     0.6938   0.0826   0.6323
V47     V     0.9174   0.8677   0.6938
V48     V     0.0826   0.6323   0.6938
loop_
_geom_bond_atom_site_label_1
_geom_bond_atom_site_label_2
_geom_bond_distance
_geom_bond_site_symmetry_2
_ccdc_geom_bond_type
V1     V38    10.0   .     S
V1     V2    10.0   .     S
V1     V12    10.0   .     S
V1     V13    10.0   .     S
V1     V48    10.0   .     S
V1     V24    10.0   1_455     S
V2     V28    10.0   .     S
V2     V22    10.0   .     S
V2     V3    10.0   .     S
V2     V36    10.0   .     S
V2     V23    10.0   .     S
V3     V22    10.0   .     S
V3     V47    10.0   1_455     S
V3     V4    10.0   1_565     S
V3     V31    10.0   1_565     S
V3     V13    10.0   .     S
V4     V5    10.0   .     S
V4     V15    10.0   .     S
V4     V29    10.0   1_455     S
V4     V3    10.0   1_545     S
V4     V25    10.0   1_545     S
V4     V14    10.0   1_556     S
V5     V15    10.0   .     S
V5     V32    10.0   .     S
V5     V6    10.0   .     S
V5     V46    10.0   .     S
V5     V22    10.0   1_545     S
V6     V40    10.0   .     S
V6     V20    10.0   .     S
V6     V7    10.0   .     S
V6     V28    10.0   .     S
V6     V21    10.0   .     S
V7     V20    10.0   .     S
V7     V45    10.0   1_545     S
V7     V8    10.0   1_556     S
V7     V41    10.0   1_556     S
V7     V15    10.0   .     S
V8     V33    10.0   1_545     S
V8     V7    10.0   1_554     S
V8     V9    10.0   .     S
V8     V17    10.0   .     S
V8     V29    10.0   1_554     S
V8     V16    10.0   1_655     S
V9     V42    10.0   .     S
V9     V10    10.0   .     S
V9     V17    10.0   .     S
V9     V44    10.0   .     S
V9     V20    10.0   1_554     S
V10     V36    10.0   .     S
V10     V24    10.0   .     S
V10     V11    10.0   .     S
V10     V40    10.0   .     S
V10     V19    10.0   .     S
V11     V24    10.0   .     S
V11     V43    10.0   1_554     S
V11     V12    10.0   1_655     S
V11     V37    10.0   1_655     S
V11     V17    10.0   .     S
V12     V25    10.0   1_554     S
V12     V11    10.0   1_455     S
V12     V13    10.0   .     S
V12     V33    10.0   1_455     S
V12     V18    10.0   1_565     S
V13     V35    10.0   .     S
V13     V14    10.0   1_565     S
V13     V32    10.0   1_565     S
V14     V41    10.0   .     S
V14     V13    10.0   1_545     S
V14     V18    10.0   .     S
V14     V16    10.0   .     S
V14     V26    10.0   1_545     S
V14     V4    10.0   1_554     S
V15     V27    10.0   .     S
V15     V16    10.0   1_556     S
V15     V42    10.0   1_556     S
V16     V37    10.0   .     S
V16     V15    10.0   1_554     S
V16     V18    10.0   .     S
V16     V30    10.0   1_554     S
V16     V8    10.0   1_455     S
V17     V39    10.0   .     S
V17     V18    10.0   1_655     S
V17     V38    10.0   1_655     S
V18     V31    10.0   .     S
V18     V17    10.0   1_455     S
V18     V34    10.0   1_455     S
V18     V12    10.0   1_545     S
V19     V48    10.0   1_655     S
V19     V20    10.0   .     S
V19     V21    10.0   .     S
V19     V23    10.0   .     S
V19     V39    10.0   .     S
V20     V30    10.0   1_655     S
V20     V43    10.0   .     S
V20     V9    10.0   1_556     S
V21     V44    10.0   1_556     S
V21     V22    10.0   .     S
V21     V23    10.0   .     S
V21     V27    10.0   .     S
V22     V26    10.0   1_556     S
V22     V45    10.0   .     S
V22     V5    10.0   1_565     S
V23     V46    10.0   1_565     S
V23     V24    10.0   .     S
V23     V35    10.0   .     S
V24     V34    10.0   1_565     S
V24     V47    10.0   .     S
V24     V1    10.0   1_655     S
V25     V12    10.0   1_556     S
V25     V4    10.0   1_565     S
V25     V26    10.0   1_556     S
V25     V48    10.0   .     S
V25     V27    10.0   .     S
V25     V43    10.0   1_455     S
V26     V22    10.0   1_554     S
V26     V14    10.0   1_565     S
V26     V25    10.0   1_554     S
V26     V36    10.0   .     S
V26     V37    10.0   .     S
V26     V44    10.0   .     S
V27     V48    10.0   .     S
V27     V28    10.0   .     S
V27     V37    10.0   1_556     S
V28     V30    10.0   .     S
V28     V31    10.0   .     S
V28     V38    10.0   .     S
V29     V4    10.0   1_655     S
V29     V8    10.0   1_556     S
V29     V30    10.0   1_655     S
V29     V39    10.0   .     S
V29     V46    10.0   .     S
V29     V47    10.0   1_545     S
V30     V20    10.0   1_455     S
V30     V31    10.0   .     S
V30     V16    10.0   1_556     S
V30     V29    10.0   1_455     S
V30     V48    10.0   .     S
V31     V3    10.0   1_545     S
V31     V32    10.0   .     S
V31     V39    10.0   1_455     S
V32     V13    10.0   1_545     S
V32     V42    10.0   .     S
V32     V38    10.0   .     S
V32     V40    10.0   .     S
V33     V8    10.0   1_565     S
V33     V12    10.0   1_655     S
V33     V34    10.0   1_565     S
V33     V35    10.0   .     S
V33     V44    10.0   .     S
V33     V45    10.0   1_554     S
V34     V24    10.0   1_545     S
V34     V18    10.0   1_655     S
V34     V33    10.0   1_545     S
V34     V40    10.0   .     S
V34     V41    10.0   .     S
V34     V46    10.0   .     S
V35     V44    10.0   .     S
V35     V36    10.0   .     S
V35     V41    10.0   1_565     S
V36     V37    10.0   .     S
V36     V42    10.0   .     S
V37     V11    10.0   1_455     S
V37     V38    10.0   .     S
V37     V27    10.0   1_554     S
V38     V17    10.0   1_455     S
V38     V42    10.0   .     S
V39     V46    10.0   .     S
V39     V40    10.0   .     S
V39     V31    10.0   1_655     S
V40     V41    10.0   .     S
V41     V7    10.0   1_554     S
V41     V42    10.0   .     S
V41     V35    10.0   1_545     S
V42     V15    10.0   1_554     S
V43     V11    10.0   1_556     S
V43     V44    10.0   1_556     S
V43     V47    10.0   .     S
V43     V45    10.0   .     S
V43     V25    10.0   1_655     S
V44     V21    10.0   1_554     S
V44     V43    10.0   1_554     S
V45     V7    10.0   1_565     S
V45     V46    10.0   1_565     S
V45     V47    10.0   .     S
V45     V33    10.0   1_556     S
V46     V23    10.0   1_545     S
V46     V45    10.0   1_545     S
V47     V3    10.0   1_655     S
V47     V48    10.0   1_655     S
V47     V29    10.0   1_565     S
V48     V19    10.0   1_455     S
V48     V47    10.0   1_455     S
