data_sxl
_audit_creation_date              2020-02-02
_audit_creation_method            'Pymatgen'
_symmetry_space_group_name_H-M    'P1'
_symmetry_Int_Tables_number       1
loop_
_symmetry_equiv_pos_as_xyz
  x,y,z
_cell_length_a                    64.6104
_cell_length_b                    64.6104
_cell_length_c                    64.6104
_cell_angle_alpha                 90.0
_cell_angle_beta                 90.0
_cell_angle_gamma                 90.0
loop_
_atom_site_label
_atom_site_type_symbol
_atom_site_fract_x
_atom_site_fract_y
_atom_site_fract_z
V1     V     0.3203   0.5522   0.6511
V2     V     0.4478   0.6797   0.8489
V3     V     0.3203   0.6978   0.5989
V4     V     0.4478   0.5703   0.4011
V5     V     0.4297   0.5522   0.0989
V6     V     0.3022   0.6797   0.9011
V7     V     0.4297   0.6978   0.1511
V8     V     0.3022   0.5703   0.3489
V9     V     0.5703   0.8022   0.3489
V10     V     0.6978   0.9297   0.1511
V11     V     0.6978   0.8203   0.5989
V12     V     0.5703   0.9478   0.4011
V13     V     0.6797   0.9478   0.8489
V14     V     0.5522   0.8203   0.6511
V15     V     0.6797   0.8022   0.9011
V16     V     0.5522   0.9297   0.0989
V17     V     0.1511   0.6978   0.9297
V18     V     0.3489   0.5703   0.8022
V19     V     0.9011   0.6797   0.8022
V20     V     0.0989   0.5522   0.9297
V21     V     0.6511   0.5522   0.8203
V22     V     0.8489   0.6797   0.9478
V23     V     0.5989   0.6978   0.8203
V24     V     0.4011   0.5703   0.9478
V25     V     0.8022   0.3489   0.5703
V26     V     0.9297   0.1511   0.6978
V27     V     0.8203   0.5989   0.6978
V28     V     0.9478   0.4011   0.5703
V29     V     0.9478   0.8489   0.6797
V30     V     0.8203   0.6511   0.5522
V31     V     0.8022   0.9011   0.6797
V32     V     0.9297   0.0989   0.5522
V33     V     0.6511   0.3203   0.5522
V34     V     0.8489   0.4478   0.6797
V35     V     0.5989   0.3203   0.6978
V36     V     0.4011   0.4478   0.5703
V37     V     0.0989   0.4297   0.5522
V38     V     0.9011   0.3022   0.6797
V39     V     0.1511   0.4297   0.6978
V40     V     0.3489   0.3022   0.5703
V41     V     0.0522   0.3203   0.6511
V42     V     0.1797   0.4478   0.8489
V43     V     0.0703   0.4478   0.4011
V44     V     0.1978   0.3203   0.5989
V45     V     0.1797   0.3022   0.9011
V46     V     0.0522   0.4297   0.0989
V47     V     0.0703   0.3022   0.3489
V48     V     0.1978   0.4297   0.1511
V49     V     0.6511   0.4297   0.1978
V50     V     0.8489   0.3022   0.0703
V51     V     0.3489   0.4478   0.1797
V52     V     0.1511   0.3203   0.0522
V53     V     0.9011   0.4478   0.0703
V54     V     0.0989   0.3203   0.1978
V55     V     0.4011   0.3022   0.1797
V56     V     0.5989   0.4297   0.0522
V57     V     0.6978   0.4297   0.6511
V58     V     0.5703   0.3022   0.8489
V59     V     0.6797   0.3022   0.4011
V60     V     0.5522   0.4297   0.5989
V61     V     0.5522   0.3203   0.1511
V62     V     0.6797   0.4478   0.3489
V63     V     0.6978   0.3203   0.0989
V64     V     0.5703   0.4478   0.9011
V65     V     0.0703   0.3489   0.8022
V66     V     0.1978   0.1511   0.9297
V67     V     0.1978   0.5989   0.8203
V68     V     0.0703   0.4011   0.9478
V69     V     0.1797   0.9011   0.8022
V70     V     0.0522   0.0989   0.9297
V71     V     0.1797   0.8489   0.9478
V72     V     0.0522   0.6511   0.8203
V73     V     0.8489   0.0703   0.8022
V74     V     0.6511   0.1978   0.9297
V75     V     0.4011   0.1797   0.8022
V76     V     0.5989   0.0522   0.9297
V77     V     0.3489   0.1797   0.9478
V78     V     0.1511   0.0522   0.8203
V79     V     0.9011   0.0703   0.9478
V80     V     0.0989   0.1978   0.8203
V81     V     0.5703   0.8489   0.8022
V82     V     0.6978   0.6511   0.9297
V83     V     0.6978   0.0989   0.8203
V84     V     0.5703   0.9011   0.9478
V85     V     0.6797   0.3489   0.9478
V86     V     0.5522   0.1511   0.8203
V87     V     0.6797   0.4011   0.8022
V88     V     0.5522   0.5989   0.9297
V89     V     0.5522   0.6511   0.3203
V90     V     0.6797   0.8489   0.4478
V91     V     0.5703   0.4011   0.4478
V92     V     0.6978   0.5989   0.3203
V93     V     0.5522   0.0989   0.4297
V94     V     0.6797   0.9011   0.3022
V95     V     0.6978   0.1511   0.4297
V96     V     0.5703   0.3489   0.3022
V97     V     0.6511   0.0522   0.3203
V98     V     0.8489   0.1797   0.4478
V99     V     0.4011   0.0703   0.4478
V100     V     0.5989   0.1978   0.3203
V101     V     0.9011   0.1797   0.3022
V102     V     0.0989   0.0522   0.4297
V103     V     0.3489   0.0703   0.3022
V104     V     0.1511   0.1978   0.4297
V105     V     0.3203   0.6511   0.0522
V106     V     0.4478   0.8489   0.1797
V107     V     0.3203   0.5989   0.1978
V108     V     0.4478   0.4011   0.0703
V109     V     0.3022   0.3489   0.0703
V110     V     0.4297   0.1511   0.1978
V111     V     0.3022   0.9011   0.1797
V112     V     0.4297   0.0989   0.0522
V113     V     0.1978   0.6511   0.4297
V114     V     0.0703   0.8489   0.3022
V115     V     0.1797   0.4011   0.3022
V116     V     0.0522   0.5989   0.4297
V117     V     0.1797   0.3489   0.4478
V118     V     0.0522   0.1511   0.3203
V119     V     0.1978   0.0989   0.3203
V120     V     0.0703   0.9011   0.4478
V121     V     0.8022   0.0703   0.3489
V122     V     0.9297   0.1978   0.1511
V123     V     0.8203   0.1978   0.5989
V124     V     0.9478   0.0703   0.4011
V125     V     0.8022   0.1797   0.9011
V126     V     0.9297   0.0522   0.0989
V127     V     0.9478   0.1797   0.8489
V128     V     0.8203   0.0522   0.6511
V129     V     0.6511   0.6978   0.4297
V130     V     0.8489   0.5703   0.3022
V131     V     0.5989   0.5522   0.4297
V132     V     0.4011   0.6797   0.3022
V133     V     0.1511   0.5522   0.3203
V134     V     0.3489   0.6797   0.4478
V135     V     0.0989   0.6978   0.3203
V136     V     0.9011   0.5703   0.4478
V137     V     0.8022   0.8489   0.0703
V138     V     0.9297   0.6511   0.1978
V139     V     0.8022   0.4011   0.1797
V140     V     0.9297   0.5989   0.0522
V141     V     0.9478   0.3489   0.1797
V142     V     0.8203   0.1511   0.0522
V143     V     0.8203   0.0989   0.1978
V144     V     0.9478   0.9011   0.0703
V145     V     0.9297   0.6978   0.6511
V146     V     0.8022   0.5703   0.8489
V147     V     0.8203   0.6978   0.0989
V148     V     0.9478   0.5703   0.9011
V149     V     0.9478   0.6797   0.3489
V150     V     0.8203   0.5522   0.1511
V151     V     0.8022   0.6797   0.4011
V152     V     0.9297   0.5522   0.5989
V153     V     0.4297   0.1978   0.6511
V154     V     0.3022   0.0703   0.8489
V155     V     0.4478   0.1797   0.3489
V156     V     0.3203   0.0522   0.1511
V157     V     0.3203   0.1978   0.0989
V158     V     0.4478   0.0703   0.9011
V159     V     0.3022   0.1797   0.4011
V160     V     0.4297   0.0522   0.5989
V161     V     0.4297   0.6511   0.6978
V162     V     0.3022   0.8489   0.5703
V163     V     0.3203   0.0989   0.6978
V164     V     0.4478   0.9011   0.5703
V165     V     0.4478   0.3489   0.6797
V166     V     0.3203   0.1511   0.5522
V167     V     0.3022   0.4011   0.6797
V168     V     0.4297   0.5989   0.5522
V169     V     0.3489   0.8022   0.0703
V170     V     0.1511   0.9297   0.1978
V171     V     0.5989   0.8203   0.1978
V172     V     0.4011   0.9478   0.0703
V173     V     0.9011   0.8022   0.1797
V174     V     0.0989   0.9297   0.0522
V175     V     0.8489   0.9478   0.1797
V176     V     0.6511   0.8203   0.0522
V177     V     0.0703   0.8022   0.8489
V178     V     0.1978   0.9297   0.6511
V179     V     0.1797   0.8022   0.4011
V180     V     0.0522   0.9297   0.5989
V181     V     0.0703   0.9478   0.9011
V182     V     0.1978   0.8203   0.0989
V183     V     0.1797   0.9478   0.3489
V184     V     0.0522   0.8203   0.1511
V185     V     0.6511   0.9297   0.6978
V186     V     0.8489   0.8022   0.5703
V187     V     0.0989   0.8203   0.6978
V188     V     0.9011   0.9478   0.5703
V189     V     0.3489   0.9478   0.6797
V190     V     0.1511   0.8203   0.5522
V191     V     0.4011   0.8022   0.6797
V192     V     0.5989   0.9297   0.5522
loop_
_geom_bond_atom_site_label_1
_geom_bond_atom_site_label_2
_geom_bond_distance
_geom_bond_site_symmetry_2
_ccdc_geom_bond_type
V1     V161    10.0   .     S
V1     V18    10.0   .     S
V1     V3    10.0   .     S
V1     V168    10.0   .     S
V1     V167    10.0   .     S
V1     V36    10.0   .     S
V2     V18    10.0   .     S
V2     V161    10.0   .     S
V2     V6    10.0   .     S
V2     V24    10.0   .     S
V2     V23    10.0   .     S
V2     V88    10.0   .     S
V3     V168    10.0   .     S
V3     V134    10.0   .     S
V3     V161    10.0   .     S
V3     V162    10.0   .     S
V3     V191    10.0   .     S
V4     V134    10.0   .     S
V4     V168    10.0   .     S
V4     V8    10.0   .     S
V4     V131    10.0   .     S
V4     V132    10.0   .     S
V4     V89    10.0   .     S
V5     V105    10.0   .     S
V5     V24    10.0   1_554     S
V5     V7    10.0   .     S
V5     V107    10.0   .     S
V5     V108    10.0   .     S
V5     V51    10.0   .     S
V6     V24    10.0   .     S
V6     V105    10.0   1_556     S
V6     V18    10.0   .     S
V6     V17    10.0   .     S
V6     V67    10.0   .     S
V7     V107    10.0   .     S
V7     V132    10.0   .     S
V7     V105    10.0   .     S
V7     V106    10.0   .     S
V7     V169    10.0   .     S
V8     V132    10.0   .     S
V8     V107    10.0   .     S
V8     V133    10.0   .     S
V8     V134    10.0   .     S
V8     V113    10.0   .     S
V9     V94    10.0   .     S
V9     V171    10.0   .     S
V9     V12    10.0   .     S
V9     V89    10.0   .     S
V9     V90    10.0   .     S
V9     V129    10.0   .     S
V10     V171    10.0   .     S
V10     V94    10.0   .     S
V10     V16    10.0   .     S
V10     V176    10.0   .     S
V10     V175    10.0   .     S
V10     V137    10.0   .     S
V11     V192    10.0   .     S
V11     V90    10.0   .     S
V11     V14    10.0   .     S
V11     V186    10.0   .     S
V11     V185    10.0   .     S
V11     V31    10.0   .     S
V12     V90    10.0   .     S
V12     V192    10.0   .     S
V12     V93    10.0   1_565     S
V12     V94    10.0   .     S
V12     V97    10.0   1_565     S
V13     V81    10.0   .     S
V13     V185    10.0   .     S
V13     V15    10.0   .     S
V13     V84    10.0   .     S
V13     V83    10.0   1_565     S
V13     V76    10.0   1_565     S
V14     V185    10.0   .     S
V14     V81    10.0   .     S
V14     V192    10.0   .     S
V14     V191    10.0   .     S
V14     V164    10.0   .     S
V15     V84    10.0   .     S
V15     V176    10.0   1_556     S
V15     V82    10.0   .     S
V15     V81    10.0   .     S
V15     V23    10.0   .     S
V16     V176    10.0   .     S
V16     V84    10.0   1_554     S
V16     V171    10.0   .     S
V16     V172    10.0   .     S
V16     V106    10.0   .     S
V17     V67    10.0   .     S
V17     V20    10.0   .     S
V17     V72    10.0   .     S
V17     V71    10.0   .     S
V17     V177    10.0   .     S
V18     V161    10.0   .     S
V18     V67    10.0   .     S
V18     V24    10.0   .     S
V19     V148    10.0   .     S
V19     V72    10.0   1_655     S
V19     V22    10.0   .     S
V19     V146    10.0   .     S
V19     V145    10.0   .     S
V19     V27    10.0   .     S
V20     V72    10.0   .     S
V20     V148    10.0   1_455     S
V20     V68    10.0   .     S
V20     V67    10.0   .     S
V20     V42    10.0   .     S
V21     V82    10.0   .     S
V21     V146    10.0   .     S
V21     V23    10.0   .     S
V21     V87    10.0   .     S
V21     V88    10.0   .     S
V21     V64    10.0   .     S
V22     V146    10.0   .     S
V22     V82    10.0   .     S
V22     V148    10.0   .     S
V22     V147    10.0   1_556     S
V22     V140    10.0   1_556     S
V23     V88    10.0   .     S
V23     V82    10.0   .     S
V23     V81    10.0   .     S
V24     V5    10.0   1_556     S
V24     V105    10.0   1_556     S
V24     V88    10.0   .     S
V25     V38    10.0   .     S
V25     V123    10.0   .     S
V25     V28    10.0   .     S
V25     V33    10.0   .     S
V25     V34    10.0   .     S
V25     V57    10.0   .     S
V26     V123    10.0   .     S
V26     V38    10.0   .     S
V26     V32    10.0   .     S
V26     V128    10.0   .     S
V26     V127    10.0   .     S
V26     V73    10.0   .     S
V27     V152    10.0   .     S
V27     V34    10.0   .     S
V27     V30    10.0   .     S
V27     V146    10.0   .     S
V27     V145    10.0   .     S
V28     V34    10.0   .     S
V28     V152    10.0   .     S
V28     V37    10.0   1_655     S
V28     V38    10.0   .     S
V28     V41    10.0   1_655     S
V29     V186    10.0   .     S
V29     V145    10.0   .     S
V29     V31    10.0   .     S
V29     V187    10.0   1_655     S
V29     V188    10.0   .     S
V29     V180    10.0   1_655     S
V30     V145    10.0   .     S
V30     V186    10.0   .     S
V30     V151    10.0   .     S
V30     V152    10.0   .     S
V30     V136    10.0   .     S
V31     V188    10.0   .     S
V31     V128    10.0   1_565     S
V31     V186    10.0   .     S
V31     V185    10.0   .     S
V32     V128    10.0   .     S
V32     V188    10.0   1_545     S
V32     V123    10.0   .     S
V32     V124    10.0   .     S
V32     V98    10.0   .     S
V33     V57    10.0   .     S
V33     V35    10.0   .     S
V33     V59    10.0   .     S
V33     V60    10.0   .     S
V33     V91    10.0   .     S
V34     V152    10.0   .     S
V34     V57    10.0   .     S
V34     V38    10.0   .     S
V35     V60    10.0   .     S
V35     V165    10.0   .     S
V35     V58    10.0   .     S
V35     V57    10.0   .     S
V35     V87    10.0   .     S
V36     V165    10.0   .     S
V36     V60    10.0   .     S
V36     V40    10.0   .     S
V36     V168    10.0   .     S
V36     V167    10.0   .     S
V37     V41    10.0   .     S
V37     V28    10.0   1_455     S
V37     V39    10.0   .     S
V37     V44    10.0   .     S
V37     V43    10.0   .     S
V37     V117    10.0   .     S
V38     V123    10.0   .     S
V38     V41    10.0   1_655     S
V39     V44    10.0   .     S
V39     V167    10.0   .     S
V39     V41    10.0   .     S
V39     V42    10.0   .     S
V39     V65    10.0   .     S
V40     V167    10.0   .     S
V40     V44    10.0   .     S
V40     V166    10.0   .     S
V40     V165    10.0   .     S
V40     V153    10.0   .     S
V41     V38    10.0   1_455     S
V41     V28    10.0   1_455     S
V41     V65    10.0   .     S
V41     V44    10.0   .     S
V42     V65    10.0   .     S
V42     V45    10.0   .     S
V42     V68    10.0   .     S
V42     V67    10.0   .     S
V43     V117    10.0   .     S
V43     V47    10.0   .     S
V43     V116    10.0   .     S
V43     V115    10.0   .     S
V43     V133    10.0   .     S
V44     V167    10.0   .     S
V44     V117    10.0   .     S
V45     V68    10.0   .     S
V45     V52    10.0   1_556     S
V45     V66    10.0   .     S
V45     V65    10.0   .     S
V45     V80    10.0   .     S
V46     V52    10.0   .     S
V46     V68    10.0   1_554     S
V46     V48    10.0   .     S
V46     V54    10.0   .     S
V46     V53    10.0   1_455     S
V46     V141    10.0   1_455     S
V47     V115    10.0   .     S
V47     V54    10.0   .     S
V47     V118    10.0   .     S
V47     V117    10.0   .     S
V47     V104    10.0   .     S
V48     V54    10.0   .     S
V48     V115    10.0   .     S
V48     V52    10.0   .     S
V48     V51    10.0   .     S
V48     V109    10.0   .     S
V49     V63    10.0   .     S
V49     V139    10.0   .     S
V49     V56    10.0   .     S
V49     V61    10.0   .     S
V49     V62    10.0   .     S
V49     V96    10.0   .     S
V50     V139    10.0   .     S
V50     V63    10.0   .     S
V50     V53    10.0   .     S
V50     V142    10.0   .     S
V50     V141    10.0   .     S
V50     V122    10.0   .     S
V51     V109    10.0   .     S
V51     V55    10.0   .     S
V51     V107    10.0   .     S
V51     V108    10.0   .     S
V52     V45    10.0   1_554     S
V52     V68    10.0   1_554     S
V52     V109    10.0   .     S
V52     V54    10.0   .     S
V53     V141    10.0   .     S
V53     V46    10.0   1_655     S
V53     V140    10.0   .     S
V53     V139    10.0   .     S
V53     V150    10.0   .     S
V54     V115    10.0   .     S
V54     V141    10.0   1_455     S
V55     V108    10.0   .     S
V55     V61    10.0   .     S
V55     V109    10.0   .     S
V55     V110    10.0   .     S
V55     V157    10.0   .     S
V56     V61    10.0   .     S
V56     V108    10.0   .     S
V56     V63    10.0   .     S
V56     V64    10.0   1_554     S
V56     V85    10.0   1_554     S
V57     V87    10.0   .     S
V57     V60    10.0   .     S
V58     V87    10.0   .     S
V58     V64    10.0   .     S
V58     V85    10.0   .     S
V58     V86    10.0   .     S
V58     V74    10.0   .     S
V59     V91    10.0   .     S
V59     V62    10.0   .     S
V59     V95    10.0   .     S
V59     V96    10.0   .     S
V59     V100    10.0   .     S
V60     V165    10.0   .     S
V60     V91    10.0   .     S
V61     V108    10.0   .     S
V61     V96    10.0   .     S
V61     V63    10.0   .     S
V62     V96    10.0   .     S
V62     V91    10.0   .     S
V62     V92    10.0   .     S
V62     V131    10.0   .     S
V63     V139    10.0   .     S
V63     V85    10.0   1_554     S
V64     V85    10.0   .     S
V64     V56    10.0   1_556     S
V64     V87    10.0   .     S
V64     V88    10.0   .     S
V65     V80    10.0   .     S
V65     V68    10.0   .     S
V66     V80    10.0   .     S
V66     V70    10.0   .     S
V66     V78    10.0   .     S
V66     V77    10.0   .     S
V66     V154    10.0   .     S
V67     V72    10.0   .     S
V68     V46    10.0   1_556     S
V68     V52    10.0   1_556     S
V69     V181    10.0   .     S
V69     V78    10.0   1_565     S
V69     V71    10.0   .     S
V69     V178    10.0   .     S
V69     V177    10.0   .     S
V69     V187    10.0   .     S
V70     V78    10.0   .     S
V70     V181    10.0   1_545     S
V70     V80    10.0   .     S
V70     V79    10.0   1_455     S
V70     V127    10.0   1_455     S
V71     V177    10.0   .     S
V71     V181    10.0   .     S
V71     V182    10.0   1_556     S
V71     V174    10.0   1_556     S
V72     V19    10.0   1_455     S
V72     V148    10.0   1_455     S
V72     V177    10.0   .     S
V73     V125    10.0   .     S
V73     V83    10.0   .     S
V73     V79    10.0   .     S
V73     V128    10.0   .     S
V73     V127    10.0   .     S
V74     V83    10.0   .     S
V74     V125    10.0   .     S
V74     V76    10.0   .     S
V74     V85    10.0   .     S
V74     V86    10.0   .     S
V75     V158    10.0   .     S
V75     V86    10.0   .     S
V75     V77    10.0   .     S
V75     V153    10.0   .     S
V75     V154    10.0   .     S
V75     V163    10.0   .     S
V76     V86    10.0   .     S
V76     V158    10.0   .     S
V76     V84    10.0   1_545     S
V76     V83    10.0   .     S
V76     V13    10.0   1_545     S
V77     V154    10.0   .     S
V77     V157    10.0   1_556     S
V77     V158    10.0   .     S
V77     V112    10.0   1_556     S
V78     V69    10.0   1_545     S
V78     V181    10.0   1_545     S
V78     V154    10.0   .     S
V78     V80    10.0   .     S
V79     V127    10.0   .     S
V79     V70    10.0   1_655     S
V79     V125    10.0   .     S
V79     V126    10.0   1_556     S
V79     V142    10.0   1_556     S
V80     V127    10.0   1_455     S
V81     V185    10.0   .     S
V81     V84    10.0   .     S
V82     V146    10.0   .     S
V82     V88    10.0   .     S
V83     V125    10.0   .     S
V83     V13    10.0   1_545     S
V83     V86    10.0   .     S
V84     V16    10.0   1_556     S
V84     V176    10.0   1_556     S
V84     V76    10.0   1_565     S
V85     V63    10.0   1_556     S
V85     V56    10.0   1_556     S
V85     V87    10.0   .     S
V86     V158    10.0   .     S
V89     V129    10.0   .     S
V89     V92    10.0   .     S
V89     V131    10.0   .     S
V89     V132    10.0   .     S
V90     V192    10.0   .     S
V90     V129    10.0   .     S
V90     V94    10.0   .     S
V91     V131    10.0   .     S
V91     V96    10.0   .     S
V92     V131    10.0   .     S
V92     V130    10.0   .     S
V92     V129    10.0   .     S
V92     V151    10.0   .     S
V93     V97    10.0   .     S
V93     V12    10.0   1_545     S
V93     V95    10.0   .     S
V93     V100    10.0   .     S
V93     V99    10.0   .     S
V93     V155    10.0   .     S
V94     V171    10.0   .     S
V94     V97    10.0   1_565     S
V95     V100    10.0   .     S
V95     V97    10.0   .     S
V95     V98    10.0   .     S
V95     V121    10.0   .     S
V96     V100    10.0   .     S
V97     V94    10.0   1_545     S
V97     V12    10.0   1_545     S
V97     V121    10.0   .     S
V97     V100    10.0   .     S
V98     V121    10.0   .     S
V98     V101    10.0   .     S
V98     V123    10.0   .     S
V98     V124    10.0   .     S
V99     V155    10.0   .     S
V99     V103    10.0   .     S
V99     V160    10.0   .     S
V99     V159    10.0   .     S
V99     V166    10.0   .     S
V100     V155    10.0   .     S
V101     V124    10.0   .     S
V101     V118    10.0   1_655     S
V101     V122    10.0   .     S
V101     V121    10.0   .     S
V101     V143    10.0   .     S
V102     V118    10.0   .     S
V102     V124    10.0   1_455     S
V102     V104    10.0   .     S
V102     V119    10.0   .     S
V102     V120    10.0   1_545     S
V102     V183    10.0   1_545     S
V103     V159    10.0   .     S
V103     V119    10.0   .     S
V103     V156    10.0   .     S
V103     V155    10.0   .     S
V103     V110    10.0   .     S
V104     V119    10.0   .     S
V104     V159    10.0   .     S
V104     V118    10.0   .     S
V104     V117    10.0   .     S
V105     V6    10.0   1_554     S
V105     V24    10.0   1_554     S
V105     V169    10.0   .     S
V105     V107    10.0   .     S
V106     V169    10.0   .     S
V106     V111    10.0   .     S
V106     V171    10.0   .     S
V106     V172    10.0   .     S
V107     V132    10.0   .     S
V108     V109    10.0   .     S
V109     V157    10.0   .     S
V110     V157    10.0   .     S
V110     V112    10.0   .     S
V110     V156    10.0   .     S
V110     V155    10.0   .     S
V111     V172    10.0   .     S
V111     V156    10.0   1_565     S
V111     V170    10.0   .     S
V111     V169    10.0   .     S
V111     V182    10.0   .     S
V112     V156    10.0   .     S
V112     V172    10.0   1_545     S
V112     V157    10.0   .     S
V112     V158    10.0   1_554     S
V112     V77    10.0   1_554     S
V113     V135    10.0   .     S
V113     V179    10.0   .     S
V113     V116    10.0   .     S
V113     V133    10.0   .     S
V113     V134    10.0   .     S
V114     V179    10.0   .     S
V114     V135    10.0   .     S
V114     V120    10.0   .     S
V114     V184    10.0   .     S
V114     V183    10.0   .     S
V114     V170    10.0   .     S
V115     V133    10.0   .     S
V115     V117    10.0   .     S
V116     V133    10.0   .     S
V116     V135    10.0   .     S
V116     V136    10.0   1_455     S
V116     V149    10.0   1_455     S
V118     V101    10.0   1_455     S
V118     V124    10.0   1_455     S
V118     V119    10.0   .     S
V119     V159    10.0   .     S
V119     V183    10.0   1_545     S
V120     V183    10.0   .     S
V120     V102    10.0   1_565     S
V120     V180    10.0   .     S
V120     V179    10.0   .     S
V120     V190    10.0   .     S
V121     V143    10.0   .     S
V121     V124    10.0   .     S
V122     V143    10.0   .     S
V122     V126    10.0   .     S
V122     V142    10.0   .     S
V122     V141    10.0   .     S
V123     V128    10.0   .     S
V124     V102    10.0   1_655     S
V124     V118    10.0   1_655     S
V125     V142    10.0   1_556     S
V125     V127    10.0   .     S
V126     V142    10.0   .     S
V126     V79    10.0   1_554     S
V126     V143    10.0   .     S
V126     V144    10.0   1_545     S
V126     V175    10.0   1_545     S
V127     V80    10.0   1_655     S
V127     V70    10.0   1_655     S
V128     V31    10.0   1_545     S
V128     V188    10.0   1_545     S
V129     V151    10.0   .     S
V129     V131    10.0   .     S
V130     V151    10.0   .     S
V130     V136    10.0   .     S
V130     V149    10.0   .     S
V130     V150    10.0   .     S
V130     V138    10.0   .     S
V132     V134    10.0   .     S
V133     V135    10.0   .     S
V134     V168    10.0   .     S
V135     V179    10.0   .     S
V135     V149    10.0   1_455     S
V136     V149    10.0   .     S
V136     V116    10.0   1_655     S
V136     V151    10.0   .     S
V136     V152    10.0   .     S
V137     V173    10.0   .     S
V137     V147    10.0   .     S
V137     V144    10.0   .     S
V137     V176    10.0   .     S
V137     V175    10.0   .     S
V138     V147    10.0   .     S
V138     V173    10.0   .     S
V138     V140    10.0   .     S
V138     V149    10.0   .     S
V138     V150    10.0   .     S
V139     V150    10.0   .     S
V139     V141    10.0   .     S
V140     V150    10.0   .     S
V140     V148    10.0   1_554     S
V140     V147    10.0   .     S
V140     V22    10.0   1_554     S
V141     V54    10.0   1_655     S
V141     V46    10.0   1_655     S
V142     V125    10.0   1_554     S
V142     V79    10.0   1_554     S
V142     V143    10.0   .     S
V143     V175    10.0   1_545     S
V144     V175    10.0   .     S
V144     V126    10.0   1_565     S
V144     V174    10.0   1_655     S
V144     V173    10.0   .     S
V144     V184    10.0   1_655     S
V145     V186    10.0   .     S
V145     V152    10.0   .     S
V146     V148    10.0   .     S
V147     V173    10.0   .     S
V147     V22    10.0   1_554     S
V147     V150    10.0   .     S
V148     V20    10.0   1_655     S
V148     V72    10.0   1_655     S
V148     V140    10.0   1_556     S
V149     V135    10.0   1_655     S
V149     V116    10.0   1_655     S
V149     V151    10.0   .     S
V153     V163    10.0   .     S
V153     V160    10.0   .     S
V153     V166    10.0   .     S
V153     V165    10.0   .     S
V154     V163    10.0   .     S
V154     V158    10.0   .     S
V155     V159    10.0   .     S
V156     V111    10.0   1_545     S
V156     V172    10.0   1_545     S
V156     V157    10.0   .     S
V157     V77    10.0   1_554     S
V158     V112    10.0   1_556     S
V159     V166    10.0   .     S
V160     V166    10.0   .     S
V160     V163    10.0   .     S
V160     V164    10.0   1_545     S
V160     V189    10.0   1_545     S
V161     V191    10.0   .     S
V161     V168    10.0   .     S
V162     V191    10.0   .     S
V162     V164    10.0   .     S
V162     V189    10.0   .     S
V162     V190    10.0   .     S
V162     V178    10.0   .     S
V163     V189    10.0   1_545     S
V163     V166    10.0   .     S
V164     V189    10.0   .     S
V164     V160    10.0   1_565     S
V164     V192    10.0   .     S
V164     V191    10.0   .     S
V165     V167    10.0   .     S
V169     V182    10.0   .     S
V169     V172    10.0   .     S
V170     V182    10.0   .     S
V170     V174    10.0   .     S
V170     V184    10.0   .     S
V170     V183    10.0   .     S
V171     V176    10.0   .     S
V172     V112    10.0   1_565     S
V172     V156    10.0   1_565     S
V173     V184    10.0   1_655     S
V173     V175    10.0   .     S
V174     V184    10.0   .     S
V174     V144    10.0   1_455     S
V174     V181    10.0   1_554     S
V174     V182    10.0   .     S
V174     V71    10.0   1_554     S
V175     V143    10.0   1_565     S
V175     V126    10.0   1_565     S
V176     V15    10.0   1_554     S
V176     V84    10.0   1_554     S
V177     V187    10.0   .     S
V177     V181    10.0   .     S
V178     V187    10.0   .     S
V178     V180    10.0   .     S
V178     V189    10.0   .     S
V178     V190    10.0   .     S
V179     V190    10.0   .     S
V179     V183    10.0   .     S
V180     V190    10.0   .     S
V180     V187    10.0   .     S
V180     V188    10.0   1_455     S
V180     V29    10.0   1_455     S
V181     V70    10.0   1_565     S
V181     V78    10.0   1_565     S
V181     V174    10.0   1_556     S
V182     V71    10.0   1_554     S
V182     V184    10.0   .     S
V183     V119    10.0   1_565     S
V183     V102    10.0   1_565     S
V184     V173    10.0   1_455     S
V184     V144    10.0   1_455     S
V185     V192    10.0   .     S
V186     V188    10.0   .     S
V187     V29    10.0   1_455     S
V187     V190    10.0   .     S
V188     V32    10.0   1_565     S
V188     V128    10.0   1_565     S
V188     V180    10.0   1_655     S
V189     V163    10.0   1_565     S
V189     V160    10.0   1_565     S
V189     V191    10.0   .     S
