data_sxm
_audit_creation_date              2020-02-02
_audit_creation_method            'Pymatgen'
_symmetry_space_group_name_H-M    'P1'
_symmetry_Int_Tables_number       1
loop_
_symmetry_equiv_pos_as_xyz
  x,y,z
_cell_length_a                    57.8168
_cell_length_b                    57.8168
_cell_length_c                    57.8168
_cell_angle_alpha                 90.0
_cell_angle_beta                 90.0
_cell_angle_gamma                 90.0
loop_
_atom_site_label
_atom_site_type_symbol
_atom_site_fract_x
_atom_site_fract_y
_atom_site_fract_z
V1     V     0.612   0.7105   0.2792
V2     V     0.5395   0.7792   0.138
V3     V     0.4708   0.638   0.2105
V4     V     0.388   0.7895   0.2208
V5     V     0.4605   0.7208   0.362
V6     V     0.5292   0.862   0.2895
V7     V     0.7792   0.0395   0.138
V8     V     0.638   0.9708   0.2105
V9     V     0.7105   0.112   0.2792
V10     V     0.862   0.0292   0.2895
V11     V     0.7208   0.9605   0.362
V12     V     0.7895   0.888   0.2208
V13     V     0.2792   0.612   0.7105
V14     V     0.138   0.5395   0.7792
V15     V     0.2105   0.4708   0.638
V16     V     0.2208   0.388   0.7895
V17     V     0.362   0.4605   0.7208
V18     V     0.2895   0.5292   0.862
V19     V     0.2792   0.5395   0.138
V20     V     0.138   0.4708   0.2105
V21     V     0.2105   0.612   0.2792
V22     V     0.362   0.5292   0.2895
V23     V     0.2895   0.388   0.2208
V24     V     0.2208   0.4605   0.362
V25     V     0.5395   0.138   0.2792
V26     V     0.612   0.2792   0.2105
V27     V     0.4708   0.2105   0.138
V28     V     0.388   0.2208   0.2895
V29     V     0.5292   0.2895   0.362
V30     V     0.4605   0.362   0.2208
V31     V     0.138   0.2792   0.5395
V32     V     0.2105   0.138   0.4708
V33     V     0.2792   0.2105   0.612
V34     V     0.2895   0.362   0.5292
V35     V     0.2208   0.2895   0.388
V36     V     0.362   0.2208   0.4605
V37     V     0.0395   0.138   0.7792
V38     V     0.112   0.2792   0.7105
V39     V     0.9708   0.2105   0.638
V40     V     0.0292   0.2895   0.862
V41     V     0.9605   0.362   0.7208
V42     V     0.888   0.2208   0.7895
V43     V     0.7105   0.2792   0.612
V44     V     0.7792   0.138   0.5395
V45     V     0.638   0.2105   0.4708
V46     V     0.7208   0.362   0.4605
V47     V     0.7895   0.2208   0.388
V48     V     0.862   0.2895   0.5292
V49     V     0.138   0.7792   0.0395
V50     V     0.2105   0.638   0.9708
V51     V     0.2792   0.7105   0.112
V52     V     0.2895   0.862   0.0292
V53     V     0.362   0.7208   0.9605
V54     V     0.2208   0.7895   0.888
V55     V     0.612   0.4708   0.5395
V56     V     0.5395   0.612   0.4708
V57     V     0.4708   0.5395   0.612
V58     V     0.388   0.5292   0.4605
V59     V     0.4605   0.388   0.5292
V60     V     0.5292   0.4605   0.388
V61     V     0.7792   0.612   0.2105
V62     V     0.7105   0.4708   0.138
V63     V     0.638   0.5395   0.2792
V64     V     0.7208   0.388   0.2895
V65     V     0.7895   0.5292   0.362
V66     V     0.862   0.4605   0.2208
V67     V     0.7792   0.112   0.7105
V68     V     0.638   0.0395   0.7792
V69     V     0.7105   0.9708   0.638
V70     V     0.7208   0.888   0.7895
V71     V     0.862   0.9605   0.7208
V72     V     0.7895   0.0292   0.862
V73     V     0.5395   0.4708   0.112
V74     V     0.612   0.5395   0.9708
V75     V     0.4708   0.612   0.0395
V76     V     0.388   0.4605   0.0292
V77     V     0.5292   0.388   0.9605
V78     V     0.4605   0.5292   0.888
V79     V     0.612   0.7792   0.7105
V80     V     0.5395   0.638   0.7792
V81     V     0.4708   0.7105   0.638
V82     V     0.388   0.7208   0.7895
V83     V     0.4605   0.862   0.7208
V84     V     0.5292   0.7895   0.862
V85     V     0.7105   0.7792   0.112
V86     V     0.7792   0.638   0.0395
V87     V     0.638   0.7105   0.9708
V88     V     0.7895   0.7208   0.888
V89     V     0.862   0.7895   0.0292
V90     V     0.7208   0.862   0.9605
V91     V     0.7792   0.5395   0.638
V92     V     0.7105   0.612   0.7792
V93     V     0.638   0.4708   0.7105
V94     V     0.862   0.5292   0.7895
V95     V     0.7895   0.388   0.7208
V96     V     0.7208   0.4605   0.862
V97     V     0.9605   0.5292   0.388
V98     V     0.0292   0.388   0.4605
V99     V     0.888   0.4605   0.5292
V100     V     0.112   0.5395   0.4708
V101     V     0.9708   0.612   0.5395
V102     V     0.0395   0.4708   0.612
V103     V     0.612   0.0395   0.4708
V104     V     0.4708   0.112   0.5395
V105     V     0.5395   0.9708   0.612
V106     V     0.4605   0.0292   0.388
V107     V     0.388   0.9605   0.5292
V108     V     0.5292   0.888   0.4605
V109     V     0.9708   0.5395   0.112
V110     V     0.0395   0.612   0.9708
V111     V     0.112   0.4708   0.0395
V112     V     0.0292   0.4605   0.888
V113     V     0.9605   0.388   0.0292
V114     V     0.888   0.5292   0.9605
V115     V     0.9605   0.7208   0.862
V116     V     0.888   0.7895   0.7208
V117     V     0.0292   0.862   0.7895
V118     V     0.112   0.7105   0.7792
V119     V     0.0395   0.7792   0.638
V120     V     0.9708   0.638   0.7105
V121     V     0.888   0.0292   0.4605
V122     V     0.0292   0.9605   0.388
V123     V     0.9605   0.888   0.5292
V124     V     0.112   0.9708   0.5395
V125     V     0.9708   0.0395   0.612
V126     V     0.0395   0.112   0.4708
V127     V     0.7792   0.7105   0.612
V128     V     0.638   0.7792   0.5395
V129     V     0.7105   0.638   0.4708
V130     V     0.7895   0.862   0.5292
V131     V     0.7208   0.7895   0.388
V132     V     0.862   0.7208   0.4605
V133     V     0.112   0.7792   0.2105
V134     V     0.9708   0.7105   0.138
V135     V     0.0395   0.638   0.2792
V136     V     0.0292   0.7895   0.362
V137     V     0.888   0.7208   0.2895
V138     V     0.9605   0.862   0.2208
V139     V     0.2792   0.112   0.2105
V140     V     0.2105   0.9708   0.138
V141     V     0.138   0.0395   0.2792
V142     V     0.2895   0.0292   0.362
V143     V     0.362   0.9605   0.2208
V144     V     0.2208   0.888   0.2895
V145     V     0.612   0.9708   0.0395
V146     V     0.5395   0.112   0.9708
V147     V     0.4708   0.0395   0.112
V148     V     0.4605   0.888   0.0292
V149     V     0.388   0.0292   0.9605
V150     V     0.5292   0.9605   0.888
V151     V     0.612   0.2105   0.7792
V152     V     0.4708   0.138   0.7105
V153     V     0.5395   0.2792   0.638
V154     V     0.388   0.2895   0.7208
V155     V     0.5292   0.362   0.7895
V156     V     0.4605   0.2208   0.862
V157     V     0.9605   0.0292   0.888
V158     V     0.0292   0.888   0.9605
V159     V     0.888   0.9605   0.0292
V160     V     0.0395   0.9708   0.112
V161     V     0.9708   0.112   0.0395
V162     V     0.112   0.0395   0.9708
V163     V     0.112   0.2105   0.2792
V164     V     0.9708   0.138   0.2105
V165     V     0.0395   0.2792   0.138
V166     V     0.0292   0.362   0.2895
V167     V     0.9605   0.2208   0.362
V168     V     0.888   0.2895   0.2208
V169     V     0.7105   0.138   0.9708
V170     V     0.7792   0.2105   0.112
V171     V     0.638   0.2792   0.0395
V172     V     0.7895   0.362   0.0292
V173     V     0.7208   0.2895   0.888
V174     V     0.862   0.2208   0.9605
V175     V     0.2105   0.2792   0.112
V176     V     0.2792   0.138   0.0395
V177     V     0.138   0.2105   0.9708
V178     V     0.2208   0.362   0.9605
V179     V     0.362   0.2895   0.0292
V180     V     0.2895   0.2208   0.888
V181     V     0.138   0.7105   0.4708
V182     V     0.2105   0.7792   0.612
V183     V     0.2792   0.638   0.5395
V184     V     0.362   0.7895   0.5292
V185     V     0.2895   0.7208   0.388
V186     V     0.2208   0.862   0.4605
V187     V     0.138   0.9708   0.7105
V188     V     0.2105   0.112   0.7792
V189     V     0.2792   0.0395   0.638
V190     V     0.362   0.0292   0.7895
V191     V     0.2895   0.888   0.7208
V192     V     0.2208   0.9605   0.862
loop_
_geom_bond_atom_site_label_1
_geom_bond_atom_site_label_2
_geom_bond_distance
_geom_bond_site_symmetry_2
_ccdc_geom_bond_type
V1     V2    10.0   .     S
V1     V3    10.0   .     S
V1     V6    10.0   .     S
V1     V5    10.0   .     S
V1     V131    10.0   .     S
V1     V63    10.0   .     S
V2     V3    10.0   .     S
V2     V4    10.0   .     S
V2     V6    10.0   .     S
V2     V148    10.0   .     S
V2     V85    10.0   .     S
V3     V4    10.0   .     S
V3     V5    10.0   .     S
V3     V22    10.0   .     S
V3     V75    10.0   .     S
V4     V5    10.0   .     S
V4     V6    10.0   .     S
V4     V51    10.0   .     S
V4     V143    10.0   .     S
V5     V6    10.0   .     S
V5     V56    10.0   .     S
V5     V185    10.0   .     S
V6     V8    10.0   .     S
V6     V108    10.0   .     S
V7     V8    10.0   1_545     S
V7     V9    10.0   .     S
V7     V12    10.0   1_545     S
V7     V10    10.0   .     S
V7     V159    10.0   1_545     S
V7     V170    10.0   .     S
V8     V7    10.0   1_565     S
V8     V9    10.0   1_565     S
V8     V12    10.0   .     S
V8     V11    10.0   .     S
V8     V145    10.0   .     S
V9     V8    10.0   1_545     S
V9     V11    10.0   1_545     S
V9     V10    10.0   .     S
V9     V47    10.0   .     S
V9     V25    10.0   .     S
V10     V12    10.0   1_545     S
V10     V11    10.0   1_545     S
V10     V164    10.0   .     S
V10     V121    10.0   .     S
V11     V9    10.0   1_565     S
V11     V10    10.0   1_565     S
V11     V12    10.0   .     S
V11     V103    10.0   1_565     S
V11     V131    10.0   .     S
V12     V7    10.0   1_565     S
V12     V10    10.0   1_565     S
V12     V85    10.0   .     S
V12     V138    10.0   .     S
V13     V14    10.0   .     S
V13     V15    10.0   .     S
V13     V18    10.0   .     S
V13     V17    10.0   .     S
V13     V82    10.0   .     S
V13     V183    10.0   .     S
V14     V15    10.0   .     S
V14     V16    10.0   .     S
V14     V18    10.0   .     S
V14     V112    10.0   .     S
V14     V118    10.0   .     S
V15     V16    10.0   .     S
V15     V17    10.0   .     S
V15     V34    10.0   .     S
V15     V102    10.0   .     S
V16     V17    10.0   .     S
V16     V18    10.0   .     S
V16     V38    10.0   .     S
V16     V178    10.0   .     S
V17     V18    10.0   .     S
V17     V57    10.0   .     S
V17     V154    10.0   .     S
V18     V50    10.0   .     S
V18     V78    10.0   .     S
V19     V21    10.0   .     S
V19     V20    10.0   .     S
V19     V22    10.0   .     S
V19     V23    10.0   .     S
V19     V76    10.0   .     S
V19     V51    10.0   .     S
V20     V21    10.0   .     S
V20     V23    10.0   .     S
V20     V24    10.0   .     S
V20     V166    10.0   .     S
V20     V111    10.0   .     S
V21     V22    10.0   .     S
V21     V24    10.0   .     S
V21     V185    10.0   .     S
V21     V135    10.0   .     S
V22     V24    10.0   .     S
V22     V23    10.0   .     S
V22     V58    10.0   .     S
V23     V24    10.0   .     S
V23     V175    10.0   .     S
V23     V30    10.0   .     S
V24     V100    10.0   .     S
V24     V35    10.0   .     S
V25     V27    10.0   .     S
V25     V26    10.0   .     S
V25     V28    10.0   .     S
V25     V29    10.0   .     S
V25     V106    10.0   .     S
V26     V27    10.0   .     S
V26     V29    10.0   .     S
V26     V30    10.0   .     S
V26     V64    10.0   .     S
V26     V171    10.0   .     S
V27     V28    10.0   .     S
V27     V30    10.0   .     S
V27     V179    10.0   .     S
V27     V147    10.0   .     S
V28     V29    10.0   .     S
V28     V30    10.0   .     S
V28     V139    10.0   .     S
V28     V36    10.0   .     S
V29     V30    10.0   .     S
V29     V45    10.0   .     S
V29     V60    10.0   .     S
V30     V73    10.0   .     S
V31     V32    10.0   .     S
V31     V33    10.0   .     S
V31     V35    10.0   .     S
V31     V34    10.0   .     S
V31     V98    10.0   .     S
V31     V38    10.0   .     S
V32     V33    10.0   .     S
V32     V35    10.0   .     S
V32     V36    10.0   .     S
V32     V142    10.0   .     S
V32     V126    10.0   .     S
V33     V34    10.0   .     S
V33     V36    10.0   .     S
V33     V154    10.0   .     S
V33     V189    10.0   .     S
V34     V36    10.0   .     S
V34     V35    10.0   .     S
V34     V59    10.0   .     S
V35     V36    10.0   .     S
V35     V163    10.0   .     S
V36     V104    10.0   .     S
V37     V39    10.0   1_455     S
V37     V38    10.0   .     S
V37     V40    10.0   .     S
V37     V42    10.0   1_455     S
V37     V157    10.0   1_455     S
V37     V188    10.0   .     S
V38     V39    10.0   1_455     S
V38     V41    10.0   1_455     S
V38     V40    10.0   .     S
V39     V37    10.0   1_655     S
V39     V38    10.0   1_655     S
V39     V42    10.0   .     S
V39     V41    10.0   .     S
V39     V48    10.0   .     S
V39     V125    10.0   .     S
V40     V42    10.0   1_455     S
V40     V41    10.0   1_455     S
V40     V177    10.0   .     S
V40     V112    10.0   .     S
V41     V38    10.0   1_655     S
V41     V42    10.0   .     S
V41     V40    10.0   1_655     S
V41     V102    10.0   1_655     S
V41     V95    10.0   .     S
V42     V37    10.0   1_655     S
V42     V40    10.0   1_655     S
V42     V67    10.0   .     S
V42     V174    10.0   .     S
V43     V44    10.0   .     S
V43     V45    10.0   .     S
V43     V48    10.0   .     S
V43     V46    10.0   .     S
V43     V95    10.0   .     S
V43     V153    10.0   .     S
V44     V45    10.0   .     S
V44     V47    10.0   .     S
V44     V48    10.0   .     S
V44     V121    10.0   .     S
V44     V67    10.0   .     S
V45     V47    10.0   .     S
V45     V46    10.0   .     S
V45     V103    10.0   .     S
V46     V48    10.0   .     S
V46     V47    10.0   .     S
V46     V55    10.0   .     S
V46     V64    10.0   .     S
V47     V48    10.0   .     S
V47     V167    10.0   .     S
V48     V99    10.0   .     S
V49     V50    10.0   1_554     S
V49     V51    10.0   .     S
V49     V54    10.0   1_554     S
V49     V52    10.0   .     S
V49     V158    10.0   1_554     S
V49     V133    10.0   .     S
V50     V49    10.0   1_556     S
V50     V51    10.0   1_556     S
V50     V53    10.0   .     S
V50     V54    10.0   .     S
V50     V110    10.0   .     S
V51     V50    10.0   1_554     S
V51     V53    10.0   1_554     S
V51     V52    10.0   .     S
V52     V54    10.0   1_554     S
V52     V53    10.0   1_554     S
V52     V140    10.0   .     S
V52     V148    10.0   .     S
V53     V51    10.0   1_556     S
V53     V54    10.0   .     S
V53     V52    10.0   1_556     S
V53     V75    10.0   1_556     S
V53     V82    10.0   .     S
V54     V49    10.0   1_556     S
V54     V52    10.0   1_556     S
V54     V118    10.0   .     S
V54     V192    10.0   .     S
V55     V56    10.0   .     S
V55     V57    10.0   .     S
V55     V59    10.0   .     S
V55     V60    10.0   .     S
V55     V93    10.0   .     S
V56     V57    10.0   .     S
V56     V58    10.0   .     S
V56     V60    10.0   .     S
V56     V129    10.0   .     S
V57     V59    10.0   .     S
V57     V58    10.0   .     S
V57     V81    10.0   .     S
V58     V60    10.0   .     S
V58     V59    10.0   .     S
V58     V183    10.0   .     S
V59     V60    10.0   .     S
V59     V153    10.0   .     S
V60     V63    10.0   .     S
V61     V62    10.0   .     S
V61     V63    10.0   .     S
V61     V65    10.0   .     S
V61     V66    10.0   .     S
V61     V137    10.0   .     S
V61     V86    10.0   .     S
V62     V63    10.0   .     S
V62     V64    10.0   .     S
V62     V66    10.0   .     S
V62     V172    10.0   .     S
V62     V73    10.0   .     S
V63     V65    10.0   .     S
V63     V64    10.0   .     S
V64     V66    10.0   .     S
V64     V65    10.0   .     S
V65     V66    10.0   .     S
V65     V129    10.0   .     S
V65     V97    10.0   .     S
V66     V109    10.0   .     S
V66     V168    10.0   .     S
V67     V69    10.0   1_545     S
V67     V68    10.0   .     S
V67     V71    10.0   1_545     S
V67     V72    10.0   .     S
V68     V69    10.0   1_545     S
V68     V70    10.0   1_545     S
V68     V72    10.0   .     S
V68     V150    10.0   1_545     S
V68     V151    10.0   .     S
V69     V67    10.0   1_565     S
V69     V68    10.0   1_565     S
V69     V71    10.0   .     S
V69     V70    10.0   .     S
V69     V130    10.0   .     S
V69     V105    10.0   .     S
V70     V68    10.0   1_565     S
V70     V71    10.0   .     S
V70     V72    10.0   1_565     S
V70     V79    10.0   .     S
V70     V90    10.0   .     S
V71     V67    10.0   1_565     S
V71     V72    10.0   1_565     S
V71     V125    10.0   1_565     S
V71     V116    10.0   .     S
V72     V71    10.0   1_545     S
V72     V70    10.0   1_545     S
V72     V169    10.0   .     S
V72     V157    10.0   .     S
V73     V74    10.0   1_554     S
V73     V75    10.0   .     S
V73     V77    10.0   1_554     S
V73     V76    10.0   .     S
V74     V75    10.0   1_556     S
V74     V73    10.0   1_556     S
V74     V77    10.0   .     S
V74     V78    10.0   .     S
V74     V96    10.0   .     S
V74     V87    10.0   .     S
V75     V74    10.0   1_554     S
V75     V76    10.0   .     S
V75     V78    10.0   1_554     S
V75     V53    10.0   1_554     S
V76     V77    10.0   1_554     S
V76     V78    10.0   1_554     S
V76     V179    10.0   .     S
V77     V73    10.0   1_556     S
V77     V76    10.0   1_556     S
V77     V78    10.0   .     S
V77     V171    10.0   1_556     S
V77     V155    10.0   .     S
V78     V75    10.0   1_556     S
V78     V76    10.0   1_556     S
V78     V80    10.0   .     S
V79     V81    10.0   .     S
V79     V80    10.0   .     S
V79     V84    10.0   .     S
V79     V83    10.0   .     S
V79     V128    10.0   .     S
V80     V81    10.0   .     S
V80     V84    10.0   .     S
V80     V82    10.0   .     S
V80     V92    10.0   .     S
V81     V82    10.0   .     S
V81     V83    10.0   .     S
V81     V184    10.0   .     S
V82     V84    10.0   .     S
V82     V83    10.0   .     S
V83     V84    10.0   .     S
V83     V105    10.0   .     S
V83     V191    10.0   .     S
V84     V87    10.0   .     S
V84     V150    10.0   .     S
V85     V87    10.0   1_554     S
V85     V86    10.0   .     S
V85     V90    10.0   1_554     S
V85     V89    10.0   .     S
V86     V87    10.0   1_554     S
V86     V88    10.0   1_554     S
V86     V89    10.0   .     S
V86     V114    10.0   1_554     S
V87     V85    10.0   1_556     S
V87     V86    10.0   1_556     S
V87     V90    10.0   .     S
V87     V88    10.0   .     S
V88     V86    10.0   1_556     S
V88     V90    10.0   .     S
V88     V89    10.0   1_556     S
V88     V92    10.0   .     S
V88     V115    10.0   .     S
V89     V90    10.0   1_554     S
V89     V88    10.0   1_554     S
V89     V134    10.0   .     S
V89     V159    10.0   .     S
V90     V85    10.0   1_556     S
V90     V89    10.0   1_556     S
V90     V145    10.0   1_556     S
V91     V92    10.0   .     S
V91     V93    10.0   .     S
V91     V94    10.0   .     S
V91     V95    10.0   .     S
V91     V99    10.0   .     S
V91     V127    10.0   .     S
V92     V93    10.0   .     S
V92     V96    10.0   .     S
V92     V94    10.0   .     S
V93     V95    10.0   .     S
V93     V96    10.0   .     S
V93     V155    10.0   .     S
V94     V95    10.0   .     S
V94     V96    10.0   .     S
V94     V120    10.0   .     S
V94     V114    10.0   .     S
V95     V96    10.0   .     S
V96     V173    10.0   .     S
V97     V98    10.0   1_655     S
V97     V99    10.0   .     S
V97     V100    10.0   1_655     S
V97     V101    10.0   .     S
V97     V135    10.0   1_655     S
V98     V99    10.0   1_455     S
V98     V97    10.0   1_455     S
V98     V102    10.0   .     S
V98     V100    10.0   .     S
V98     V166    10.0   .     S
V99     V98    10.0   1_655     S
V99     V102    10.0   1_655     S
V99     V101    10.0   .     S
V100     V97    10.0   1_455     S
V100     V101    10.0   1_455     S
V100     V102    10.0   .     S
V100     V181    10.0   .     S
V101     V100    10.0   1_655     S
V101     V102    10.0   1_655     S
V101     V132    10.0   .     S
V101     V120    10.0   .     S
V102     V99    10.0   1_455     S
V102     V101    10.0   1_455     S
V102     V41    10.0   1_455     S
V103     V105    10.0   1_545     S
V103     V104    10.0   .     S
V103     V106    10.0   .     S
V103     V108    10.0   1_545     S
V103     V11    10.0   1_545     S
V104     V105    10.0   1_545     S
V104     V106    10.0   .     S
V104     V107    10.0   1_545     S
V104     V152    10.0   .     S
V105     V103    10.0   1_565     S
V105     V104    10.0   1_565     S
V105     V107    10.0   .     S
V105     V108    10.0   .     S
V106     V107    10.0   1_545     S
V106     V108    10.0   1_545     S
V106     V142    10.0   .     S
V107     V104    10.0   1_565     S
V107     V106    10.0   1_565     S
V107     V108    10.0   .     S
V107     V189    10.0   1_565     S
V107     V184    10.0   .     S
V108     V103    10.0   1_565     S
V108     V106    10.0   1_565     S
V108     V128    10.0   .     S
V109     V111    10.0   1_655     S
V109     V110    10.0   1_654     S
V109     V114    10.0   1_554     S
V109     V113    10.0   .     S
V109     V134    10.0   .     S
V110     V109    10.0   1_456     S
V110     V111    10.0   1_556     S
V110     V112    10.0   .     S
V110     V114    10.0   1_455     S
V110     V115    10.0   1_455     S
V111     V109    10.0   1_455     S
V111     V110    10.0   1_554     S
V111     V113    10.0   1_455     S
V111     V112    10.0   1_554     S
V111     V178    10.0   1_554     S
V112     V114    10.0   1_455     S
V112     V113    10.0   1_456     S
V112     V111    10.0   1_556     S
V113     V112    10.0   1_654     S
V113     V114    10.0   1_554     S
V113     V111    10.0   1_655     S
V113     V165    10.0   1_655     S
V113     V172    10.0   .     S
V114     V86    10.0   1_556     S
V114     V112    10.0   1_655     S
V114     V113    10.0   1_556     S
V114     V110    10.0   1_655     S
V114     V109    10.0   1_556     S
V115     V110    10.0   1_655     S
V115     V116    10.0   .     S
V115     V117    10.0   1_655     S
V115     V118    10.0   1_655     S
V115     V120    10.0   .     S
V116     V117    10.0   1_655     S
V116     V120    10.0   .     S
V116     V119    10.0   1_655     S
V116     V127    10.0   .     S
V117     V116    10.0   1_455     S
V117     V115    10.0   1_455     S
V117     V119    10.0   .     S
V117     V118    10.0   .     S
V117     V187    10.0   .     S
V117     V158    10.0   .     S
V118     V115    10.0   1_455     S
V118     V120    10.0   1_455     S
V118     V119    10.0   .     S
V119     V116    10.0   1_455     S
V119     V120    10.0   1_455     S
V119     V123    10.0   1_455     S
V119     V182    10.0   .     S
V120     V118    10.0   1_655     S
V120     V119    10.0   1_655     S
V121     V123    10.0   1_545     S
V121     V122    10.0   1_645     S
V121     V125    10.0   .     S
V121     V126    10.0   1_655     S
V122     V123    10.0   1_455     S
V122     V121    10.0   1_465     S
V122     V124    10.0   .     S
V122     V126    10.0   1_565     S
V122     V141    10.0   1_565     S
V122     V136    10.0   .     S
V123     V121    10.0   1_565     S
V123     V122    10.0   1_655     S
V123     V124    10.0   1_655     S
V123     V125    10.0   1_565     S
V123     V119    10.0   1_655     S
V123     V130    10.0   .     S
V124     V123    10.0   1_455     S
V124     V126    10.0   1_565     S
V124     V125    10.0   1_465     S
V124     V186    10.0   .     S
V124     V187    10.0   .     S
V125     V71    10.0   1_545     S
V125     V123    10.0   1_545     S
V125     V124    10.0   1_645     S
V125     V126    10.0   1_655     S
V126     V121    10.0   1_455     S
V126     V122    10.0   1_545     S
V126     V124    10.0   1_545     S
V126     V125    10.0   1_455     S
V126     V167    10.0   1_455     S
V127     V129    10.0   .     S
V127     V128    10.0   .     S
V127     V132    10.0   .     S
V127     V130    10.0   .     S
V128     V129    10.0   .     S
V128     V130    10.0   .     S
V128     V131    10.0   .     S
V129     V131    10.0   .     S
V129     V132    10.0   .     S
V130     V131    10.0   .     S
V130     V132    10.0   .     S
V131     V132    10.0   .     S
V132     V137    10.0   .     S
V133     V135    10.0   .     S
V133     V134    10.0   1_455     S
V133     V138    10.0   1_455     S
V133     V136    10.0   .     S
V133     V144    10.0   .     S
V134     V135    10.0   1_655     S
V134     V133    10.0   1_655     S
V134     V138    10.0   .     S
V134     V137    10.0   .     S
V135     V134    10.0   1_455     S
V135     V136    10.0   .     S
V135     V137    10.0   1_455     S
V135     V97    10.0   1_455     S
V136     V137    10.0   1_455     S
V136     V138    10.0   1_455     S
V136     V181    10.0   .     S
V137     V135    10.0   1_655     S
V137     V136    10.0   1_655     S
V137     V138    10.0   .     S
V138     V133    10.0   1_655     S
V138     V136    10.0   1_655     S
V138     V160    10.0   1_655     S
V139     V140    10.0   1_545     S
V139     V141    10.0   .     S
V139     V143    10.0   1_545     S
V139     V142    10.0   .     S
V139     V176    10.0   .     S
V140     V139    10.0   1_565     S
V140     V141    10.0   1_565     S
V140     V143    10.0   .     S
V140     V144    10.0   .     S
V140     V160    10.0   .     S
V141     V140    10.0   1_545     S
V141     V144    10.0   1_545     S
V141     V142    10.0   .     S
V141     V122    10.0   1_545     S
V141     V163    10.0   .     S
V142     V144    10.0   1_545     S
V142     V143    10.0   1_545     S
V143     V139    10.0   1_565     S
V143     V142    10.0   1_565     S
V143     V144    10.0   .     S
V143     V147    10.0   1_565     S
V144     V141    10.0   1_565     S
V144     V142    10.0   1_565     S
V144     V186    10.0   .     S
V145     V90    10.0   1_554     S
V145     V146    10.0   1_564     S
V145     V147    10.0   1_565     S
V145     V148    10.0   .     S
V145     V150    10.0   1_554     S
V146     V145    10.0   1_546     S
V146     V147    10.0   1_556     S
V146     V150    10.0   1_545     S
V146     V149    10.0   .     S
V146     V156    10.0   .     S
V146     V169    10.0   .     S
V147     V146    10.0   1_554     S
V147     V145    10.0   1_545     S
V147     V149    10.0   1_554     S
V147     V148    10.0   1_545     S
V147     V143    10.0   1_545     S
V148     V150    10.0   1_554     S
V148     V149    10.0   1_564     S
V148     V147    10.0   1_565     S
V149     V148    10.0   1_546     S
V149     V150    10.0   1_545     S
V149     V147    10.0   1_556     S
V149     V176    10.0   1_556     S
V149     V190    10.0   .     S
V150     V68    10.0   1_565     S
V150     V148    10.0   1_556     S
V150     V149    10.0   1_565     S
V150     V145    10.0   1_556     S
V150     V146    10.0   1_565     S
V151     V152    10.0   .     S
V151     V153    10.0   .     S
V151     V155    10.0   .     S
V151     V156    10.0   .     S
V151     V173    10.0   .     S
V152     V153    10.0   .     S
V152     V154    10.0   .     S
V152     V156    10.0   .     S
V152     V190    10.0   .     S
V153     V155    10.0   .     S
V153     V154    10.0   .     S
V154     V155    10.0   .     S
V154     V156    10.0   .     S
V155     V156    10.0   .     S
V156     V180    10.0   .     S
V157     V159    10.0   1_546     S
V157     V158    10.0   1_645     S
V157     V161    10.0   1_556     S
V157     V162    10.0   1_655     S
V157     V37    10.0   1_655     S
V158     V157    10.0   1_465     S
V158     V159    10.0   1_456     S
V158     V160    10.0   1_556     S
V158     V162    10.0   1_565     S
V158     V49    10.0   1_556     S
V159     V157    10.0   1_564     S
V159     V158    10.0   1_654     S
V159     V161    10.0   1_565     S
V159     V160    10.0   1_655     S
V159     V7    10.0   1_565     S
V160     V138    10.0   1_455     S
V160     V158    10.0   1_554     S
V160     V159    10.0   1_455     S
V160     V161    10.0   1_465     S
V160     V162    10.0   1_564     S
V161     V157    10.0   1_554     S
V161     V159    10.0   1_545     S
V161     V160    10.0   1_645     S
V161     V162    10.0   1_654     S
V161     V174    10.0   1_554     S
V161     V164    10.0   .     S
V162     V157    10.0   1_455     S
V162     V158    10.0   1_545     S
V162     V161    10.0   1_456     S
V162     V160    10.0   1_546     S
V162     V192    10.0   1_545     S
V162     V177    10.0   .     S
V163     V164    10.0   1_455     S
V163     V165    10.0   .     S
V163     V167    10.0   1_455     S
V163     V166    10.0   .     S
V164     V163    10.0   1_655     S
V164     V165    10.0   1_655     S
V164     V167    10.0   .     S
V164     V168    10.0   .     S
V165     V164    10.0   1_455     S
V165     V168    10.0   1_455     S
V165     V166    10.0   .     S
V165     V113    10.0   1_455     S
V165     V175    10.0   .     S
V166     V168    10.0   1_455     S
V166     V167    10.0   1_455     S
V167     V126    10.0   1_655     S
V167     V163    10.0   1_655     S
V167     V166    10.0   1_655     S
V167     V168    10.0   .     S
V168     V165    10.0   1_655     S
V168     V166    10.0   1_655     S
V168     V170    10.0   .     S
V169     V170    10.0   1_556     S
V169     V171    10.0   1_556     S
V169     V174    10.0   .     S
V169     V173    10.0   .     S
V170     V169    10.0   1_554     S
V170     V171    10.0   .     S
V170     V174    10.0   1_554     S
V170     V172    10.0   .     S
V171     V169    10.0   1_554     S
V171     V172    10.0   .     S
V171     V173    10.0   1_554     S
V171     V77    10.0   1_554     S
V172     V173    10.0   1_554     S
V172     V174    10.0   1_554     S
V173     V171    10.0   1_556     S
V173     V172    10.0   1_556     S
V173     V174    10.0   .     S
V174     V170    10.0   1_556     S
V174     V172    10.0   1_556     S
V174     V161    10.0   1_556     S
V175     V176    10.0   .     S
V175     V177    10.0   1_554     S
V175     V178    10.0   1_554     S
V175     V179    10.0   .     S
V176     V177    10.0   1_554     S
V176     V179    10.0   .     S
V176     V180    10.0   1_554     S
V176     V149    10.0   1_554     S
V177     V175    10.0   1_556     S
V177     V176    10.0   1_556     S
V177     V178    10.0   .     S
V177     V180    10.0   .     S
V178     V111    10.0   1_556     S
V178     V175    10.0   1_556     S
V178     V179    10.0   1_556     S
V178     V180    10.0   .     S
V179     V180    10.0   1_554     S
V179     V178    10.0   1_554     S
V180     V176    10.0   1_556     S
V180     V179    10.0   1_556     S
V180     V188    10.0   .     S
V181     V183    10.0   .     S
V181     V182    10.0   .     S
V181     V185    10.0   .     S
V181     V186    10.0   .     S
V182     V183    10.0   .     S
V182     V184    10.0   .     S
V182     V186    10.0   .     S
V182     V191    10.0   .     S
V183     V184    10.0   .     S
V183     V185    10.0   .     S
V184     V185    10.0   .     S
V184     V186    10.0   .     S
V185     V186    10.0   .     S
V187     V188    10.0   1_565     S
V187     V189    10.0   1_565     S
V187     V191    10.0   .     S
V187     V192    10.0   .     S
V188     V187    10.0   1_545     S
V188     V189    10.0   .     S
V188     V192    10.0   1_545     S
V188     V190    10.0   .     S
V189     V187    10.0   1_545     S
V189     V191    10.0   1_545     S
V189     V190    10.0   .     S
V189     V107    10.0   1_545     S
V190     V191    10.0   1_545     S
V190     V192    10.0   1_545     S
V191     V189    10.0   1_565     S
V191     V190    10.0   1_565     S
V191     V192    10.0   .     S
V192     V188    10.0   1_565     S
V192     V190    10.0   1_565     S
V192     V162    10.0   1_565     S
