data_sxo
_audit_creation_date              2020-02-02
_audit_creation_method            'Pymatgen'
_symmetry_space_group_name_H-M    'P1'
_symmetry_Int_Tables_number       1
loop_
_symmetry_equiv_pos_as_xyz
  x,y,z
_cell_length_a                    44.5858
_cell_length_b                    44.5858
_cell_length_c                    44.5858
_cell_angle_alpha                 90.0
_cell_angle_beta                 90.0
_cell_angle_gamma                 90.0
loop_
_atom_site_label
_atom_site_type_symbol
_atom_site_fract_x
_atom_site_fract_y
_atom_site_fract_z
V1     V     0.6494   0.4543   0.5495
V2     V     0.8506   0.4543   0.4505
V3     V     0.9543   0.4505   0.6494
V4     V     0.9543   0.5495   0.8506
V5     V     0.6494   0.9543   0.4505
V6     V     0.8506   0.9543   0.5495
V7     V     0.4505   0.6494   0.9543
V8     V     0.5495   0.8506   0.9543
V9     V     0.7005   0.7957   0.6006
V10     V     0.7995   0.7957   0.3994
V11     V     0.7043   0.6006   0.2995
V12     V     0.7043   0.3994   0.2005
V13     V     0.7957   0.6006   0.7005
V14     V     0.7957   0.3994   0.7995
V15     V     0.6006   0.7005   0.7957
V16     V     0.3994   0.7995   0.7957
V17     V     0.2995   0.7043   0.6006
V18     V     0.2005   0.7043   0.3994
V19     V     0.4505   0.3506   0.5457
V20     V     0.5495   0.1494   0.5457
V21     V     0.3994   0.7005   0.2957
V22     V     0.6006   0.7995   0.2957
V23     V     0.1006   0.7005   0.7043
V24     V     0.8994   0.7995   0.7043
V25     V     0.1006   0.7995   0.2043
V26     V     0.8994   0.7005   0.2043
V27     V     0.7005   0.2957   0.3994
V28     V     0.7995   0.2957   0.6006
V29     V     0.0495   0.6494   0.0457
V30     V     0.9505   0.8506   0.0457
V31     V     0.0495   0.3506   0.4543
V32     V     0.9505   0.1494   0.4543
V33     V     0.5495   0.6494   0.4543
V34     V     0.4505   0.8506   0.4543
V35     V     0.9505   0.6494   0.5457
V36     V     0.0495   0.8506   0.5457
V37     V     0.5457   0.4505   0.3506
V38     V     0.5457   0.5495   0.1494
V39     V     0.7005   0.7043   0.1006
V40     V     0.7995   0.7043   0.8994
V41     V     0.4543   0.0495   0.3506
V42     V     0.4543   0.9505   0.1494
V43     V     0.3506   0.5457   0.4505
V44     V     0.1494   0.5457   0.5495
V45     V     0.2957   0.3994   0.7005
V46     V     0.2957   0.6006   0.7995
V47     V     0.3506   0.4543   0.0495
V48     V     0.1494   0.4543   0.9505
V49     V     0.2043   0.3994   0.2995
V50     V     0.2043   0.6006   0.2005
V51     V     0.5457   0.9505   0.6494
V52     V     0.5457   0.0495   0.8506
V53     V     0.6494   0.5457   0.9505
V54     V     0.8506   0.5457   0.0495
V55     V     0.0457   0.0495   0.6494
V56     V     0.0457   0.9505   0.8506
V57     V     0.2005   0.2043   0.6006
V58     V     0.2995   0.2043   0.3994
V59     V     0.6494   0.0457   0.0495
V60     V     0.8506   0.0457   0.9505
V61     V     0.7043   0.1006   0.7005
V62     V     0.7043   0.8994   0.7995
V63     V     0.6006   0.2005   0.2043
V64     V     0.3994   0.2995   0.2043
V65     V     0.4543   0.5495   0.6494
V66     V     0.4543   0.4505   0.8506
V67     V     0.9543   0.0495   0.1494
V68     V     0.9543   0.9505   0.3506
V69     V     0.0457   0.4505   0.1494
V70     V     0.0457   0.5495   0.3506
V71     V     0.7995   0.2043   0.1006
V72     V     0.7005   0.2043   0.8994
V73     V     0.1494   0.9543   0.0495
V74     V     0.3506   0.9543   0.9505
V75     V     0.2043   0.1006   0.7995
V76     V     0.2043   0.8994   0.7005
V77     V     0.1494   0.0457   0.4505
V78     V     0.3506   0.0457   0.5495
V79     V     0.0495   0.1494   0.9543
V80     V     0.9505   0.3506   0.9543
V81     V     0.4505   0.1494   0.0457
V82     V     0.5495   0.3506   0.0457
V83     V     0.2995   0.7957   0.1006
V84     V     0.2005   0.7957   0.8994
V85     V     0.7957   0.1006   0.2995
V86     V     0.7957   0.8994   0.2005
V87     V     0.2005   0.2957   0.1006
V88     V     0.2995   0.2957   0.8994
V89     V     0.1006   0.2995   0.7957
V90     V     0.8994   0.2005   0.7957
V91     V     0.2957   0.1006   0.2005
V92     V     0.2957   0.8994   0.2995
V93     V     0.3994   0.2005   0.7043
V94     V     0.6006   0.2995   0.7043
V95     V     0.1006   0.2005   0.2957
V96     V     0.8994   0.2995   0.2957
loop_
_geom_bond_atom_site_label_1
_geom_bond_atom_site_label_2
_geom_bond_distance
_geom_bond_site_symmetry_2
_ccdc_geom_bond_type
V1     V2    10.0   .     S
V1     V19    10.0   .     S
V1     V94    10.0   .     S
V1     V28    10.0   .     S
V1     V37    10.0   .     S
V1     V27    10.0   .     S
V2     V3    10.0   .     S
V2     V28    10.0   .     S
V2     V31    10.0   1_655     S
V2     V96    10.0   .     S
V2     V27    10.0   .     S
V3     V4    10.0   .     S
V3     V28    10.0   .     S
V3     V14    10.0   .     S
V3     V35    10.0   .     S
V3     V13    10.0   .     S
V4     V54    10.0   1_556     S
V4     V40    10.0   .     S
V4     V13    10.0   .     S
V4     V80    10.0   .     S
V4     V14    10.0   .     S
V5     V6    10.0   .     S
V5     V22    10.0   .     S
V5     V34    10.0   .     S
V5     V10    10.0   .     S
V5     V51    10.0   .     S
V5     V9    10.0   .     S
V6     V68    10.0   .     S
V6     V10    10.0   .     S
V6     V24    10.0   .     S
V6     V36    10.0   1_655     S
V6     V9    10.0   .     S
V7     V8    10.0   .     S
V7     V46    10.0   .     S
V7     V66    10.0   .     S
V7     V16    10.0   .     S
V7     V53    10.0   .     S
V7     V15    10.0   .     S
V8     V74    10.0   .     S
V8     V16    10.0   .     S
V8     V52    10.0   1_565     S
V8     V62    10.0   .     S
V8     V15    10.0   .     S
V9     V10    10.0   .     S
V9     V24    10.0   .     S
V9     V51    10.0   .     S
V9     V62    10.0   .     S
V10     V68    10.0   .     S
V10     V86    10.0   .     S
V10     V22    10.0   .     S
V11     V12    10.0   .     S
V11     V39    10.0   .     S
V11     V38    10.0   .     S
V11     V33    10.0   .     S
V11     V22    10.0   .     S
V11     V37    10.0   .     S
V12     V82    10.0   .     S
V12     V63    10.0   .     S
V12     V38    10.0   .     S
V12     V27    10.0   .     S
V12     V37    10.0   .     S
V13     V14    10.0   .     S
V13     V35    10.0   .     S
V13     V24    10.0   .     S
V13     V40    10.0   .     S
V14     V28    10.0   .     S
V14     V80    10.0   .     S
V14     V90    10.0   .     S
V15     V16    10.0   .     S
V15     V62    10.0   .     S
V15     V53    10.0   .     S
V15     V40    10.0   .     S
V16     V74    10.0   .     S
V16     V84    10.0   .     S
V16     V46    10.0   .     S
V17     V18    10.0   .     S
V17     V23    10.0   .     S
V17     V44    10.0   .     S
V17     V65    10.0   .     S
V17     V46    10.0   .     S
V17     V43    10.0   .     S
V18     V70    10.0   .     S
V18     V50    10.0   .     S
V18     V44    10.0   .     S
V18     V21    10.0   .     S
V18     V43    10.0   .     S
V19     V20    10.0   .     S
V19     V94    10.0   .     S
V19     V45    10.0   .     S
V19     V65    10.0   .     S
V19     V93    10.0   .     S
V20     V51    10.0   1_545     S
V20     V61    10.0   .     S
V20     V94    10.0   .     S
V20     V78    10.0   .     S
V20     V93    10.0   .     S
V21     V22    10.0   .     S
V21     V92    10.0   .     S
V21     V34    10.0   .     S
V21     V43    10.0   .     S
V21     V33    10.0   .     S
V22     V34    10.0   .     S
V22     V33    10.0   .     S
V23     V24    10.0   1_455     S
V23     V44    10.0   .     S
V23     V35    10.0   1_455     S
V23     V76    10.0   .     S
V23     V36    10.0   .     S
V24     V23    10.0   1_655     S
V24     V35    10.0   .     S
V24     V36    10.0   1_655     S
V25     V26    10.0   1_455     S
V25     V83    10.0   .     S
V25     V73    10.0   .     S
V25     V30    10.0   1_455     S
V25     V50    10.0   .     S
V25     V29    10.0   .     S
V26     V25    10.0   1_655     S
V26     V86    10.0   .     S
V26     V30    10.0   .     S
V26     V39    10.0   .     S
V26     V54    10.0   .     S
V26     V29    10.0   1_655     S
V27     V28    10.0   .     S
V27     V96    10.0   .     S
V27     V37    10.0   .     S
V28     V94    10.0   .     S
V29     V30    10.0   1_455     S
V29     V69    10.0   .     S
V29     V50    10.0   .     S
V29     V54    10.0   1_455     S
V29     V26    10.0   1_455     S
V30     V29    10.0   1_655     S
V30     V73    10.0   1_655     S
V30     V25    10.0   1_655     S
V30     V67    10.0   1_565     S
V30     V86    10.0   .     S
V31     V32    10.0   1_455     S
V31     V2    10.0   1_455     S
V31     V96    10.0   1_455     S
V31     V49    10.0   .     S
V31     V70    10.0   .     S
V31     V95    10.0   .     S
V32     V31    10.0   1_655     S
V32     V68    10.0   1_545     S
V32     V85    10.0   .     S
V32     V96    10.0   .     S
V32     V77    10.0   1_655     S
V32     V95    10.0   1_655     S
V33     V34    10.0   .     S
V33     V37    10.0   .     S
V33     V43    10.0   .     S
V34     V92    10.0   .     S
V34     V41    10.0   1_565     S
V35     V36    10.0   1_655     S
V35     V44    10.0   1_655     S
V35     V23    10.0   1_655     S
V36     V35    10.0   1_455     S
V36     V6    10.0   1_455     S
V36     V24    10.0   1_455     S
V36     V76    10.0   .     S
V36     V55    10.0   1_565     S
V37     V38    10.0   .     S
V38     V53    10.0   1_554     S
V38     V39    10.0   .     S
V38     V82    10.0   .     S
V39     V40    10.0   1_554     S
V39     V53    10.0   1_554     S
V39     V54    10.0   .     S
V40     V39    10.0   1_556     S
V40     V54    10.0   1_556     S
V40     V53    10.0   .     S
V41     V42    10.0   1_545     S
V41     V78    10.0   .     S
V41     V58    10.0   .     S
V41     V91    10.0   .     S
V41     V34    10.0   1_545     S
V41     V92    10.0   1_545     S
V42     V41    10.0   1_565     S
V42     V74    10.0   1_554     S
V42     V83    10.0   .     S
V42     V92    10.0   .     S
V42     V81    10.0   1_565     S
V42     V91    10.0   1_565     S
V43     V44    10.0   .     S
V43     V65    10.0   .     S
V44     V35    10.0   1_455     S
V44     V70    10.0   .     S
V45     V46    10.0   .     S
V45     V88    10.0   .     S
V45     V66    10.0   .     S
V45     V93    10.0   .     S
V45     V65    10.0   .     S
V46     V66    10.0   .     S
V46     V65    10.0   .     S
V47     V48    10.0   1_554     S
V47     V82    10.0   .     S
V47     V64    10.0   .     S
V47     V87    10.0   .     S
V47     V66    10.0   1_554     S
V47     V88    10.0   1_554     S
V48     V47    10.0   1_556     S
V48     V80    10.0   1_455     S
V48     V89    10.0   .     S
V48     V88    10.0   .     S
V48     V69    10.0   1_556     S
V48     V87    10.0   1_556     S
V49     V50    10.0   .     S
V49     V87    10.0   .     S
V49     V69    10.0   .     S
V49     V95    10.0   .     S
V49     V70    10.0   .     S
V50     V70    10.0   .     S
V50     V69    10.0   .     S
V51     V52    10.0   1_565     S
V51     V62    10.0   .     S
V51     V20    10.0   1_565     S
V51     V61    10.0   1_565     S
V52     V51    10.0   1_545     S
V52     V8    10.0   1_545     S
V52     V62    10.0   1_545     S
V52     V72    10.0   .     S
V52     V59    10.0   1_556     S
V52     V61    10.0   .     S
V53     V54    10.0   1_556     S
V53     V38    10.0   1_556     S
V53     V39    10.0   1_556     S
V54     V53    10.0   1_554     S
V54     V4    10.0   1_554     S
V54     V40    10.0   1_554     S
V54     V29    10.0   1_655     S
V55     V56    10.0   1_545     S
V55     V36    10.0   1_545     S
V55     V76    10.0   1_545     S
V55     V77    10.0   .     S
V55     V57    10.0   .     S
V55     V75    10.0   .     S
V56     V55    10.0   1_565     S
V56     V79    10.0   1_565     S
V56     V75    10.0   1_565     S
V56     V73    10.0   1_556     S
V56     V84    10.0   .     S
V56     V76    10.0   .     S
V57     V58    10.0   .     S
V57     V93    10.0   .     S
V57     V78    10.0   .     S
V57     V75    10.0   .     S
V57     V77    10.0   .     S
V58     V91    10.0   .     S
V58     V78    10.0   .     S
V58     V95    10.0   .     S
V58     V77    10.0   .     S
V59     V60    10.0   1_554     S
V59     V81    10.0   .     S
V59     V63    10.0   .     S
V59     V71    10.0   .     S
V59     V52    10.0   1_554     S
V59     V72    10.0   1_554     S
V60     V59    10.0   1_556     S
V60     V67    10.0   1_556     S
V60     V71    10.0   1_556     S
V60     V79    10.0   1_655     S
V60     V90    10.0   .     S
V60     V72    10.0   .     S
V61     V62    10.0   1_545     S
V61     V94    10.0   .     S
V61     V51    10.0   1_545     S
V61     V72    10.0   .     S
V62     V61    10.0   1_565     S
V62     V52    10.0   1_565     S
V63     V64    10.0   .     S
V63     V71    10.0   .     S
V63     V81    10.0   .     S
V63     V82    10.0   .     S
V64     V91    10.0   .     S
V64     V81    10.0   .     S
V64     V87    10.0   .     S
V64     V82    10.0   .     S
V65     V66    10.0   .     S
V66     V88    10.0   .     S
V66     V47    10.0   1_556     S
V67     V68    10.0   1_545     S
V67     V71    10.0   .     S
V67     V60    10.0   1_554     S
V67     V85    10.0   .     S
V67     V30    10.0   1_545     S
V67     V86    10.0   1_545     S
V68     V67    10.0   1_565     S
V68     V32    10.0   1_565     S
V68     V85    10.0   1_565     S
V68     V86    10.0   .     S
V69     V70    10.0   .     S
V69     V48    10.0   1_554     S
V69     V87    10.0   .     S
V71     V72    10.0   1_554     S
V71     V85    10.0   .     S
V71     V60    10.0   1_554     S
V72     V71    10.0   1_556     S
V72     V90    10.0   .     S
V72     V59    10.0   1_556     S
V73     V74    10.0   1_554     S
V73     V30    10.0   1_455     S
V73     V83    10.0   .     S
V73     V56    10.0   1_554     S
V73     V84    10.0   1_554     S
V74     V73    10.0   1_556     S
V74     V42    10.0   1_556     S
V74     V83    10.0   1_556     S
V74     V84    10.0   .     S
V75     V76    10.0   1_545     S
V75     V89    10.0   .     S
V75     V79    10.0   .     S
V75     V56    10.0   1_545     S
V76     V75    10.0   1_565     S
V76     V84    10.0   .     S
V76     V55    10.0   1_565     S
V77     V78    10.0   .     S
V77     V32    10.0   1_455     S
V77     V95    10.0   .     S
V78     V93    10.0   .     S
V79     V80    10.0   1_455     S
V79     V56    10.0   1_545     S
V79     V89    10.0   .     S
V79     V60    10.0   1_455     S
V79     V90    10.0   1_455     S
V80     V79    10.0   1_655     S
V80     V48    10.0   1_655     S
V80     V89    10.0   1_655     S
V80     V90    10.0   .     S
V81     V82    10.0   .     S
V81     V91    10.0   .     S
V81     V42    10.0   1_545     S
V83     V84    10.0   1_554     S
V83     V92    10.0   .     S
V83     V74    10.0   1_554     S
V84     V83    10.0   1_556     S
V84     V73    10.0   1_556     S
V85     V86    10.0   1_545     S
V85     V96    10.0   .     S
V85     V68    10.0   1_545     S
V86     V85    10.0   1_565     S
V86     V67    10.0   1_565     S
V87     V88    10.0   1_554     S
V87     V48    10.0   1_554     S
V88     V87    10.0   1_556     S
V88     V89    10.0   .     S
V88     V47    10.0   1_556     S
V89     V90    10.0   1_455     S
V89     V80    10.0   1_455     S
V90     V89    10.0   1_655     S
V90     V79    10.0   1_655     S
V91     V92    10.0   1_545     S
V91     V42    10.0   1_545     S
V92     V91    10.0   1_565     S
V92     V41    10.0   1_565     S
V93     V94    10.0   .     S
V95     V96    10.0   1_455     S
V95     V32    10.0   1_455     S
V96     V95    10.0   1_655     S
V96     V31    10.0   1_655     S
