data_sxp
_audit_creation_date              2020-02-02
_audit_creation_method            'Pymatgen'
_symmetry_space_group_name_H-M    'P1'
_symmetry_Int_Tables_number       1
loop_
_symmetry_equiv_pos_as_xyz
  x,y,z
_cell_length_a                    43.6508
_cell_length_b                    43.6508
_cell_length_c                    43.6508
_cell_angle_alpha                 90.0
_cell_angle_beta                 90.0
_cell_angle_gamma                 90.0
loop_
_atom_site_label
_atom_site_type_symbol
_atom_site_fract_x
_atom_site_fract_y
_atom_site_fract_z
V1     V     0.9474   0.3518   0.9612
V2     V     0.7888   0.3982   0.8026
V3     V     0.8026   0.7888   0.3982
V4     V     0.9612   0.9474   0.3518
V5     V     0.3518   0.9612   0.9474
V6     V     0.3982   0.8026   0.7888
V7     V     0.1482   0.4612   0.9474
V8     V     0.1018   0.3026   0.7888
V9     V     0.4612   0.5526   0.6482
V10     V     0.3026   0.7112   0.6018
V11     V     0.6482   0.4612   0.5526
V12     V     0.6018   0.3026   0.7112
V13     V     0.5526   0.6482   0.4612
V14     V     0.7112   0.6018   0.3026
V15     V     0.9474   0.1482   0.4612
V16     V     0.7888   0.1018   0.3026
V17     V     0.6974   0.7112   0.1018
V18     V     0.5388   0.5526   0.1482
V19     V     0.0526   0.6482   0.0388
V20     V     0.2112   0.6018   0.1974
V21     V     0.8518   0.5388   0.0526
V22     V     0.8982   0.6974   0.2112
V23     V     0.4612   0.9474   0.1482
V24     V     0.3026   0.7888   0.1018
V25     V     0.7112   0.1018   0.6974
V26     V     0.5526   0.1482   0.5388
V27     V     0.3518   0.0388   0.5526
V28     V     0.3982   0.1974   0.7112
V29     V     0.5388   0.0526   0.8518
V30     V     0.6974   0.2112   0.8982
V31     V     0.6482   0.0388   0.0526
V32     V     0.6018   0.1974   0.2112
V33     V     0.0388   0.0526   0.6482
V34     V     0.1974   0.2112   0.6018
V35     V     0.0526   0.8518   0.5388
V36     V     0.2112   0.8982   0.6974
V37     V     0.8518   0.0388   0.9474
V38     V     0.8982   0.1974   0.7888
V39     V     0.2112   0.1018   0.8026
V40     V     0.0526   0.1482   0.9612
V41     V     0.9474   0.8518   0.0388
V42     V     0.7888   0.8982   0.1974
V43     V     0.8026   0.2112   0.1018
V44     V     0.9612   0.0526   0.1482
V45     V     0.0388   0.9474   0.8518
V46     V     0.1974   0.7888   0.8982
V47     V     0.1018   0.8026   0.2112
V48     V     0.1482   0.9612   0.0526
V49     V     0.2888   0.3982   0.6974
V50     V     0.4474   0.3518   0.5388
V51     V     0.3982   0.6974   0.2888
V52     V     0.3518   0.5388   0.4474
V53     V     0.5526   0.3518   0.0388
V54     V     0.7112   0.3982   0.1974
V55     V     0.1974   0.2888   0.1018
V56     V     0.0388   0.4474   0.1482
V57     V     0.3518   0.4612   0.0526
V58     V     0.3982   0.3026   0.2112
V59     V     0.4612   0.4474   0.8518
V60     V     0.3026   0.2888   0.8982
V61     V     0.2888   0.1018   0.1974
V62     V     0.4474   0.1482   0.0388
V63     V     0.4612   0.0526   0.3518
V64     V     0.3026   0.2112   0.3982
V65     V     0.4474   0.8518   0.4612
V66     V     0.2888   0.8982   0.3026
V67     V     0.1482   0.5388   0.5526
V68     V     0.1018   0.6974   0.7112
V69     V     0.8982   0.8026   0.7112
V70     V     0.8518   0.9612   0.5526
V71     V     0.6018   0.8026   0.2888
V72     V     0.6482   0.9612   0.4474
V73     V     0.5388   0.9474   0.6482
V74     V     0.6974   0.7888   0.6018
V75     V     0.2888   0.6018   0.8026
V76     V     0.4474   0.6482   0.9612
V77     V     0.7112   0.8982   0.8026
V78     V     0.5526   0.8518   0.9612
V79     V     0.6482   0.5388   0.9474
V80     V     0.6018   0.6974   0.7888
V81     V     0.8026   0.7112   0.8982
V82     V     0.9612   0.5526   0.8518
V83     V     0.9474   0.6482   0.5388
V84     V     0.7888   0.6018   0.6974
V85     V     0.8026   0.2888   0.6018
V86     V     0.9612   0.4474   0.6482
V87     V     0.0388   0.5526   0.3518
V88     V     0.1974   0.7112   0.3982
V89     V     0.6974   0.2888   0.3982
V90     V     0.5388   0.4474   0.3518
V91     V     0.0526   0.3518   0.4612
V92     V     0.2112   0.3982   0.3026
V93     V     0.8518   0.4612   0.4474
V94     V     0.8982   0.3026   0.2888
V95     V     0.1018   0.1974   0.2888
V96     V     0.1482   0.0388   0.4474
loop_
_geom_bond_atom_site_label_1
_geom_bond_atom_site_label_2
_geom_bond_distance
_geom_bond_site_symmetry_2
_ccdc_geom_bond_type
V1     V2    10.0   .     S
V1     V56    10.0   1_656     S
V1     V7    10.0   1_655     S
V1     V82    10.0   .     S
V1     V21    10.0   1_556     S
V1     V40    10.0   1_655     S
V2     V30    10.0   .     S
V2     V38    10.0   .     S
V2     V85    10.0   .     S
V2     V12    10.0   .     S
V2     V84    10.0   .     S
V3     V4    10.0   .     S
V3     V22    10.0   .     S
V3     V42    10.0   .     S
V3     V71    10.0   .     S
V3     V14    10.0   .     S
V3     V74    10.0   .     S
V4     V96    10.0   1_665     S
V4     V15    10.0   1_565     S
V4     V70    10.0   .     S
V4     V35    10.0   1_655     S
V4     V44    10.0   1_565     S
V5     V6    10.0   .     S
V5     V62    10.0   1_566     S
V5     V23    10.0   1_556     S
V5     V78    10.0   .     S
V5     V29    10.0   1_565     S
V5     V48    10.0   1_556     S
V6     V36    10.0   .     S
V6     V46    10.0   .     S
V6     V75    10.0   .     S
V6     V10    10.0   .     S
V6     V80    10.0   .     S
V7     V8    10.0   .     S
V7     V56    10.0   1_556     S
V7     V1    10.0   1_455     S
V7     V19    10.0   1_556     S
V7     V82    10.0   1_455     S
V7     V57    10.0   1_556     S
V8     V34    10.0   .     S
V8     V39    10.0   .     S
V8     V60    10.0   .     S
V8     V49    10.0   .     S
V8     V38    10.0   1_455     S
V9     V10    10.0   .     S
V9     V52    10.0   .     S
V9     V13    10.0   .     S
V9     V50    10.0   .     S
V9     V11    10.0   .     S
V9     V59    10.0   .     S
V10     V68    10.0   .     S
V10     V75    10.0   .     S
V10     V36    10.0   .     S
V10     V88    10.0   .     S
V11     V12    10.0   .     S
V11     V50    10.0   .     S
V11     V90    10.0   .     S
V11     V13    10.0   .     S
V11     V93    10.0   .     S
V12     V25    10.0   .     S
V12     V85    10.0   .     S
V12     V30    10.0   .     S
V12     V28    10.0   .     S
V13     V14    10.0   .     S
V13     V90    10.0   .     S
V13     V52    10.0   .     S
V13     V65    10.0   .     S
V14     V71    10.0   .     S
V14     V17    10.0   .     S
V14     V22    10.0   .     S
V14     V54    10.0   .     S
V15     V16    10.0   .     S
V15     V96    10.0   1_655     S
V15     V4    10.0   1_545     S
V15     V33    10.0   1_655     S
V15     V70    10.0   1_545     S
V15     V91    10.0   1_655     S
V16     V43    10.0   .     S
V16     V94    10.0   .     S
V16     V89    10.0   .     S
V16     V32    10.0   .     S
V16     V42    10.0   1_545     S
V17     V18    10.0   .     S
V17     V22    10.0   .     S
V17     V71    10.0   .     S
V17     V42    10.0   .     S
V17     V81    10.0   1_554     S
V18     V53    10.0   .     S
V18     V79    10.0   1_554     S
V18     V76    10.0   1_554     S
V18     V57    10.0   .     S
V18     V90    10.0   .     S
V19     V20    10.0   .     S
V19     V21    10.0   1_455     S
V19     V56    10.0   .     S
V19     V82    10.0   1_454     S
V19     V7    10.0   1_554     S
V19     V41    10.0   1_455     S
V20     V47    10.0   .     S
V20     V88    10.0   .     S
V20     V51    10.0   .     S
V20     V24    10.0   .     S
V20     V92    10.0   .     S
V21     V19    10.0   1_655     S
V21     V56    10.0   1_655     S
V21     V22    10.0   .     S
V21     V82    10.0   1_554     S
V21     V1    10.0   1_554     S
V21     V79    10.0   1_554     S
V22     V42    10.0   .     S
V22     V47    10.0   1_655     S
V23     V24    10.0   .     S
V23     V5    10.0   1_554     S
V23     V62    10.0   1_565     S
V23     V31    10.0   1_565     S
V23     V78    10.0   1_554     S
V23     V63    10.0   1_565     S
V24     V47    10.0   .     S
V24     V66    10.0   .     S
V24     V51    10.0   .     S
V24     V46    10.0   1_554     S
V25     V26    10.0   .     S
V25     V30    10.0   .     S
V25     V85    10.0   .     S
V25     V38    10.0   .     S
V25     V77    10.0   1_545     S
V26     V27    10.0   .     S
V26     V73    10.0   1_545     S
V26     V63    10.0   .     S
V26     V72    10.0   1_545     S
V26     V50    10.0   .     S
V27     V73    10.0   1_545     S
V27     V28    10.0   .     S
V27     V65    10.0   1_545     S
V27     V63    10.0   .     S
V27     V96    10.0   .     S
V28     V49    10.0   .     S
V28     V34    10.0   .     S
V28     V39    10.0   .     S
V28     V60    10.0   .     S
V29     V30    10.0   .     S
V29     V78    10.0   1_545     S
V29     V31    10.0   1_556     S
V29     V62    10.0   1_556     S
V29     V5    10.0   1_545     S
V29     V73    10.0   1_545     S
V30     V38    10.0   .     S
V30     V43    10.0   1_556     S
V31     V32    10.0   .     S
V31     V29    10.0   1_554     S
V31     V62    10.0   .     S
V31     V78    10.0   1_544     S
V31     V23    10.0   1_545     S
V31     V37    10.0   1_554     S
V32     V54    10.0   .     S
V32     V43    10.0   .     S
V32     V89    10.0   .     S
V32     V58    10.0   .     S
V33     V34    10.0   .     S
V33     V35    10.0   1_545     S
V33     V70    10.0   1_445     S
V33     V96    10.0   .     S
V33     V15    10.0   1_455     S
V33     V45    10.0   1_545     S
V34     V39    10.0   .     S
V34     V49    10.0   .     S
V34     V64    10.0   .     S
V35     V33    10.0   1_565     S
V35     V96    10.0   1_565     S
V35     V36    10.0   .     S
V35     V70    10.0   1_455     S
V35     V4    10.0   1_455     S
V35     V83    10.0   1_455     S
V36     V46    10.0   .     S
V36     V68    10.0   .     S
V36     V39    10.0   1_565     S
V37     V41    10.0   1_546     S
V37     V44    10.0   1_556     S
V37     V38    10.0   .     S
V37     V40    10.0   1_655     S
V37     V45    10.0   1_645     S
V37     V31    10.0   1_556     S
V38     V85    10.0   .     S
V38     V8    10.0   1_655     S
V39     V40    10.0   .     S
V39     V60    10.0   .     S
V39     V36    10.0   1_545     S
V40     V37    10.0   1_455     S
V40     V44    10.0   1_456     S
V40     V45    10.0   1_545     S
V40     V48    10.0   1_546     S
V40     V1    10.0   1_455     S
V41     V37    10.0   1_564     S
V41     V45    10.0   1_654     S
V41     V48    10.0   1_655     S
V41     V42    10.0   .     S
V41     V44    10.0   1_565     S
V41     V19    10.0   1_655     S
V42     V71    10.0   .     S
V42     V16    10.0   1_565     S
V43     V54    10.0   .     S
V43     V94    10.0   .     S
V43     V44    10.0   .     S
V43     V30    10.0   1_554     S
V44     V37    10.0   1_554     S
V44     V40    10.0   1_654     S
V44     V41    10.0   1_545     S
V44     V48    10.0   1_645     S
V44     V4    10.0   1_545     S
V45     V41    10.0   1_456     S
V45     V37    10.0   1_465     S
V45     V40    10.0   1_565     S
V45     V46    10.0   .     S
V45     V48    10.0   1_556     S
V45     V33    10.0   1_565     S
V46     V75    10.0   .     S
V46     V68    10.0   .     S
V46     V24    10.0   1_556     S
V47     V88    10.0   .     S
V47     V48    10.0   .     S
V47     V66    10.0   .     S
V47     V22    10.0   1_455     S
V48     V41    10.0   1_455     S
V48     V44    10.0   1_465     S
V48     V45    10.0   1_554     S
V48     V40    10.0   1_564     S
V48     V5    10.0   1_554     S
V49     V50    10.0   .     S
V49     V60    10.0   .     S
V49     V75    10.0   .     S
V50     V90    10.0   .     S
V50     V52    10.0   .     S
V51     V52    10.0   .     S
V51     V88    10.0   .     S
V51     V66    10.0   .     S
V51     V71    10.0   .     S
V52     V90    10.0   .     S
V52     V67    10.0   .     S
V53     V79    10.0   1_554     S
V53     V54    10.0   .     S
V53     V59    10.0   1_554     S
V53     V57    10.0   .     S
V53     V62    10.0   .     S
V54     V89    10.0   .     S
V54     V94    10.0   .     S
V55     V56    10.0   .     S
V55     V58    10.0   .     S
V55     V92    10.0   .     S
V55     V95    10.0   .     S
V55     V61    10.0   .     S
V55     V60    10.0   1_554     S
V56     V1    10.0   1_454     S
V56     V7    10.0   1_554     S
V56     V21    10.0   1_455     S
V56     V87    10.0   .     S
V57     V58    10.0   .     S
V57     V59    10.0   1_554     S
V57     V76    10.0   1_554     S
V57     V7    10.0   1_554     S
V58     V92    10.0   .     S
V58     V61    10.0   .     S
V58     V64    10.0   .     S
V59     V60    10.0   .     S
V59     V57    10.0   1_556     S
V59     V53    10.0   1_556     S
V59     V76    10.0   .     S
V59     V79    10.0   .     S
V60     V55    10.0   1_556     S
V61     V62    10.0   .     S
V61     V64    10.0   .     S
V61     V95    10.0   .     S
V61     V66    10.0   1_545     S
V62     V5    10.0   1_544     S
V62     V23    10.0   1_545     S
V62     V29    10.0   1_554     S
V63     V64    10.0   .     S
V63     V65    10.0   1_545     S
V63     V72    10.0   1_545     S
V63     V23    10.0   1_545     S
V64     V95    10.0   .     S
V64     V92    10.0   .     S
V65     V66    10.0   .     S
V65     V63    10.0   1_565     S
V65     V27    10.0   1_565     S
V65     V72    10.0   .     S
V65     V73    10.0   .     S
V66     V88    10.0   .     S
V66     V61    10.0   1_565     S
V67     V68    10.0   .     S
V67     V86    10.0   1_455     S
V67     V87    10.0   .     S
V67     V91    10.0   .     S
V67     V83    10.0   1_455     S
V68     V75    10.0   .     S
V68     V69    10.0   1_455     S
V69     V70    10.0   .     S
V69     V74    10.0   .     S
V69     V84    10.0   .     S
V69     V81    10.0   .     S
V69     V77    10.0   .     S
V69     V68    10.0   1_655     S
V70     V33    10.0   1_665     S
V70     V35    10.0   1_655     S
V70     V15    10.0   1_565     S
V70     V72    10.0   .     S
V71     V72    10.0   .     S
V72     V26    10.0   1_565     S
V72     V73    10.0   .     S
V72     V63    10.0   1_565     S
V73     V27    10.0   1_565     S
V73     V26    10.0   1_565     S
V73     V74    10.0   .     S
V73     V29    10.0   1_565     S
V74     V77    10.0   .     S
V74     V80    10.0   .     S
V74     V84    10.0   .     S
V75     V76    10.0   .     S
V76     V18    10.0   1_556     S
V76     V79    10.0   .     S
V76     V57    10.0   1_556     S
V76     V78    10.0   .     S
V77     V78    10.0   .     S
V77     V80    10.0   .     S
V77     V81    10.0   .     S
V77     V25    10.0   1_565     S
V78     V29    10.0   1_565     S
V78     V31    10.0   1_566     S
V78     V23    10.0   1_556     S
V79     V53    10.0   1_556     S
V79     V18    10.0   1_556     S
V79     V80    10.0   .     S
V79     V21    10.0   1_556     S
V80     V81    10.0   .     S
V80     V84    10.0   .     S
V81     V82    10.0   .     S
V81     V84    10.0   .     S
V81     V17    10.0   1_556     S
V82     V19    10.0   1_656     S
V82     V21    10.0   1_556     S
V82     V7    10.0   1_655     S
V82     V86    10.0   .     S
V83     V84    10.0   .     S
V83     V86    10.0   .     S
V83     V87    10.0   1_655     S
V83     V67    10.0   1_655     S
V83     V93    10.0   .     S
V83     V35    10.0   1_655     S
V85     V86    10.0   .     S
V85     V89    10.0   .     S
V86     V67    10.0   1_655     S
V86     V93    10.0   .     S
V86     V91    10.0   1_655     S
V87     V88    10.0   .     S
V87     V83    10.0   1_455     S
V87     V93    10.0   1_455     S
V87     V91    10.0   .     S
V89     V90    10.0   .     S
V89     V94    10.0   .     S
V91     V92    10.0   .     S
V91     V93    10.0   1_455     S
V91     V86    10.0   1_455     S
V91     V15    10.0   1_455     S
V92     V95    10.0   .     S
V93     V94    10.0   .     S
V93     V87    10.0   1_655     S
V93     V91    10.0   1_655     S
V94     V95    10.0   1_655     S
V95     V96    10.0   .     S
V95     V94    10.0   1_455     S
V96     V4    10.0   1_445     S
V96     V15    10.0   1_455     S
V96     V35    10.0   1_545     S
