data_sxq
_audit_creation_date              2020-02-02
_audit_creation_method            'Pymatgen'
_symmetry_space_group_name_H-M    'P1'
_symmetry_Int_Tables_number       1
loop_
_symmetry_equiv_pos_as_xyz
  x,y,z
_cell_length_a                    46.5518
_cell_length_b                    46.5518
_cell_length_c                    46.5518
_cell_angle_alpha                 90.0
_cell_angle_beta                 90.0
_cell_angle_gamma                 90.0
loop_
_atom_site_label
_atom_site_type_symbol
_atom_site_fract_x
_atom_site_fract_y
_atom_site_fract_z
V1     V     0.896   0.7766   0.2826
V2     V     0.9734   0.854   0.4674
V3     V     0.4674   0.9734   0.854
V4     V     0.2826   0.896   0.7766
V5     V     0.2826   0.104   0.7234
V6     V     0.4674   0.0266   0.646
V7     V     0.7234   0.2826   0.104
V8     V     0.646   0.4674   0.0266
V9     V     0.104   0.7234   0.2826
V10     V     0.0266   0.646   0.4674
V11     V     0.854   0.4674   0.9734
V12     V     0.7766   0.2826   0.896
V13     V     0.7234   0.7826   0.896
V14     V     0.646   0.9674   0.9734
V15     V     0.7174   0.896   0.2766
V16     V     0.5326   0.9734   0.354
V17     V     0.7826   0.896   0.7234
V18     V     0.9674   0.9734   0.646
V19     V     0.896   0.2766   0.7174
V20     V     0.9734   0.354   0.5326
V21     V     0.896   0.7234   0.7826
V22     V     0.9734   0.646   0.9674
V23     V     0.7826   0.104   0.7766
V24     V     0.9674   0.0266   0.854
V25     V     0.7766   0.7826   0.104
V26     V     0.854   0.9674   0.0266
V27     V     0.104   0.7766   0.7826
V28     V     0.0266   0.854   0.9674
V29     V     0.2766   0.2174   0.104
V30     V     0.354   0.0326   0.0266
V31     V     0.4734   0.854   0.0326
V32     V     0.396   0.7766   0.2174
V33     V     0.604   0.2234   0.7826
V34     V     0.5266   0.146   0.9674
V35     V     0.0326   0.4734   0.854
V36     V     0.2174   0.396   0.7766
V37     V     0.7826   0.604   0.2234
V38     V     0.9674   0.5266   0.146
V39     V     0.7174   0.396   0.7234
V40     V     0.5326   0.4734   0.646
V41     V     0.7234   0.7174   0.396
V42     V     0.646   0.5326   0.4734
V43     V     0.396   0.7234   0.7174
V44     V     0.4734   0.646   0.5326
V45     V     0.2826   0.604   0.2766
V46     V     0.4674   0.5266   0.354
V47     V     0.2766   0.2826   0.604
V48     V     0.354   0.4674   0.5266
V49     V     0.604   0.2766   0.2826
V50     V     0.5266   0.354   0.4674
V51     V     0.854   0.0326   0.4734
V52     V     0.7766   0.2174   0.396
V53     V     0.2234   0.7826   0.604
V54     V     0.146   0.9674   0.5266
V55     V     0.7174   0.104   0.2234
V56     V     0.5326   0.0266   0.146
V57     V     0.2766   0.7174   0.896
V58     V     0.354   0.5326   0.9734
V59     V     0.7234   0.2174   0.604
V60     V     0.646   0.0326   0.5266
V61     V     0.2234   0.7174   0.104
V62     V     0.146   0.5326   0.0266
V63     V     0.2174   0.604   0.7234
V64     V     0.0326   0.5266   0.646
V65     V     0.0326   0.0266   0.354
V66     V     0.2174   0.104   0.2766
V67     V     0.604   0.7234   0.2174
V68     V     0.5266   0.646   0.0326
V69     V     0.104   0.2234   0.7174
V70     V     0.0266   0.146   0.5326
V71     V     0.2174   0.896   0.2234
V72     V     0.0326   0.9734   0.146
V73     V     0.2234   0.2174   0.896
V74     V     0.146   0.0326   0.9734
V75     V     0.896   0.2234   0.2174
V76     V     0.9734   0.146   0.0326
V77     V     0.0266   0.354   0.0326
V78     V     0.104   0.2766   0.2174
V79     V     0.7766   0.7174   0.604
V80     V     0.854   0.5326   0.5266
V81     V     0.7826   0.396   0.2766
V82     V     0.9674   0.4734   0.354
V83     V     0.2234   0.2826   0.396
V84     V     0.146   0.4674   0.4734
V85     V     0.2766   0.7826   0.396
V86     V     0.354   0.9674   0.4734
V87     V     0.7174   0.604   0.7766
V88     V     0.5326   0.5266   0.854
V89     V     0.604   0.7766   0.7174
V90     V     0.5266   0.854   0.5326
V91     V     0.396   0.2766   0.7826
V92     V     0.4734   0.354   0.9674
V93     V     0.2826   0.396   0.2234
V94     V     0.4674   0.4734   0.146
V95     V     0.396   0.2234   0.2826
V96     V     0.4734   0.146   0.4674
loop_
_geom_bond_atom_site_label_1
_geom_bond_atom_site_label_2
_geom_bond_distance
_geom_bond_site_symmetry_2
_ccdc_geom_bond_type
V1     V2    10.0   .     S
V1     V41    10.0   .     S
V1     V15    10.0   .     S
V1     V25    10.0   .     S
V1     V37    10.0   .     S
V1     V9    10.0   1_655     S
V2     V18    10.0   .     S
V2     V54    10.0   1_655     S
V2     V51    10.0   1_565     S
V2     V65    10.0   1_665     S
V2     V10    10.0   1_655     S
V3     V4    10.0   .     S
V3     V14    10.0   .     S
V3     V34    10.0   1_565     S
V3     V31    10.0   1_556     S
V3     V30    10.0   1_566     S
V3     V6    10.0   1_565     S
V4     V27    10.0   .     S
V4     V53    10.0   .     S
V4     V57    10.0   .     S
V4     V43    10.0   .     S
V4     V5    10.0   1_565     S
V5     V6    10.0   .     S
V5     V91    10.0   .     S
V5     V47    10.0   .     S
V5     V69    10.0   .     S
V5     V73    10.0   .     S
V5     V4    10.0   1_545     S
V6     V60    10.0   .     S
V6     V90    10.0   1_545     S
V6     V96    10.0   .     S
V6     V86    10.0   1_545     S
V6     V3    10.0   1_545     S
V7     V8    10.0   .     S
V7     V55    10.0   .     S
V7     V75    10.0   .     S
V7     V49    10.0   .     S
V7     V81    10.0   .     S
V7     V12    10.0   1_554     S
V8     V94    10.0   .     S
V8     V92    10.0   1_554     S
V8     V68    10.0   .     S
V8     V88    10.0   1_554     S
V8     V11    10.0   1_554     S
V9     V10    10.0   .     S
V9     V61    10.0   .     S
V9     V71    10.0   .     S
V9     V45    10.0   .     S
V9     V85    10.0   .     S
V9     V1    10.0   1_455     S
V10     V64    10.0   .     S
V10     V80    10.0   1_455     S
V10     V84    10.0   .     S
V10     V82    10.0   1_455     S
V10     V2    10.0   1_455     S
V11     V12    10.0   .     S
V11     V22    10.0   .     S
V11     V38    10.0   1_556     S
V11     V35    10.0   1_655     S
V11     V77    10.0   1_656     S
V11     V8    10.0   1_556     S
V12     V23    10.0   .     S
V12     V33    10.0   .     S
V12     V19    10.0   .     S
V12     V39    10.0   .     S
V12     V7    10.0   1_556     S
V13     V17    10.0   .     S
V13     V89    10.0   .     S
V13     V87    10.0   .     S
V13     V21    10.0   .     S
V13     V14    10.0   .     S
V13     V25    10.0   1_556     S
V14     V34    10.0   1_565     S
V14     V56    10.0   1_566     S
V14     V31    10.0   1_556     S
V14     V26    10.0   1_556     S
V15     V16    10.0   .     S
V15     V41    10.0   .     S
V15     V67    10.0   .     S
V15     V25    10.0   .     S
V15     V55    10.0   1_565     S
V16     V90    10.0   .     S
V16     V86    10.0   .     S
V16     V96    10.0   1_565     S
V16     V60    10.0   1_565     S
V16     V56    10.0   1_565     S
V17     V89    10.0   .     S
V17     V79    10.0   .     S
V17     V21    10.0   .     S
V17     V18    10.0   .     S
V17     V23    10.0   1_565     S
V18     V51    10.0   1_565     S
V18     V54    10.0   1_655     S
V18     V70    10.0   1_665     S
V18     V24    10.0   1_565     S
V19     V20    10.0   .     S
V19     V23    10.0   .     S
V19     V39    10.0   .     S
V19     V59    10.0   .     S
V19     V69    10.0   1_655     S
V20     V80    10.0   .     S
V20     V82    10.0   .     S
V20     V84    10.0   1_655     S
V20     V64    10.0   1_655     S
V20     V70    10.0   1_655     S
V21     V79    10.0   .     S
V21     V87    10.0   .     S
V21     V22    10.0   .     S
V21     V27    10.0   1_655     S
V22     V38    10.0   1_556     S
V22     V62    10.0   1_656     S
V22     V35    10.0   1_655     S
V22     V28    10.0   1_655     S
V23     V24    10.0   .     S
V23     V33    10.0   .     S
V23     V59    10.0   .     S
V23     V17    10.0   1_545     S
V24     V76    10.0   1_556     S
V24     V26    10.0   1_546     S
V24     V74    10.0   1_655     S
V24     V28    10.0   1_645     S
V24     V18    10.0   1_545     S
V25     V26    10.0   .     S
V25     V37    10.0   .     S
V25     V67    10.0   .     S
V25     V13    10.0   1_554     S
V26     V76    10.0   1_565     S
V26     V24    10.0   1_564     S
V26     V72    10.0   1_655     S
V26     V28    10.0   1_654     S
V26     V14    10.0   1_554     S
V27     V28    10.0   .     S
V27     V53    10.0   .     S
V27     V63    10.0   .     S
V27     V57    10.0   .     S
V27     V21    10.0   1_455     S
V28     V72    10.0   1_556     S
V28     V26    10.0   1_456     S
V28     V74    10.0   1_565     S
V28     V24    10.0   1_465     S
V28     V22    10.0   1_455     S
V29     V30    10.0   .     S
V29     V66    10.0   .     S
V29     V95    10.0   .     S
V29     V93    10.0   .     S
V29     V78    10.0   .     S
V29     V73    10.0   1_554     S
V30     V34    10.0   1_554     S
V30     V56    10.0   .     S
V30     V31    10.0   1_545     S
V30     V3    10.0   1_544     S
V30     V74    10.0   1_554     S
V31     V32    10.0   .     S
V31     V3    10.0   1_554     S
V31     V14    10.0   1_554     S
V31     V56    10.0   1_565     S
V31     V30    10.0   1_565     S
V31     V68    10.0   .     S
V32     V61    10.0   .     S
V32     V71    10.0   .     S
V32     V85    10.0   .     S
V32     V45    10.0   .     S
V32     V67    10.0   .     S
V33     V59    10.0   .     S
V33     V39    10.0   .     S
V33     V34    10.0   .     S
V33     V91    10.0   .     S
V34     V3    10.0   1_545     S
V34     V14    10.0   1_545     S
V34     V56    10.0   1_556     S
V34     V30    10.0   1_556     S
V34     V92    10.0   .     S
V35     V36    10.0   .     S
V35     V11    10.0   1_455     S
V35     V22    10.0   1_455     S
V35     V62    10.0   1_556     S
V35     V77    10.0   1_556     S
V35     V64    10.0   .     S
V36     V73    10.0   .     S
V36     V91    10.0   .     S
V36     V47    10.0   .     S
V36     V69    10.0   .     S
V36     V63    10.0   .     S
V37     V67    10.0   .     S
V37     V41    10.0   .     S
V37     V38    10.0   .     S
V37     V81    10.0   .     S
V38     V11    10.0   1_554     S
V38     V22    10.0   1_554     S
V38     V62    10.0   1_655     S
V38     V77    10.0   1_655     S
V38     V82    10.0   .     S
V39     V59    10.0   .     S
V39     V40    10.0   .     S
V39     V87    10.0   .     S
V40     V48    10.0   .     S
V40     V44    10.0   .     S
V40     V50    10.0   .     S
V40     V42    10.0   .     S
V40     V88    10.0   .     S
V41     V67    10.0   .     S
V41     V42    10.0   .     S
V41     V79    10.0   .     S
V42     V50    10.0   .     S
V42     V46    10.0   .     S
V42     V44    10.0   .     S
V42     V80    10.0   .     S
V43     V44    10.0   .     S
V43     V57    10.0   .     S
V43     V53    10.0   .     S
V43     V63    10.0   .     S
V43     V89    10.0   .     S
V44     V48    10.0   .     S
V44     V46    10.0   .     S
V44     V90    10.0   .     S
V45     V46    10.0   .     S
V45     V61    10.0   .     S
V45     V85    10.0   .     S
V45     V93    10.0   .     S
V46     V48    10.0   .     S
V46     V50    10.0   .     S
V46     V94    10.0   .     S
V47     V48    10.0   .     S
V47     V91    10.0   .     S
V47     V69    10.0   .     S
V47     V83    10.0   .     S
V48     V50    10.0   .     S
V48     V84    10.0   .     S
V49     V50    10.0   .     S
V49     V55    10.0   .     S
V49     V81    10.0   .     S
V49     V52    10.0   .     S
V49     V95    10.0   .     S
V50     V96    10.0   .     S
V51     V52    10.0   .     S
V51     V2    10.0   1_545     S
V51     V18    10.0   1_545     S
V51     V65    10.0   1_655     S
V51     V70    10.0   1_655     S
V51     V60    10.0   .     S
V52     V55    10.0   .     S
V52     V75    10.0   .     S
V52     V81    10.0   .     S
V52     V59    10.0   .     S
V53     V63    10.0   .     S
V53     V54    10.0   .     S
V53     V85    10.0   .     S
V54     V2    10.0   1_455     S
V54     V70    10.0   1_565     S
V54     V65    10.0   1_565     S
V54     V18    10.0   1_455     S
V54     V86    10.0   .     S
V55     V56    10.0   .     S
V55     V75    10.0   .     S
V55     V15    10.0   1_545     S
V56     V14    10.0   1_544     S
V56     V34    10.0   1_554     S
V56     V31    10.0   1_545     S
V56     V16    10.0   1_545     S
V57     V63    10.0   .     S
V57     V58    10.0   .     S
V57     V61    10.0   1_556     S
V58     V92    10.0   .     S
V58     V94    10.0   1_556     S
V58     V88    10.0   .     S
V58     V68    10.0   1_556     S
V58     V62    10.0   1_556     S
V59     V60    10.0   .     S
V60     V90    10.0   1_545     S
V60     V16    10.0   1_545     S
V60     V96    10.0   .     S
V61     V62    10.0   .     S
V61     V71    10.0   .     S
V61     V57    10.0   1_554     S
V62     V22    10.0   1_454     S
V62     V38    10.0   1_455     S
V62     V77    10.0   .     S
V62     V35    10.0   1_554     S
V62     V58    10.0   1_554     S
V63     V64    10.0   .     S
V64     V80    10.0   1_455     S
V64     V20    10.0   1_455     S
V64     V84    10.0   .     S
V65     V51    10.0   1_455     S
V65     V2    10.0   1_445     S
V65     V70    10.0   .     S
V65     V54    10.0   1_545     S
V65     V66    10.0   .     S
V65     V72    10.0   1_545     S
V66     V78    10.0   .     S
V66     V83    10.0   .     S
V66     V95    10.0   .     S
V66     V71    10.0   1_545     S
V67     V68    10.0   .     S
V68     V94    10.0   .     S
V68     V88    10.0   1_554     S
V68     V58    10.0   1_554     S
V69     V70    10.0   .     S
V69     V73    10.0   .     S
V69     V19    10.0   1_455     S
V70     V51    10.0   1_455     S
V70     V54    10.0   1_545     S
V70     V18    10.0   1_445     S
V70     V20    10.0   1_455     S
V71     V72    10.0   .     S
V71     V85    10.0   .     S
V71     V66    10.0   1_565     S
V72     V26    10.0   1_455     S
V72     V76    10.0   1_465     S
V72     V28    10.0   1_554     S
V72     V74    10.0   1_564     S
V72     V65    10.0   1_565     S
V73     V74    10.0   .     S
V73     V91    10.0   .     S
V73     V29    10.0   1_556     S
V74     V76    10.0   1_456     S
V74     V28    10.0   1_545     S
V74     V72    10.0   1_546     S
V74     V24    10.0   1_455     S
V74     V30    10.0   1_556     S
V75     V76    10.0   .     S
V75     V81    10.0   .     S
V75     V78    10.0   1_655     S
V76     V24    10.0   1_554     S
V76     V74    10.0   1_654     S
V76     V26    10.0   1_545     S
V76     V72    10.0   1_645     S
V76     V77    10.0   1_655     S
V77     V38    10.0   1_455     S
V77     V35    10.0   1_554     S
V77     V11    10.0   1_454     S
V77     V78    10.0   .     S
V77     V76    10.0   1_455     S
V78     V83    10.0   .     S
V78     V93    10.0   .     S
V78     V75    10.0   1_455     S
V79     V89    10.0   .     S
V79     V87    10.0   .     S
V79     V80    10.0   .     S
V80     V82    10.0   .     S
V80     V10    10.0   1_655     S
V80     V64    10.0   1_655     S
V81     V82    10.0   .     S
V82     V84    10.0   1_655     S
V82     V10    10.0   1_655     S
V83     V84    10.0   .     S
V83     V95    10.0   .     S
V83     V93    10.0   .     S
V84     V20    10.0   1_455     S
V84     V82    10.0   1_455     S
V85     V86    10.0   .     S
V86     V90    10.0   .     S
V86     V96    10.0   1_565     S
V86     V6    10.0   1_565     S
V87     V89    10.0   .     S
V87     V88    10.0   .     S
V88     V92    10.0   .     S
V88     V8    10.0   1_556     S
V88     V68    10.0   1_556     S
V89     V90    10.0   .     S
V90     V6    10.0   1_565     S
V90     V60    10.0   1_565     S
V91     V92    10.0   .     S
V92     V94    10.0   1_556     S
V92     V8    10.0   1_556     S
V93     V94    10.0   .     S
V93     V95    10.0   .     S
V94     V58    10.0   1_554     S
V94     V92    10.0   1_554     S
V95     V96    10.0   .     S
V96     V16    10.0   1_545     S
V96     V86    10.0   1_545     S
