data_sxt
_audit_creation_date              2020-02-02
_audit_creation_method            'Pymatgen'
_symmetry_space_group_name_H-M    'P1'
_symmetry_Int_Tables_number       1
loop_
_symmetry_equiv_pos_as_xyz
  x,y,z
_cell_length_a                    17.0192
_cell_length_b                    17.0192
_cell_length_c                    17.0192
_cell_angle_alpha                 90.0
_cell_angle_beta                 90.0
_cell_angle_gamma                 90.0
loop_
_atom_site_label
_atom_site_type_symbol
_atom_site_fract_x
_atom_site_fract_y
_atom_site_fract_z
V1     V     0.7923   0.25   0.2923
V2     V     0.75   0.2923   0.2077
V3     V     0.7077   0.2077   0.25
V4     V     0.75   0.7923   0.2923
V5     V     0.7077   0.75   0.2077
V6     V     0.7923   0.7077   0.25
V7     V     0.2923   0.7923   0.25
V8     V     0.2077   0.75   0.2923
V9     V     0.25   0.7077   0.2077
V10     V     0.7923   0.2923   0.75
V11     V     0.75   0.2077   0.7077
V12     V     0.7077   0.25   0.7923
V13     V     0.7077   0.7923   0.75
V14     V     0.7923   0.75   0.7077
V15     V     0.75   0.7077   0.7923
V16     V     0.2077   0.7077   0.75
V17     V     0.2923   0.75   0.7923
V18     V     0.25   0.7923   0.7077
V19     V     0.2923   0.2077   0.75
V20     V     0.25   0.2923   0.7923
V21     V     0.2077   0.25   0.7077
V22     V     0.2077   0.2923   0.25
V23     V     0.25   0.2077   0.2923
V24     V     0.2923   0.25   0.2077
loop_
_geom_bond_atom_site_label_1
_geom_bond_atom_site_label_2
_geom_bond_distance
_geom_bond_site_symmetry_2
_ccdc_geom_bond_type
V1     V11    10.0   1_554     S
V1     V22    10.0   .     S
V1     V21    10.0   1_655     S
V2     V6    10.0   1_545     S
V2     V12    10.0   .     S
V2     V15    10.0   1_554     S
V3     V4    10.0   .     S
V3     V24    10.0   1_655     S
V3     V7    10.0   1_545     S
V4     V14    10.0   1_554     S
V4     V11    10.0   1_565     S
V5     V7    10.0   1_655     S
V5     V15    10.0   .     S
V5     V17    10.0   1_554     S
V6     V8    10.0   .     S
V6     V2    10.0   1_565     S
V6     V22    10.0   1_655     S
V7     V23    10.0   .     S
V7     V5    10.0   1_455     S
V7     V3    10.0   1_565     S
V8     V18    10.0   1_554     S
V8     V14    10.0   1_455     S
V9     V22    10.0   1_565     S
V9     V17    10.0   .     S
V9     V20    10.0   1_554     S
V10     V15    10.0   1_545     S
V10     V21    10.0   .     S
V10     V16    10.0   1_655     S
V11     V1    10.0   1_556     S
V11     V13    10.0   .     S
V11     V4    10.0   1_545     S
V12     V19    10.0   1_655     S
V12     V24    10.0   1_556     S
V13     V17    10.0   1_655     S
V13     V19    10.0   1_565     S
V14     V4    10.0   1_556     S
V14     V16    10.0   .     S
V14     V8    10.0   1_655     S
V15     V10    10.0   1_565     S
V15     V2    10.0   1_556     S
V16     V20    10.0   1_565     S
V16     V10    10.0   1_455     S
V17     V13    10.0   1_455     S
V17     V5    10.0   1_556     S
V18     V19    10.0   .     S
V18     V8    10.0   1_556     S
V18     V23    10.0   1_565     S
V19     V12    10.0   1_455     S
V19     V13    10.0   1_545     S
V20     V24    10.0   .     S
V20     V16    10.0   1_545     S
V20     V9    10.0   1_556     S
V21     V23    10.0   1_556     S
V21     V1    10.0   1_455     S
V22     V9    10.0   1_545     S
V22     V6    10.0   1_455     S
V23     V21    10.0   1_554     S
V23     V18    10.0   1_545     S
V24     V3    10.0   1_455     S
V24     V12    10.0   1_554     S
