data_tboa
_audit_creation_date              2020-02-02
_audit_creation_method            'Pymatgen'
_symmetry_space_group_name_H-M    'P1'
_symmetry_Int_Tables_number       1
loop_
_symmetry_equiv_pos_as_xyz
  x,y,z
_cell_length_a                    111.4159
_cell_length_b                    111.4159
_cell_length_c                    111.4159
_cell_angle_alpha                 90.0
_cell_angle_beta                 90.0
_cell_angle_gamma                 90.0
loop_
_atom_site_label
_atom_site_type_symbol
_atom_site_fract_x
_atom_site_fract_y
_atom_site_fract_z
V1     V     0.8186   0.8186   0.882
Er2     Er     0.7817   0.7817   0.9551
Er3     Er     0.7183   0.7183   0.9551
V4     V     0.6814   0.6814   0.882
V5     V     0.8186   0.8186   0.118
Er6     Er     0.7817   0.7817   0.0449
Er7     Er     0.7183   0.7183   0.0449
V8     V     0.6814   0.6814   0.118
V9     V     0.8186   0.882   0.8186
Er10     Er     0.7817   0.9551   0.7817
Er11     Er     0.7183   0.9551   0.7183
V12     V     0.6814   0.882   0.6814
V13     V     0.8186   0.118   0.8186
Er14     Er     0.7817   0.0449   0.7817
Er15     Er     0.7183   0.0449   0.7183
V16     V     0.6814   0.118   0.6814
V17     V     0.882   0.8186   0.8186
Er18     Er     0.9551   0.7817   0.7817
Er19     Er     0.9551   0.7183   0.7183
V20     V     0.882   0.6814   0.6814
V21     V     0.118   0.8186   0.8186
Er22     Er     0.0449   0.7817   0.7817
Er23     Er     0.0449   0.7183   0.7183
V24     V     0.118   0.6814   0.6814
Er25     Er     0.2817   0.2817   0.9551
Er26     Er     0.2183   0.2183   0.9551
V27     V     0.1814   0.1814   0.882
V28     V     0.3186   0.3186   0.882
V29     V     0.1814   0.1814   0.118
Er30     Er     0.2817   0.2817   0.0449
Er31     Er     0.2183   0.2183   0.0449
V32     V     0.3186   0.3186   0.118
V33     V     0.618   0.3186   0.1814
Er34     Er     0.5449   0.2183   0.2817
Er35     Er     0.5449   0.2817   0.2183
V36     V     0.618   0.1814   0.3186
V37     V     0.382   0.3186   0.1814
Er38     Er     0.4551   0.2183   0.2817
Er39     Er     0.4551   0.2817   0.2183
V40     V     0.382   0.1814   0.3186
V41     V     0.618   0.3186   0.8186
Er42     Er     0.5449   0.2817   0.7817
Er43     Er     0.5449   0.2183   0.7183
V44     V     0.618   0.1814   0.6814
V45     V     0.382   0.3186   0.8186
Er46     Er     0.4551   0.2817   0.7817
Er47     Er     0.4551   0.2183   0.7183
V48     V     0.382   0.1814   0.6814
V49     V     0.1814   0.882   0.8186
Er50     Er     0.2817   0.9551   0.7183
Er51     Er     0.2183   0.9551   0.7817
V52     V     0.3186   0.882   0.6814
V53     V     0.1814   0.118   0.8186
Er54     Er     0.2817   0.0449   0.7183
Er55     Er     0.2183   0.0449   0.7817
V56     V     0.3186   0.118   0.6814
V57     V     0.618   0.6814   0.8186
Er58     Er     0.5449   0.7817   0.7183
Er59     Er     0.5449   0.7183   0.7817
V60     V     0.618   0.8186   0.6814
V61     V     0.382   0.8186   0.6814
Er62     Er     0.4551   0.7183   0.7817
Er63     Er     0.4551   0.7817   0.7183
V64     V     0.382   0.6814   0.8186
V65     V     0.1814   0.8186   0.882
Er66     Er     0.2817   0.7183   0.9551
Er67     Er     0.2183   0.7817   0.9551
V68     V     0.3186   0.6814   0.882
V69     V     0.1814   0.8186   0.118
Er70     Er     0.2817   0.7183   0.0449
Er71     Er     0.2183   0.7817   0.0449
V72     V     0.3186   0.6814   0.118
V73     V     0.618   0.8186   0.3186
Er74     Er     0.5449   0.7817   0.2817
Er75     Er     0.5449   0.7183   0.2183
V76     V     0.618   0.6814   0.1814
V77     V     0.382   0.8186   0.3186
Er78     Er     0.4551   0.7817   0.2817
Er79     Er     0.4551   0.7183   0.2183
V80     V     0.382   0.6814   0.1814
V81     V     0.1814   0.882   0.1814
Er82     Er     0.2817   0.9551   0.2817
Er83     Er     0.2183   0.9551   0.2183
V84     V     0.3186   0.882   0.3186
Er85     Er     0.2817   0.0449   0.2817
Er86     Er     0.2183   0.0449   0.2183
V87     V     0.1814   0.118   0.1814
V88     V     0.3186   0.118   0.3186
V89     V     0.3186   0.8186   0.618
Er90     Er     0.2817   0.7817   0.5449
Er91     Er     0.2183   0.7183   0.5449
V92     V     0.1814   0.6814   0.618
V93     V     0.3186   0.8186   0.382
Er94     Er     0.2817   0.7817   0.4551
Er95     Er     0.2183   0.7183   0.4551
V96     V     0.1814   0.6814   0.382
V97     V     0.882   0.8186   0.1814
Er98     Er     0.9551   0.7183   0.2817
Er99     Er     0.9551   0.7817   0.2183
V100     V     0.882   0.6814   0.3186
V101     V     0.118   0.8186   0.1814
Er102     Er     0.0449   0.7183   0.2817
Er103     Er     0.0449   0.7817   0.2183
V104     V     0.118   0.6814   0.3186
V105     V     0.6814   0.8186   0.618
Er106     Er     0.7817   0.7183   0.5449
Er107     Er     0.7183   0.7817   0.5449
V108     V     0.8186   0.6814   0.618
V109     V     0.8186   0.6814   0.382
Er110     Er     0.7183   0.7817   0.4551
Er111     Er     0.7817   0.7183   0.4551
V112     V     0.6814   0.8186   0.382
V113     V     0.8186   0.882   0.1814
Er114     Er     0.7183   0.9551   0.2817
Er115     Er     0.7817   0.9551   0.2183
V116     V     0.6814   0.882   0.3186
V117     V     0.8186   0.118   0.1814
Er118     Er     0.7183   0.0449   0.2817
Er119     Er     0.7817   0.0449   0.2183
V120     V     0.6814   0.118   0.3186
V121     V     0.8186   0.3186   0.618
Er122     Er     0.7817   0.2817   0.5449
Er123     Er     0.7183   0.2183   0.5449
V124     V     0.6814   0.1814   0.618
V125     V     0.8186   0.3186   0.382
Er126     Er     0.7817   0.2817   0.4551
Er127     Er     0.7183   0.2183   0.4551
V128     V     0.6814   0.1814   0.382
V129     V     0.3186   0.618   0.8186
Er130     Er     0.2817   0.5449   0.7817
Er131     Er     0.2183   0.5449   0.7183
V132     V     0.1814   0.618   0.6814
V133     V     0.3186   0.382   0.8186
Er134     Er     0.2817   0.4551   0.7817
Er135     Er     0.2183   0.4551   0.7183
V136     V     0.1814   0.382   0.6814
V137     V     0.882   0.1814   0.8186
Er138     Er     0.9551   0.2817   0.7183
Er139     Er     0.9551   0.2183   0.7817
V140     V     0.882   0.3186   0.6814
V141     V     0.118   0.1814   0.8186
Er142     Er     0.0449   0.2817   0.7183
Er143     Er     0.0449   0.2183   0.7817
V144     V     0.118   0.3186   0.6814
V145     V     0.6814   0.618   0.8186
Er146     Er     0.7817   0.5449   0.7183
Er147     Er     0.7183   0.5449   0.7817
V148     V     0.8186   0.618   0.6814
V149     V     0.8186   0.382   0.6814
Er150     Er     0.7183   0.4551   0.7817
Er151     Er     0.7817   0.4551   0.7183
V152     V     0.6814   0.382   0.8186
V153     V     0.8186   0.1814   0.882
Er154     Er     0.7183   0.2817   0.9551
Er155     Er     0.7817   0.2183   0.9551
V156     V     0.6814   0.3186   0.882
V157     V     0.8186   0.1814   0.118
Er158     Er     0.7183   0.2817   0.0449
Er159     Er     0.7817   0.2183   0.0449
V160     V     0.6814   0.3186   0.118
V161     V     0.8186   0.618   0.3186
Er162     Er     0.7817   0.5449   0.2817
Er163     Er     0.7183   0.5449   0.2183
V164     V     0.6814   0.618   0.1814
V165     V     0.8186   0.382   0.3186
Er166     Er     0.7817   0.4551   0.2817
Er167     Er     0.7183   0.4551   0.2183
V168     V     0.6814   0.382   0.1814
V169     V     0.3186   0.1814   0.618
Er170     Er     0.2183   0.2817   0.5449
Er171     Er     0.2817   0.2183   0.5449
V172     V     0.1814   0.3186   0.618
V173     V     0.3186   0.1814   0.382
Er174     Er     0.2183   0.2817   0.4551
Er175     Er     0.2817   0.2183   0.4551
V176     V     0.1814   0.3186   0.382
V177     V     0.3186   0.618   0.1814
Er178     Er     0.2183   0.5449   0.2817
Er179     Er     0.2817   0.5449   0.2183
V180     V     0.1814   0.618   0.3186
V181     V     0.3186   0.382   0.1814
Er182     Er     0.2183   0.4551   0.2817
Er183     Er     0.2817   0.4551   0.2183
V184     V     0.1814   0.382   0.3186
Er185     Er     0.9551   0.2817   0.2817
Er186     Er     0.9551   0.2183   0.2183
V187     V     0.882   0.1814   0.1814
V188     V     0.882   0.3186   0.3186
Er189     Er     0.0449   0.2817   0.2817
Er190     Er     0.0449   0.2183   0.2183
V191     V     0.118   0.1814   0.1814
V192     V     0.118   0.3186   0.3186
loop_
_geom_bond_atom_site_label_1
_geom_bond_atom_site_label_2
_geom_bond_distance
_geom_bond_site_symmetry_2
_ccdc_geom_bond_type
V1     V17    10.001   .     S
V1     V9    10.001   .     S
V1     Er2    10.0   .     S
Er2     Er3    9.999   .     S
Er2     Er6    10.001   1_556     S
Er3     V4    10.0   .     S
Er3     Er7    10.001   1_556     S
V4     V57    10.001   .     S
V4     V145    10.001   .     S
V5     Er6    10.0   .     S
V5     V113    10.001   .     S
V5     V97    10.001   .     S
Er6     Er7    9.999   .     S
Er6     Er2    10.001   1_554     S
Er7     V8    10.0   .     S
Er7     Er3    10.001   1_554     S
V8     V164    10.001   .     S
V8     V76    10.001   .     S
V9     V17    10.001   .     S
V9     Er10    10.0   .     S
Er10     Er11    9.999   .     S
Er10     Er14    10.001   1_565     S
Er11     V12    10.0   .     S
Er11     Er15    10.001   1_565     S
V12     V60    10.001   .     S
V12     V105    10.001   .     S
V13     Er14    10.0   .     S
V13     V137    10.001   .     S
V13     V153    10.001   .     S
Er14     Er15    9.999   .     S
Er14     Er10    10.001   1_545     S
Er15     V16    10.0   .     S
Er15     Er11    10.001   1_545     S
V16     V44    10.001   .     S
V16     V124    10.001   .     S
V17     Er18    10.0   .     S
Er18     Er19    9.999   .     S
Er18     Er22    10.001   1_655     S
Er19     V20    10.0   .     S
Er19     Er23    10.001   1_655     S
V20     V148    10.001   .     S
V20     V108    10.001   .     S
V21     Er22    10.0   .     S
V21     V49    10.001   .     S
V21     V65    10.001   .     S
Er22     Er23    9.999   .     S
Er22     Er18    10.001   1_455     S
Er23     V24    10.0   .     S
Er23     Er19    10.001   1_455     S
V24     V132    10.001   .     S
V24     V92    10.001   .     S
Er25     Er26    9.999   .     S
Er25     V28    10.0   .     S
Er25     Er30    10.001   1_556     S
Er26     V27    10.0   .     S
Er26     Er31    10.001   1_556     S
V27     V141    10.001   .     S
V27     V53    10.001   .     S
V28     V45    10.001   .     S
V28     V133    10.001   .     S
V29     V87    10.001   .     S
V29     V191    10.001   .     S
V29     Er31    10.0   .     S
Er30     Er31    9.999   .     S
Er30     V32    10.0   .     S
Er30     Er25    10.001   1_554     S
Er31     Er26    10.001   1_554     S
V32     V181    10.001   .     S
V32     V37    10.001   .     S
V33     Er35    10.0   .     S
V33     V160    10.001   .     S
V33     V168    10.001   .     S
Er34     Er35    9.999   .     S
Er34     V36    10.0   .     S
Er34     Er38    10.001   .     S
Er35     Er39    10.001   .     S
V36     V120    10.001   .     S
V36     V128    10.001   .     S
V37     V181    10.001   .     S
V37     Er39    10.0   .     S
Er38     Er39    9.999   .     S
Er38     V40    10.0   .     S
V40     V88    10.001   .     S
V40     V173    10.001   .     S
V41     Er42    10.0   .     S
V41     V156    10.001   .     S
V41     V152    10.001   .     S
Er42     Er43    9.999   .     S
Er42     Er46    10.001   .     S
Er43     V44    10.0   .     S
Er43     Er47    10.001   .     S
V44     V124    10.001   .     S
V45     V133    10.001   .     S
V45     Er46    10.0   .     S
Er46     Er47    9.999   .     S
Er47     V48    10.0   .     S
V48     V56    10.001   .     S
V48     V169    10.001   .     S
V49     V65    10.001   .     S
V49     Er51    10.0   .     S
Er50     Er51    9.999   .     S
Er50     V52    10.0   .     S
Er50     Er54    10.001   1_565     S
Er51     Er55    10.001   1_565     S
V52     V61    10.001   .     S
V52     V89    10.001   .     S
V53     V141    10.001   .     S
V53     Er55    10.0   .     S
Er54     Er55    9.999   .     S
Er54     V56    10.0   .     S
Er54     Er50    10.001   1_545     S
Er55     Er51    10.001   1_545     S
V56     V169    10.001   .     S
V57     V145    10.001   .     S
V57     Er59    10.0   .     S
Er58     Er59    9.999   .     S
Er58     V60    10.0   .     S
Er58     Er63    10.001   .     S
Er59     Er62    10.001   .     S
V60     V105    10.001   .     S
V61     V89    10.001   .     S
V61     Er63    10.0   .     S
Er62     Er63    9.999   .     S
Er62     V64    10.0   .     S
V64     V68    10.001   .     S
V64     V129    10.001   .     S
V65     Er67    10.0   .     S
Er66     Er67    9.999   .     S
Er66     V68    10.0   .     S
Er66     Er70    10.001   1_556     S
Er67     Er71    10.001   1_556     S
V68     V129    10.001   .     S
V69     V81    10.001   .     S
V69     V101    10.001   .     S
V69     Er71    10.0   .     S
Er70     Er71    9.999   .     S
Er70     V72    10.0   .     S
Er70     Er66    10.001   1_554     S
Er71     Er67    10.001   1_554     S
V72     V80    10.001   .     S
V72     V177    10.001   .     S
V73     Er74    10.0   .     S
V73     V116    10.001   .     S
V73     V112    10.001   .     S
Er74     Er75    9.999   .     S
Er74     Er78    10.001   .     S
Er75     V76    10.0   .     S
Er75     Er79    10.001   .     S
V76     V164    10.001   .     S
V77     Er78    10.0   .     S
V77     V84    10.001   .     S
V77     V93    10.001   .     S
Er78     Er79    9.999   .     S
Er79     V80    10.0   .     S
V80     V177    10.001   .     S
V81     V101    10.001   .     S
V81     Er83    10.0   .     S
Er82     Er83    9.999   .     S
Er82     V84    10.0   .     S
Er82     Er85    10.001   1_565     S
Er83     Er86    10.001   1_565     S
V84     V93    10.001   .     S
Er85     Er86    9.999   .     S
Er85     V88    10.0   .     S
Er85     Er82    10.001   1_545     S
Er86     V87    10.0   .     S
Er86     Er83    10.001   1_545     S
V87     V191    10.001   .     S
V88     V173    10.001   .     S
V89     Er90    10.0   .     S
Er90     Er91    9.999   .     S
Er90     Er94    10.001   .     S
Er91     V92    10.0   .     S
Er91     Er95    10.001   .     S
V92     V132    10.001   .     S
V93     Er94    10.0   .     S
Er94     Er95    9.999   .     S
Er95     V96    10.0   .     S
V96     V104    10.001   .     S
V96     V180    10.001   .     S
V97     V113    10.001   .     S
V97     Er99    10.0   .     S
Er98     Er99    9.999   .     S
Er98     V100    10.0   .     S
Er98     Er102    10.001   1_655     S
Er99     Er103    10.001   1_655     S
V100     V161    10.001   .     S
V100     V109    10.001   .     S
V101     Er103    10.0   .     S
Er102     Er103    9.999   .     S
Er102     V104    10.0   .     S
Er102     Er98    10.001   1_455     S
Er103     Er99    10.001   1_455     S
V104     V180    10.001   .     S
V105     Er107    10.0   .     S
Er106     Er107    9.999   .     S
Er106     V108    10.0   .     S
Er106     Er111    10.001   .     S
Er107     Er110    10.001   .     S
V108     V148    10.001   .     S
V109     V161    10.001   .     S
V109     Er111    10.0   .     S
Er110     Er111    9.999   .     S
Er110     V112    10.0   .     S
V112     V116    10.001   .     S
V113     Er115    10.0   .     S
Er114     Er115    9.999   .     S
Er114     V116    10.0   .     S
Er114     Er118    10.001   1_565     S
Er115     Er119    10.001   1_565     S
V117     V187    10.001   .     S
V117     V157    10.001   .     S
V117     Er119    10.0   .     S
Er118     Er119    9.999   .     S
Er118     V120    10.0   .     S
Er118     Er114    10.001   1_545     S
Er119     Er115    10.001   1_545     S
V120     V128    10.001   .     S
V121     Er122    10.0   .     S
V121     V140    10.001   .     S
V121     V149    10.001   .     S
Er122     Er123    9.999   .     S
Er122     Er126    10.001   .     S
Er123     V124    10.0   .     S
Er123     Er127    10.001   .     S
V125     Er126    10.0   .     S
V125     V188    10.001   .     S
V125     V165    10.001   .     S
Er126     Er127    9.999   .     S
Er127     V128    10.0   .     S
V129     Er130    10.0   .     S
Er130     Er131    9.999   .     S
Er130     Er134    10.001   .     S
Er131     V132    10.0   .     S
Er131     Er135    10.001   .     S
V133     Er134    10.0   .     S
Er134     Er135    9.999   .     S
Er135     V136    10.0   .     S
V136     V144    10.001   .     S
V136     V172    10.001   .     S
V137     V153    10.001   .     S
V137     Er139    10.0   .     S
Er138     Er139    9.999   .     S
Er138     V140    10.0   .     S
Er138     Er142    10.001   1_655     S
Er139     Er143    10.001   1_655     S
V140     V149    10.001   .     S
V141     Er143    10.0   .     S
Er142     Er143    9.999   .     S
Er142     V144    10.0   .     S
Er142     Er138    10.001   1_455     S
Er143     Er139    10.001   1_455     S
V144     V172    10.001   .     S
V145     Er147    10.0   .     S
Er146     Er147    9.999   .     S
Er146     V148    10.0   .     S
Er146     Er151    10.001   .     S
Er147     Er150    10.001   .     S
V149     Er151    10.0   .     S
Er150     Er151    9.999   .     S
Er150     V152    10.0   .     S
V152     V156    10.001   .     S
V153     Er155    10.0   .     S
Er154     Er155    9.999   .     S
Er154     V156    10.0   .     S
Er154     Er158    10.001   1_556     S
Er155     Er159    10.001   1_556     S
V157     V187    10.001   .     S
V157     Er159    10.0   .     S
Er158     Er159    9.999   .     S
Er158     V160    10.0   .     S
Er158     Er154    10.001   1_554     S
Er159     Er155    10.001   1_554     S
V160     V168    10.001   .     S
V161     Er162    10.0   .     S
Er162     Er163    9.999   .     S
Er162     Er166    10.001   .     S
Er163     V164    10.0   .     S
Er163     Er167    10.001   .     S
V165     Er166    10.0   .     S
V165     V188    10.001   .     S
Er166     Er167    9.999   .     S
Er167     V168    10.0   .     S
V169     Er171    10.0   .     S
Er170     Er171    9.999   .     S
Er170     V172    10.0   .     S
Er170     Er174    10.001   .     S
Er171     Er175    10.001   .     S
V173     Er175    10.0   .     S
Er174     Er175    9.999   .     S
Er174     V176    10.0   .     S
V176     V192    10.001   .     S
V176     V184    10.001   .     S
V177     Er179    10.0   .     S
Er178     Er179    9.999   .     S
Er178     V180    10.0   .     S
Er178     Er182    10.001   .     S
Er179     Er183    10.001   .     S
V181     Er183    10.0   .     S
Er182     Er183    9.999   .     S
Er182     V184    10.0   .     S
V184     V192    10.001   .     S
Er185     Er186    9.999   .     S
Er185     V188    10.0   .     S
Er185     Er189    10.001   1_655     S
Er186     V187    10.0   .     S
Er186     Er190    10.001   1_655     S
Er189     Er190    9.999   .     S
Er189     V192    10.0   .     S
Er189     Er185    10.001   1_455     S
Er190     V191    10.0   .     S
Er190     Er186    10.001   1_455     S
