data_tbr
_audit_creation_date              2020-02-02
_audit_creation_method            'Pymatgen'
_symmetry_space_group_name_H-M    'P1'
_symmetry_Int_Tables_number       1
loop_
_symmetry_equiv_pos_as_xyz
  x,y,z
_cell_length_a                    45.1086
_cell_length_b                    45.1086
_cell_length_c                    14.1586
_cell_angle_alpha                 90.0
_cell_angle_beta                 90.0
_cell_angle_gamma                 90.0
loop_
_atom_site_label
_atom_site_type_symbol
_atom_site_fract_x
_atom_site_fract_y
_atom_site_fract_z
Ce1     Ce     0.6401   0.429   0.5
Er2     Er     0.8453   0.5006   0.5
Ce3     Ce     0.071   0.8599   0.5
Er4     Er     0.9994   0.6547   0.5
Ce5     Ce     0.3599   0.571   0.5
Er6     Er     0.1547   0.4994   0.5
Ce7     Ce     0.929   0.1401   0.5
Er8     Er     0.0006   0.3453   0.5
Ti9     Ti     0.9265   0.7902   0.0
Ti10     Ti     0.0735   0.2098   0.0
Ti11     Ti     0.2902   0.4265   0.0
Ti12     Ti     0.7098   0.5735   0.0
Ce13     Ce     0.571   0.6401   0.5
Er14     Er     0.4994   0.8453   0.5
Ce15     Ce     0.1401   0.071   0.5
Er16     Er     0.3453   0.9994   0.5
Ce17     Ce     0.429   0.3599   0.5
Er18     Er     0.5006   0.1547   0.5
Ce19     Ce     0.8599   0.929   0.5
Er20     Er     0.6547   0.0006   0.5
Ti21     Ti     0.7902   0.0735   0.0
Ti22     Ti     0.2098   0.9265   0.0
Ti23     Ti     0.5735   0.2902   0.0
Ti24     Ti     0.4265   0.7098   0.0
V25     V     0.0   0.5   0.0
V26     V     0.5   0.0   0.0
S27     S     0.2848   0.7848   0.5
S28     S     0.2152   0.2848   0.5
S29     S     0.7848   0.7152   0.5
S30     S     0.7152   0.2152   0.5
loop_
_geom_bond_atom_site_label_1
_geom_bond_atom_site_label_2
_geom_bond_distance
_geom_bond_site_symmetry_2
_ccdc_geom_bond_type
Ce1     Ti12    10.124   1_556     S
Ce1     Ti12    10.124   .     S
Ce1     Ce13    10.02   .     S
Ce1     Ce17    10.02   .     S
Ce1     Er2    9.805   .     S
Ce1     S30    10.221   .     S
Ce1     Ti23    9.918   1_556     S
Ce1     Ti23    9.918   .     S
Er2     V25    9.94   1_656     S
Er2     V25    9.94   1_655     S
Er2     S29    10.057   .     S
Er2     Er4    9.826   .     S
Er2     Ti12    9.913   1_556     S
Er2     Ti12    9.913   .     S
Er2     Er8    9.909   1_655     S
Ce3     Ti9    10.124   1_456     S
Ce3     Ti9    10.124   1_455     S
Ce3     Ce19    10.02   1_455     S
Ce3     Ce15    10.02   1_565     S
Ce3     Er4    9.805   1_455     S
Ce3     S27    10.221   .     S
Ce3     Ti22    9.918   .     S
Ce3     Ti22    9.918   1_556     S
Er4     V25    9.94   1_656     S
Er4     V25    9.94   1_655     S
Er4     Ce3    9.805   1_655     S
Er4     S29    10.057   .     S
Er4     Ti9    9.913   1_556     S
Er4     Ti9    9.913   .     S
Er4     Er6    9.909   1_655     S
Ce5     Ti11    10.124   .     S
Ce5     Ti11    10.124   1_556     S
Ce5     Ce13    10.02   .     S
Ce5     Ce17    10.02   .     S
Ce5     Er6    9.805   .     S
Ce5     S27    10.221   .     S
Ce5     Ti24    9.918   1_556     S
Ce5     Ti24    9.918   .     S
Er6     V25    9.94   1_556     S
Er6     V25    9.94   .     S
Er6     S28    10.057   .     S
Er6     Er8    9.826   .     S
Er6     Ti11    9.913   .     S
Er6     Ti11    9.913   1_556     S
Er6     Er4    9.909   1_455     S
Ce7     Ti10    10.124   1_656     S
Ce7     Ti10    10.124   1_655     S
Ce7     Ce19    10.02   1_545     S
Ce7     Ce15    10.02   1_655     S
Ce7     Er8    9.805   1_655     S
Ce7     S30    10.221   .     S
Ce7     Ti21    9.918   .     S
Ce7     Ti21    9.918   1_556     S
Er8     V25    9.94   1_556     S
Er8     V25    9.94   .     S
Er8     Ce7    9.805   1_455     S
Er8     S28    10.057   .     S
Er8     Ti10    9.913   1_556     S
Er8     Ti10    9.913   .     S
Er8     Er2    9.909   1_455     S
Ti9     S29    10.12   .     S
Ti9     S29    10.12   1_554     S
Ti9     Ce3    10.124   1_654     S
Ti9     Ce3    10.124   1_655     S
Ti9     Er4    9.913   1_554     S
Ti9     Ce19    9.918   .     S
Ti9     Ce19    9.918   1_554     S
Ti10     S28    10.12   .     S
Ti10     S28    10.12   1_554     S
Ti10     Ce7    10.124   1_454     S
Ti10     Ce7    10.124   1_455     S
Ti10     Er8    9.913   1_554     S
Ti10     Ce15    9.918   .     S
Ti10     Ce15    9.918   1_554     S
Ti11     S28    10.12   1_554     S
Ti11     S28    10.12   .     S
Ti11     Ce5    10.124   1_554     S
Ti11     Er6    9.913   1_554     S
Ti11     Ce17    9.918   1_554     S
Ti11     Ce17    9.918   .     S
Ti12     S29    10.12   1_554     S
Ti12     S29    10.12   .     S
Ti12     Ce1    10.124   1_554     S
Ti12     Er2    9.913   1_554     S
Ti12     Ce13    9.918   1_554     S
Ti12     Ce13    9.918   .     S
Ce13     Ti24    10.124   1_556     S
Ce13     Ti24    10.124   .     S
Ce13     Er14    9.805   .     S
Ce13     S29    10.221   .     S
Ce13     Ti12    9.918   1_556     S
Er14     V26    9.94   1_566     S
Er14     V26    9.94   1_565     S
Er14     S27    10.057   .     S
Er14     Er16    9.826   .     S
Er14     Ti24    9.913   1_556     S
Er14     Ti24    9.913   .     S
Er14     Er20    9.909   1_565     S
Ce15     Ti22    10.124   1_546     S
Ce15     Ti22    10.124   1_545     S
Ce15     Ce3    10.02   1_545     S
Ce15     Ce7    10.02   1_455     S
Ce15     Er16    9.805   1_545     S
Ce15     S28    10.221   .     S
Ce15     Ti10    9.918   1_556     S
Er16     V26    9.94   1_566     S
Er16     V26    9.94   1_565     S
Er16     Ce15    9.805   1_565     S
Er16     S27    10.057   .     S
Er16     Ti22    9.913   1_556     S
Er16     Ti22    9.913   .     S
Er16     Er18    9.909   1_565     S
Ce17     Ti23    10.124   1_556     S
Ce17     Ti23    10.124   .     S
Ce17     Er18    9.805   .     S
Ce17     S28    10.221   .     S
Ce17     Ti11    9.918   1_556     S
Er18     V26    9.94   1_556     S
Er18     V26    9.94   .     S
Er18     S30    10.057   .     S
Er18     Er20    9.826   .     S
Er18     Ti23    9.913   1_556     S
Er18     Ti23    9.913   .     S
Er18     Er16    9.909   1_545     S
Ce19     Ti21    10.124   1_566     S
Ce19     Ti21    10.124   1_565     S
Ce19     Ce7    10.02   1_565     S
Ce19     Ce3    10.02   1_655     S
Ce19     Er20    9.805   1_565     S
Ce19     S29    10.221   .     S
Ce19     Ti9    9.918   1_556     S
Er20     V26    9.94   1_556     S
Er20     V26    9.94   .     S
Er20     Ce19    9.805   1_545     S
Er20     S30    10.057   .     S
Er20     Ti21    9.913   1_556     S
Er20     Ti21    9.913   .     S
Er20     Er14    9.909   1_545     S
Ti21     S30    10.12   .     S
Ti21     S30    10.12   1_554     S
Ti21     Ce19    10.124   1_544     S
Ti21     Ce19    10.124   1_545     S
Ti21     Er20    9.913   1_554     S
Ti21     Ce7    9.918   1_554     S
Ti22     S27    10.12   .     S
Ti22     S27    10.12   1_554     S
Ti22     Ce15    10.124   1_564     S
Ti22     Ce15    10.124   1_565     S
Ti22     Er16    9.913   1_554     S
Ti22     Ce3    9.918   1_554     S
Ti23     S30    10.12   1_554     S
Ti23     S30    10.12   .     S
Ti23     Ce17    10.124   1_554     S
Ti23     Er18    9.913   1_554     S
Ti23     Ce1    9.918   1_554     S
Ti24     S27    10.12   1_554     S
Ti24     S27    10.12   .     S
Ti24     Ce13    10.124   1_554     S
Ti24     Er14    9.913   1_554     S
Ti24     Ce5    9.918   1_554     S
V25     Er2    9.94   1_454     S
V25     Er4    9.94   1_454     S
V25     Er6    9.94   1_554     S
V25     Er8    9.94   1_554     S
V25     Er4    9.94   1_455     S
V25     Er2    9.94   1_455     S
V26     Er14    9.94   1_544     S
V26     Er16    9.94   1_544     S
V26     Er18    9.94   1_554     S
V26     Er20    9.94   1_554     S
V26     Er16    9.94   1_545     S
V26     Er14    9.94   1_545     S
S27     Ti24    10.12   1_556     S
S27     Ti22    10.12   1_556     S
S28     Ti11    10.12   1_556     S
S28     Ti10    10.12   1_556     S
S29     Ti12    10.12   1_556     S
S29     Ti9    10.12   1_556     S
S30     Ti23    10.12   1_556     S
S30     Ti21    10.12   1_556     S
