data_tca
_audit_creation_date              2020-02-02
_audit_creation_method            'Pymatgen'
_symmetry_space_group_name_H-M    'P1'
_symmetry_Int_Tables_number       1
loop_
_symmetry_equiv_pos_as_xyz
  x,y,z
_cell_length_a                    20.0
_cell_length_b                    20.0
_cell_length_c                    36.3299
_cell_angle_alpha                 90.0
_cell_angle_beta                 90.0
_cell_angle_gamma                 120.0
loop_
_atom_site_label
_atom_site_type_symbol
_atom_site_fract_x
_atom_site_fract_y
_atom_site_fract_z
V1     V     0.3333   0.1667   0.6124
V2     V     0.3333   0.6667   0.6124
V3     V     0.8333   0.1667   0.6124
V4     V     0.8333   0.6667   0.6124
V5     V     0.1667   0.3333   0.3876
V6     V     0.1667   0.8333   0.3876
V7     V     0.6667   0.3333   0.3876
V8     V     0.6667   0.8333   0.3876
V9     V     0.3333   0.1667   0.8876
V10     V     0.3333   0.6667   0.8876
V11     V     0.8333   0.1667   0.8876
V12     V     0.8333   0.6667   0.8876
V13     V     0.1667   0.3333   0.1124
V14     V     0.1667   0.8333   0.1124
V15     V     0.6667   0.3333   0.1124
V16     V     0.6667   0.8333   0.1124
loop_
_geom_bond_atom_site_label_1
_geom_bond_atom_site_label_2
_geom_bond_distance
_geom_bond_site_symmetry_2
_ccdc_geom_bond_type
V1     V9    10.0   .     S
V1     V4    10.0   1_445     S
V1     V4    10.0   .     S
V1     V3    10.0   1_455     S
V1     V3    10.0   .     S
V1     V2    10.0   .     S
V1     V2    10.0   1_545     S
V1     V7    10.0   .     S
V1     V5    10.0   .     S
V1     V6    10.0   1_545     S
V2     V10    10.0   .     S
V2     V3    10.0   1_455     S
V2     V3    10.0   1_565     S
V2     V4    10.0   1_455     S
V2     V4    10.0   .     S
V2     V1    10.0   1_565     S
V2     V8    10.0   .     S
V2     V6    10.0   .     S
V2     V5    10.0   .     S
V3     V11    10.0   .     S
V3     V2    10.0   1_655     S
V3     V2    10.0   1_545     S
V3     V1    10.0   1_655     S
V3     V4    10.0   .     S
V3     V4    10.0   1_545     S
V3     V5    10.0   1_655     S
V3     V7    10.0   .     S
V3     V8    10.0   1_545     S
V4     V12    10.0   .     S
V4     V1    10.0   1_665     S
V4     V2    10.0   1_655     S
V4     V3    10.0   1_565     S
V4     V6    10.0   1_655     S
V4     V8    10.0   .     S
V4     V7    10.0   .     S
V5     V6    10.0   1_545     S
V5     V6    10.0   .     S
V5     V8    10.0   .     S
V5     V8    10.0   1_445     S
V5     V7    10.0   .     S
V5     V7    10.0   1_455     S
V5     V3    10.0   1_455     S
V5     V13    10.0   .     S
V6     V5    10.0   1_565     S
V6     V7    10.0   1_565     S
V6     V7    10.0   1_455     S
V6     V8    10.0   .     S
V6     V8    10.0   1_455     S
V6     V4    10.0   1_455     S
V6     V1    10.0   1_565     S
V6     V14    10.0   .     S
V7     V8    10.0   1_545     S
V7     V8    10.0   .     S
V7     V6    10.0   1_545     S
V7     V6    10.0   1_655     S
V7     V5    10.0   1_655     S
V7     V15    10.0   .     S
V8     V7    10.0   1_565     S
V8     V5    10.0   1_665     S
V8     V6    10.0   1_655     S
V8     V3    10.0   1_565     S
V8     V16    10.0   .     S
V9     V11    10.0   1_455     S
V9     V11    10.0   .     S
V9     V12    10.0   1_445     S
V9     V12    10.0   .     S
V9     V10    10.0   .     S
V9     V10    10.0   1_545     S
V9     V13    10.0   1_556     S
V9     V14    10.0   1_546     S
V9     V15    10.0   1_556     S
V10     V12    10.0   1_455     S
V10     V12    10.0   .     S
V10     V11    10.0   1_455     S
V10     V11    10.0   1_565     S
V10     V9    10.0   1_565     S
V10     V14    10.0   1_556     S
V10     V13    10.0   1_556     S
V10     V16    10.0   1_556     S
V11     V9    10.0   1_655     S
V11     V10    10.0   1_655     S
V11     V10    10.0   1_545     S
V11     V12    10.0   .     S
V11     V12    10.0   1_545     S
V11     V15    10.0   1_556     S
V11     V16    10.0   1_546     S
V11     V13    10.0   1_656     S
V12     V10    10.0   1_655     S
V12     V9    10.0   1_665     S
V12     V11    10.0   1_565     S
V12     V16    10.0   1_556     S
V12     V15    10.0   1_556     S
V12     V14    10.0   1_656     S
V13     V16    10.0   .     S
V13     V16    10.0   1_445     S
V13     V14    10.0   1_545     S
V13     V14    10.0   .     S
V13     V15    10.0   .     S
V13     V15    10.0   1_455     S
V13     V9    10.0   1_554     S
V13     V10    10.0   1_554     S
V13     V11    10.0   1_454     S
V14     V15    10.0   1_565     S
V14     V15    10.0   1_455     S
V14     V13    10.0   1_565     S
V14     V16    10.0   .     S
V14     V16    10.0   1_455     S
V14     V10    10.0   1_554     S
V14     V9    10.0   1_564     S
V14     V12    10.0   1_454     S
V15     V14    10.0   1_545     S
V15     V14    10.0   1_655     S
V15     V16    10.0   1_545     S
V15     V16    10.0   .     S
V15     V13    10.0   1_655     S
V15     V11    10.0   1_554     S
V15     V12    10.0   1_554     S
V15     V9    10.0   1_554     S
V16     V13    10.0   1_665     S
V16     V15    10.0   1_565     S
V16     V14    10.0   1_655     S
V16     V12    10.0   1_554     S
V16     V11    10.0   1_564     S
V16     V10    10.0   1_554     S
