data_tcd
_audit_creation_date              2020-02-02
_audit_creation_method            'Pymatgen'
_symmetry_space_group_name_H-M    'P1'
_symmetry_Int_Tables_number       1
loop_
_symmetry_equiv_pos_as_xyz
  x,y,z
_cell_length_a                    20.0
_cell_length_b                    20.0
_cell_length_c                    54.4949
_cell_angle_alpha                 90.0
_cell_angle_beta                 90.0
_cell_angle_gamma                 120.0
loop_
_atom_site_label
_atom_site_type_symbol
_atom_site_fract_x
_atom_site_fract_y
_atom_site_fract_z
V1     V     0.0   0.0   0.5918
V2     V     0.0   0.5   0.5918
V3     V     0.5   0.0   0.5918
V4     V     0.5   0.5   0.5918
V5     V     0.3333   0.1667   0.7416
V6     V     0.3333   0.6667   0.7416
V7     V     0.8333   0.1667   0.7416
V8     V     0.8333   0.6667   0.7416
V9     V     0.3333   0.1667   0.9251
V10     V     0.3333   0.6667   0.9251
V11     V     0.8333   0.1667   0.9251
V12     V     0.8333   0.6667   0.9251
V13     V     0.1667   0.3333   0.0749
V14     V     0.1667   0.8333   0.0749
V15     V     0.6667   0.3333   0.0749
V16     V     0.6667   0.8333   0.0749
V17     V     0.0   0.0   0.4082
V18     V     0.0   0.5   0.4082
V19     V     0.5   0.0   0.4082
V20     V     0.5   0.5   0.4082
V21     V     0.1667   0.3333   0.2584
V22     V     0.1667   0.8333   0.2584
V23     V     0.6667   0.3333   0.2584
V24     V     0.6667   0.8333   0.2584
loop_
_geom_bond_atom_site_label_1
_geom_bond_atom_site_label_2
_geom_bond_distance
_geom_bond_site_symmetry_2
_ccdc_geom_bond_type
V1     V8    10.0   1_445     S
V1     V5    10.0   .     S
V1     V7    10.0   1_455     S
V1     V17    10.0   .     S
V1     V3    10.0   .     S
V1     V3    10.0   1_455     S
V1     V2    10.0   .     S
V1     V2    10.0   1_545     S
V1     V4    10.0   .     S
V1     V4    10.0   1_445     S
V2     V7    10.0   1_455     S
V2     V6    10.0   .     S
V2     V8    10.0   1_455     S
V2     V18    10.0   .     S
V2     V4    10.0   .     S
V2     V4    10.0   1_455     S
V2     V1    10.0   1_565     S
V2     V3    10.0   1_565     S
V2     V3    10.0   1_455     S
V3     V6    10.0   1_545     S
V3     V7    10.0   .     S
V3     V5    10.0   .     S
V3     V19    10.0   .     S
V3     V1    10.0   1_655     S
V3     V4    10.0   .     S
V3     V4    10.0   1_545     S
V3     V2    10.0   1_545     S
V3     V2    10.0   1_655     S
V4     V5    10.0   .     S
V4     V8    10.0   .     S
V4     V6    10.0   .     S
V4     V20    10.0   .     S
V4     V2    10.0   1_655     S
V4     V3    10.0   1_565     S
V4     V1    10.0   1_665     S
V5     V9    10.0   .     S
V5     V6    10.0   .     S
V5     V6    10.0   1_545     S
V5     V7    10.0   1_455     S
V5     V7    10.0   .     S
V5     V8    10.0   1_445     S
V5     V8    10.0   .     S
V6     V3    10.0   1_565     S
V6     V10    10.0   .     S
V6     V5    10.0   1_565     S
V6     V8    10.0   1_455     S
V6     V8    10.0   .     S
V6     V7    10.0   1_455     S
V6     V7    10.0   1_565     S
V7     V2    10.0   1_655     S
V7     V1    10.0   1_655     S
V7     V11    10.0   .     S
V7     V8    10.0   .     S
V7     V8    10.0   1_545     S
V7     V5    10.0   1_655     S
V7     V6    10.0   1_655     S
V7     V6    10.0   1_545     S
V8     V1    10.0   1_665     S
V8     V2    10.0   1_655     S
V8     V12    10.0   .     S
V8     V7    10.0   1_565     S
V8     V6    10.0   1_655     S
V8     V5    10.0   1_665     S
V9     V13    10.0   1_556     S
V9     V15    10.0   1_556     S
V9     V14    10.0   1_546     S
V9     V11    10.0   1_455     S
V9     V11    10.0   .     S
V9     V10    10.0   .     S
V9     V10    10.0   1_545     S
V9     V12    10.0   1_445     S
V9     V12    10.0   .     S
V10     V14    10.0   1_556     S
V10     V16    10.0   1_556     S
V10     V13    10.0   1_556     S
V10     V12    10.0   1_455     S
V10     V12    10.0   .     S
V10     V9    10.0   1_565     S
V10     V11    10.0   1_455     S
V10     V11    10.0   1_565     S
V11     V15    10.0   1_556     S
V11     V13    10.0   1_656     S
V11     V16    10.0   1_546     S
V11     V9    10.0   1_655     S
V11     V12    10.0   .     S
V11     V12    10.0   1_545     S
V11     V10    10.0   1_655     S
V11     V10    10.0   1_545     S
V12     V16    10.0   1_556     S
V12     V14    10.0   1_656     S
V12     V15    10.0   1_556     S
V12     V10    10.0   1_655     S
V12     V11    10.0   1_565     S
V12     V9    10.0   1_665     S
V13     V9    10.0   1_554     S
V13     V11    10.0   1_454     S
V13     V10    10.0   1_554     S
V13     V21    10.0   .     S
V13     V14    10.0   1_545     S
V13     V14    10.0   .     S
V13     V15    10.0   .     S
V13     V15    10.0   1_455     S
V13     V16    10.0   .     S
V13     V16    10.0   1_445     S
V14     V10    10.0   1_554     S
V14     V12    10.0   1_454     S
V14     V9    10.0   1_564     S
V14     V22    10.0   .     S
V14     V13    10.0   1_565     S
V14     V16    10.0   .     S
V14     V16    10.0   1_455     S
V14     V15    10.0   1_565     S
V14     V15    10.0   1_455     S
V15     V11    10.0   1_554     S
V15     V9    10.0   1_554     S
V15     V12    10.0   1_554     S
V15     V23    10.0   .     S
V15     V16    10.0   1_545     S
V15     V16    10.0   .     S
V15     V13    10.0   1_655     S
V15     V14    10.0   1_545     S
V15     V14    10.0   1_655     S
V16     V12    10.0   1_554     S
V16     V10    10.0   1_554     S
V16     V11    10.0   1_564     S
V16     V24    10.0   .     S
V16     V15    10.0   1_565     S
V16     V14    10.0   1_655     S
V16     V13    10.0   1_665     S
V17     V24    10.0   1_445     S
V17     V21    10.0   .     S
V17     V22    10.0   1_545     S
V17     V18    10.0   .     S
V17     V18    10.0   1_545     S
V17     V19    10.0   .     S
V17     V19    10.0   1_455     S
V17     V20    10.0   .     S
V17     V20    10.0   1_445     S
V18     V23    10.0   1_455     S
V18     V22    10.0   .     S
V18     V21    10.0   .     S
V18     V17    10.0   1_565     S
V18     V20    10.0   .     S
V18     V20    10.0   1_455     S
V18     V19    10.0   1_565     S
V18     V19    10.0   1_455     S
V19     V22    10.0   1_545     S
V19     V23    10.0   .     S
V19     V24    10.0   1_545     S
V19     V20    10.0   .     S
V19     V20    10.0   1_545     S
V19     V17    10.0   1_655     S
V19     V18    10.0   1_545     S
V19     V18    10.0   1_655     S
V20     V21    10.0   .     S
V20     V24    10.0   .     S
V20     V23    10.0   .     S
V20     V19    10.0   1_565     S
V20     V18    10.0   1_655     S
V20     V17    10.0   1_665     S
V21     V23    10.0   .     S
V21     V23    10.0   1_455     S
V21     V22    10.0   1_545     S
V21     V22    10.0   .     S
V21     V24    10.0   .     S
V21     V24    10.0   1_445     S
V22     V19    10.0   1_565     S
V22     V17    10.0   1_565     S
V22     V24    10.0   .     S
V22     V24    10.0   1_455     S
V22     V21    10.0   1_565     S
V22     V23    10.0   1_565     S
V22     V23    10.0   1_455     S
V23     V18    10.0   1_655     S
V23     V21    10.0   1_655     S
V23     V24    10.0   1_545     S
V23     V24    10.0   .     S
V23     V22    10.0   1_545     S
V23     V22    10.0   1_655     S
V24     V17    10.0   1_665     S
V24     V19    10.0   1_565     S
V24     V22    10.0   1_655     S
V24     V23    10.0   1_565     S
V24     V21    10.0   1_665     S
