data_tcfx
_audit_creation_date              2020-02-02
_audit_creation_method            'Pymatgen'
_symmetry_space_group_name_H-M    'P1'
_symmetry_Int_Tables_number       1
loop_
_symmetry_equiv_pos_as_xyz
  x,y,z
_cell_length_a                    20.1944
_cell_length_b                    16.4883
_cell_length_c                    60.0836
_cell_angle_alpha                 90.0
_cell_angle_beta                 90.0
_cell_angle_gamma                 90.0
loop_
_atom_site_label
_atom_site_type_symbol
_atom_site_fract_x
_atom_site_fract_y
_atom_site_fract_z
V1     V     0.0625   0.625   0.8119
V2     V     0.5625   0.625   0.8119
V3     V     0.3125   0.125   0.8119
V4     V     0.8125   0.125   0.8119
V5     V     0.4375   0.875   0.6881
V6     V     0.9375   0.875   0.6881
V7     V     0.1875   0.375   0.6881
V8     V     0.6875   0.375   0.6881
V9     V     0.3125   0.125   0.4381
V10     V     0.8125   0.125   0.4381
V11     V     0.4375   0.375   0.5619
V12     V     0.9375   0.375   0.5619
V13     V     0.0625   0.625   0.4381
V14     V     0.5625   0.625   0.4381
V15     V     0.1875   0.875   0.5619
V16     V     0.6875   0.875   0.5619
V17     V     0.3125   0.625   0.3119
V18     V     0.8125   0.625   0.3119
V19     V     0.4375   0.375   0.1881
V20     V     0.9375   0.375   0.1881
V21     V     0.1875   0.875   0.1881
V22     V     0.6875   0.875   0.1881
V23     V     0.0625   0.125   0.3119
V24     V     0.5625   0.125   0.3119
V25     V     0.4375   0.875   0.0619
V26     V     0.9375   0.875   0.0619
V27     V     0.1875   0.375   0.0619
V28     V     0.6875   0.375   0.0619
V29     V     0.0625   0.125   0.9381
V30     V     0.5625   0.125   0.9381
V31     V     0.3125   0.625   0.9381
V32     V     0.8125   0.625   0.9381
loop_
_geom_bond_atom_site_label_1
_geom_bond_atom_site_label_2
_geom_bond_distance
_geom_bond_site_symmetry_2
_ccdc_geom_bond_type
V1     V3    9.667   .     S
V1     V4    9.667   1_465     S
V1     V4    9.667   1_455     S
V1     V3    9.667   1_565     S
V1     V2    10.097   .     S
V1     V2    10.097   1_455     S
V1     V7    8.873   .     S
V1     V6    8.873   1_455     S
V1     V29    11.199   .     S
V1     V29    11.199   1_565     S
V1     V32    9.108   1_455     S
V1     V31    9.108   .     S
V1     V8    11.389   1_455     S
V1     V5    11.389   .     S
V2     V4    9.667   .     S
V2     V3    9.667   1_565     S
V2     V3    9.667   .     S
V2     V4    9.667   1_565     S
V2     V1    10.097   1_655     S
V2     V8    8.873   .     S
V2     V5    8.873   .     S
V2     V30    11.199   .     S
V2     V30    11.199   1_565     S
V2     V31    9.108   .     S
V2     V32    9.108   .     S
V2     V7    11.389   .     S
V2     V6    11.389   .     S
V3     V2    9.667   1_545     S
V3     V1    9.667   1_545     S
V3     V4    10.097   1_455     S
V3     V4    10.097   .     S
V3     V5    8.873   1_545     S
V3     V7    8.873   .     S
V3     V31    11.199   1_545     S
V3     V31    11.199   .     S
V3     V29    9.108   .     S
V3     V30    9.108   .     S
V3     V6    11.389   1_445     S
V3     V8    11.389   .     S
V4     V1    9.667   1_645     S
V4     V1    9.667   1_655     S
V4     V2    9.667   1_545     S
V4     V3    10.097   1_655     S
V4     V6    8.873   1_545     S
V4     V8    8.873   .     S
V4     V32    11.199   1_545     S
V4     V32    11.199   .     S
V4     V30    9.108   .     S
V4     V29    9.108   1_655     S
V4     V5    11.389   1_545     S
V4     V7    11.389   1_655     S
V5     V7    9.667   1_565     S
V5     V8    9.667   .     S
V5     V7    9.667   .     S
V5     V8    9.667   1_565     S
V5     V6    10.097   1_455     S
V5     V6    10.097   .     S
V5     V3    8.873   1_565     S
V5     V11    11.199   1_565     S
V5     V11    11.199   .     S
V5     V15    9.108   .     S
V5     V16    9.108   .     S
V5     V4    11.389   1_565     S
V6     V8    9.667   1_565     S
V6     V7    9.667   1_655     S
V6     V8    9.667   .     S
V6     V7    9.667   1_665     S
V6     V5    10.097   1_655     S
V6     V1    8.873   1_655     S
V6     V4    8.873   1_565     S
V6     V12    11.199   1_565     S
V6     V12    11.199   .     S
V6     V16    9.108   .     S
V6     V15    9.108   1_655     S
V6     V3    11.389   1_665     S
V7     V5    9.667   1_545     S
V7     V6    9.667   1_455     S
V7     V6    9.667   1_445     S
V7     V8    10.097   .     S
V7     V8    10.097   1_455     S
V7     V15    11.199   .     S
V7     V15    11.199   1_545     S
V7     V12    9.108   1_455     S
V7     V11    9.108   .     S
V7     V4    11.389   1_455     S
V8     V6    9.667   1_545     S
V8     V5    9.667   1_545     S
V8     V7    10.097   1_655     S
V8     V16    11.199   .     S
V8     V16    11.199   1_545     S
V8     V11    9.108   .     S
V8     V12    9.108   .     S
V8     V1    11.389   1_655     S
V9     V13    9.667   1_545     S
V9     V14    9.667   .     S
V9     V14    9.667   1_545     S
V9     V13    9.667   .     S
V9     V10    10.097   1_455     S
V9     V10    10.097   .     S
V9     V11    8.873   .     S
V9     V15    8.873   1_545     S
V9     V17    11.199   .     S
V9     V17    11.199   1_545     S
V9     V23    9.108   .     S
V9     V24    9.108   .     S
V9     V12    11.389   1_455     S
V9     V16    11.389   1_545     S
V10     V14    9.667   1_545     S
V10     V13    9.667   1_655     S
V10     V13    9.667   1_645     S
V10     V14    9.667   .     S
V10     V9    10.097   1_655     S
V10     V12    8.873   .     S
V10     V16    8.873   1_545     S
V10     V18    11.199   .     S
V10     V18    11.199   1_545     S
V10     V24    9.108   .     S
V10     V23    9.108   1_655     S
V10     V11    11.389   .     S
V10     V15    11.389   1_645     S
V11     V15    9.667   1_545     S
V11     V16    9.667   .     S
V11     V15    9.667   .     S
V11     V16    9.667   1_545     S
V11     V12    10.097   1_455     S
V11     V12    10.097   .     S
V11     V14    8.873   .     S
V11     V5    11.199   1_545     S
V11     V13    11.389   .     S
V12     V16    9.667   1_545     S
V12     V15    9.667   1_655     S
V12     V16    9.667   .     S
V12     V15    9.667   1_645     S
V12     V11    10.097   1_655     S
V12     V13    8.873   1_655     S
V12     V6    11.199   1_545     S
V12     V7    9.108   1_655     S
V12     V14    11.389   .     S
V12     V9    11.389   1_655     S
V13     V9    9.667   1_565     S
V13     V10    9.667   1_455     S
V13     V10    9.667   1_465     S
V13     V14    10.097   .     S
V13     V14    10.097   1_455     S
V13     V12    8.873   1_455     S
V13     V15    8.873   .     S
V13     V23    11.199   1_565     S
V13     V23    11.199   .     S
V13     V17    9.108   .     S
V13     V18    9.108   1_455     S
V13     V16    11.389   1_455     S
V14     V10    9.667   1_565     S
V14     V9    9.667   1_565     S
V14     V13    10.097   1_655     S
V14     V16    8.873   .     S
V14     V24    11.199   1_565     S
V14     V24    11.199   .     S
V14     V18    9.108   .     S
V14     V17    9.108   .     S
V14     V15    11.389   .     S
V15     V11    9.667   1_565     S
V15     V12    9.667   1_455     S
V15     V12    9.667   1_465     S
V15     V16    10.097   .     S
V15     V16    10.097   1_455     S
V15     V9    8.873   1_565     S
V15     V7    11.199   1_565     S
V15     V6    9.108   1_455     S
V15     V10    11.389   1_465     S
V16     V12    9.667   1_565     S
V16     V11    9.667   1_565     S
V16     V15    10.097   1_655     S
V16     V10    8.873   1_565     S
V16     V8    11.199   1_565     S
V16     V13    11.389   1_655     S
V16     V9    11.389   1_565     S
V17     V24    9.667   1_565     S
V17     V23    9.667   .     S
V17     V24    9.667   .     S
V17     V23    9.667   1_565     S
V17     V18    10.097   1_455     S
V17     V18    10.097   .     S
V17     V19    8.873   .     S
V17     V21    8.873   .     S
V17     V9    11.199   1_565     S
V17     V22    11.389   .     S
V17     V20    11.389   1_455     S
V18     V23    9.667   1_665     S
V18     V24    9.667   .     S
V18     V23    9.667   1_655     S
V18     V24    9.667   1_565     S
V18     V17    10.097   1_655     S
V18     V20    8.873   .     S
V18     V22    8.873   .     S
V18     V10    11.199   1_565     S
V18     V13    9.108   1_655     S
V18     V21    11.389   1_655     S
V18     V19    11.389   .     S
V19     V21    9.667   1_545     S
V19     V22    9.667   .     S
V19     V21    9.667   .     S
V19     V22    9.667   1_545     S
V19     V20    10.097   1_455     S
V19     V20    10.097   .     S
V19     V24    8.873   .     S
V19     V25    11.199   .     S
V19     V25    11.199   1_545     S
V19     V27    9.108   .     S
V19     V28    9.108   .     S
V19     V23    11.389   .     S
V20     V22    9.667   1_545     S
V20     V21    9.667   1_655     S
V20     V22    9.667   .     S
V20     V21    9.667   1_645     S
V20     V19    10.097   1_655     S
V20     V23    8.873   1_655     S
V20     V26    11.199   .     S
V20     V26    11.199   1_545     S
V20     V28    9.108   .     S
V20     V27    9.108   1_655     S
V20     V17    11.389   1_655     S
V20     V24    11.389   .     S
V21     V19    9.667   1_565     S
V21     V20    9.667   1_455     S
V21     V20    9.667   1_465     S
V21     V22    10.097   .     S
V21     V22    10.097   1_455     S
V21     V23    8.873   1_565     S
V21     V27    11.199   1_565     S
V21     V27    11.199   .     S
V21     V25    9.108   .     S
V21     V26    9.108   1_455     S
V21     V24    11.389   1_565     S
V21     V18    11.389   1_455     S
V22     V20    9.667   1_565     S
V22     V19    9.667   1_565     S
V22     V21    10.097   1_655     S
V22     V24    8.873   1_565     S
V22     V28    11.199   1_565     S
V22     V28    11.199   .     S
V22     V26    9.108   .     S
V22     V25    9.108   .     S
V22     V23    11.389   1_665     S
V23     V18    9.667   1_445     S
V23     V18    9.667   1_455     S
V23     V17    9.667   1_545     S
V23     V24    10.097   .     S
V23     V24    10.097   1_455     S
V23     V21    8.873   1_545     S
V23     V20    8.873   1_455     S
V23     V13    11.199   1_545     S
V23     V10    9.108   1_455     S
V23     V22    11.389   1_445     S
V24     V17    9.667   1_545     S
V24     V18    9.667   1_545     S
V24     V23    10.097   1_655     S
V24     V22    8.873   1_545     S
V24     V14    11.199   1_545     S
V24     V21    11.389   1_545     S
V25     V27    9.667   .     S
V25     V28    9.667   1_565     S
V25     V27    9.667   1_565     S
V25     V28    9.667   .     S
V25     V26    10.097   1_455     S
V25     V26    10.097   .     S
V25     V31    8.873   1_554     S
V25     V30    8.873   1_564     S
V25     V19    11.199   1_565     S
V25     V29    11.389   1_564     S
V25     V32    11.389   1_554     S
V26     V28    9.667   .     S
V26     V27    9.667   1_665     S
V26     V28    9.667   1_565     S
V26     V27    9.667   1_655     S
V26     V25    10.097   1_655     S
V26     V32    8.873   1_554     S
V26     V29    8.873   1_664     S
V26     V20    11.199   1_565     S
V26     V21    9.108   1_655     S
V26     V30    11.389   1_564     S
V26     V31    11.389   1_654     S
V27     V26    9.667   1_445     S
V27     V25    9.667   1_545     S
V27     V26    9.667   1_455     S
V27     V28    10.097   .     S
V27     V28    10.097   1_455     S
V27     V31    8.873   1_554     S
V27     V29    8.873   1_554     S
V27     V21    11.199   1_545     S
V27     V20    9.108   1_455     S
V27     V30    11.389   1_554     S
V27     V32    11.389   1_454     S
V28     V25    9.667   1_545     S
V28     V26    9.667   1_545     S
V28     V27    10.097   1_655     S
V28     V32    8.873   1_554     S
V28     V30    8.873   1_554     S
V28     V22    11.199   1_545     S
V28     V29    11.389   1_654     S
V28     V31    11.389   1_554     S
V29     V31    9.667   .     S
V29     V32    9.667   1_445     S
V29     V31    9.667   1_545     S
V29     V32    9.667   1_455     S
V29     V30    10.097   .     S
V29     V30    10.097   1_455     S
V29     V26    8.873   1_446     S
V29     V27    8.873   1_556     S
V29     V1    11.199   1_545     S
V29     V4    9.108   1_455     S
V29     V25    11.389   1_546     S
V29     V28    11.389   1_456     S
V30     V32    9.667   .     S
V30     V31    9.667   1_545     S
V30     V32    9.667   1_545     S
V30     V31    9.667   .     S
V30     V29    10.097   1_655     S
V30     V25    8.873   1_546     S
V30     V28    8.873   1_556     S
V30     V2    11.199   1_545     S
V30     V26    11.389   1_546     S
V30     V27    11.389   1_556     S
V31     V30    9.667   1_565     S
V31     V29    9.667   1_565     S
V31     V32    10.097   1_455     S
V31     V32    10.097   .     S
V31     V25    8.873   1_556     S
V31     V27    8.873   1_556     S
V31     V3    11.199   1_565     S
V31     V26    11.389   1_456     S
V31     V28    11.389   1_556     S
V32     V29    9.667   1_665     S
V32     V30    9.667   1_565     S
V32     V29    9.667   1_655     S
V32     V31    10.097   1_655     S
V32     V26    8.873   1_556     S
V32     V28    8.873   1_556     S
V32     V4    11.199   1_565     S
V32     V1    9.108   1_655     S
V32     V25    11.389   1_556     S
V32     V27    11.389   1_656     S
