data_tcgx
_audit_creation_date              2020-02-02
_audit_creation_method            'Pymatgen'
_symmetry_space_group_name_H-M    'P1'
_symmetry_Int_Tables_number       1
loop_
_symmetry_equiv_pos_as_xyz
  x,y,z
_cell_length_a                    17.6408
_cell_length_b                    15.5954
_cell_length_c                    18.2178
_cell_angle_alpha                 90.0
_cell_angle_beta                 90.0
_cell_angle_gamma                 90.0
loop_
_atom_site_label
_atom_site_type_symbol
_atom_site_fract_x
_atom_site_fract_y
_atom_site_fract_z
V1     V     0.3832   0.25   0.0625
V2     V     0.3832   0.25   0.5625
V3     V     0.6168   0.75   0.4375
V4     V     0.6168   0.75   0.9375
V5     V     0.8832   0.25   0.1875
V6     V     0.8832   0.25   0.6875
V7     V     0.1168   0.75   0.3125
V8     V     0.1168   0.75   0.8125
loop_
_geom_bond_atom_site_label_1
_geom_bond_atom_site_label_2
_geom_bond_distance
_geom_bond_site_symmetry_2
_ccdc_geom_bond_type
V1     V3    11.156   .     S
V1     V3    11.156   1_545     S
V1     V6    11.157   1_454     S
V1     V6    11.157   1_554     S
V1     V7    10.18   .     S
V1     V8    10.18   1_554     S
V1     V8    10.18   1_544     S
V1     V7    10.18   1_545     S
V1     V4    9.109   1_554     S
V1     V2    9.109   .     S
V1     V2    9.109   1_554     S
V1     V4    9.109   1_544     S
V1     V5    9.11   1_455     S
V1     V5    9.11   .     S
V2     V4    11.156   .     S
V2     V4    11.156   1_545     S
V2     V5    11.157   1_455     S
V2     V5    11.157   .     S
V2     V8    10.18   .     S
V2     V7    10.18   .     S
V2     V7    10.18   1_545     S
V2     V8    10.18   1_545     S
V2     V3    9.109   .     S
V2     V1    9.109   1_556     S
V2     V3    9.109   1_545     S
V2     V6    9.11   1_455     S
V2     V6    9.11   .     S
V3     V1    11.156   1_565     S
V3     V8    11.157   .     S
V3     V8    11.157   1_655     S
V3     V6    10.18   1_565     S
V3     V5    10.18   1_565     S
V3     V5    10.18   .     S
V3     V6    10.18   .     S
V3     V2    9.109   1_565     S
V3     V4    9.109   1_554     S
V3     V4    9.109   .     S
V3     V7    9.11   .     S
V3     V7    9.11   1_655     S
V4     V2    11.156   1_565     S
V4     V7    11.157   1_556     S
V4     V7    11.157   1_656     S
V4     V5    10.18   1_566     S
V4     V6    10.18   1_565     S
V4     V6    10.18   .     S
V4     V5    10.18   1_556     S
V4     V1    9.109   1_556     S
V4     V1    9.109   1_566     S
V4     V3    9.109   1_556     S
V4     V8    9.11   .     S
V4     V8    9.11   1_655     S
V5     V2    11.157   1_655     S
V5     V8    11.156   1_654     S
V5     V8    11.156   1_644     S
V5     V4    10.18   1_544     S
V5     V3    10.18   1_545     S
V5     V4    10.18   1_554     S
V5     V1    9.11   1_655     S
V5     V7    9.109   1_655     S
V5     V6    9.109   .     S
V5     V6    9.109   1_554     S
V5     V7    9.109   1_645     S
V6     V1    11.157   1_656     S
V6     V1    11.157   1_556     S
V6     V7    11.156   1_655     S
V6     V7    11.156   1_645     S
V6     V3    10.18   1_545     S
V6     V4    10.18   1_545     S
V6     V2    9.11   1_655     S
V6     V8    9.109   1_655     S
V6     V5    9.109   1_556     S
V6     V8    9.109   1_645     S
V7     V4    11.157   1_554     S
V7     V4    11.157   1_454     S
V7     V6    11.156   1_455     S
V7     V6    11.156   1_465     S
V7     V2    10.18   1_565     S
V7     V1    10.18   1_565     S
V7     V3    9.11   1_455     S
V7     V5    9.109   1_455     S
V7     V5    9.109   1_465     S
V7     V8    9.109   1_554     S
V7     V8    9.109   .     S
V8     V3    11.157   1_455     S
V8     V5    11.156   1_456     S
V8     V5    11.156   1_466     S
V8     V1    10.18   1_556     S
V8     V1    10.18   1_566     S
V8     V2    10.18   1_565     S
V8     V4    9.11   1_455     S
V8     V6    9.109   1_455     S
V8     V6    9.109   1_465     S
V8     V7    9.109   1_556     S
