data_tcj
_audit_creation_date              2020-02-02
_audit_creation_method            'Pymatgen'
_symmetry_space_group_name_H-M    'P1'
_symmetry_Int_Tables_number       1
loop_
_symmetry_equiv_pos_as_xyz
  x,y,z
_cell_length_a                    20.0
_cell_length_b                    20.0
_cell_length_c                    32.6599
_cell_angle_alpha                 90.0
_cell_angle_beta                 90.0
_cell_angle_gamma                 120.0
loop_
_atom_site_label
_atom_site_type_symbol
_atom_site_fract_x
_atom_site_fract_y
_atom_site_fract_z
Er1     Er     0.3333   0.1667   0.25
Er2     Er     0.3333   0.6667   0.25
Er3     Er     0.8333   0.1667   0.25
Er4     Er     0.8333   0.6667   0.25
Er5     Er     0.1667   0.3333   0.75
Er6     Er     0.1667   0.8333   0.75
Er7     Er     0.6667   0.3333   0.75
Er8     Er     0.6667   0.8333   0.75
V9     V     0.0   0.0   0.0
V10     V     0.0   0.5   0.0
V11     V     0.5   0.0   0.0
V12     V     0.5   0.5   0.0
V13     V     0.0   0.0   0.5
V14     V     0.0   0.5   0.5
V15     V     0.5   0.0   0.5
V16     V     0.5   0.5   0.5
loop_
_geom_bond_atom_site_label_1
_geom_bond_atom_site_label_2
_geom_bond_distance
_geom_bond_site_symmetry_2
_ccdc_geom_bond_type
Er1     V13    10.0   .     S
Er1     V15    10.0   .     S
Er1     V16    10.0   .     S
Er1     V9    10.0   .     S
Er1     V11    10.0   .     S
Er1     V12    10.0   .     S
Er1     Er4    10.0   1_445     S
Er1     Er4    10.0   .     S
Er1     Er2    10.0   .     S
Er1     Er2    10.0   1_545     S
Er1     Er3    10.0   1_455     S
Er1     Er3    10.0   .     S
Er2     V14    10.0   .     S
Er2     V16    10.0   .     S
Er2     V15    10.0   1_565     S
Er2     V10    10.0   .     S
Er2     V12    10.0   .     S
Er2     V11    10.0   1_565     S
Er2     Er3    10.0   1_455     S
Er2     Er3    10.0   1_565     S
Er2     Er1    10.0   1_565     S
Er2     Er4    10.0   1_455     S
Er2     Er4    10.0   .     S
Er3     V15    10.0   .     S
Er3     V13    10.0   1_655     S
Er3     V14    10.0   1_655     S
Er3     V11    10.0   .     S
Er3     V9    10.0   1_655     S
Er3     V10    10.0   1_655     S
Er3     Er2    10.0   1_655     S
Er3     Er2    10.0   1_545     S
Er3     Er4    10.0   .     S
Er3     Er4    10.0   1_545     S
Er3     Er1    10.0   1_655     S
Er4     V16    10.0   .     S
Er4     V14    10.0   1_655     S
Er4     V13    10.0   1_665     S
Er4     V12    10.0   .     S
Er4     V10    10.0   1_655     S
Er4     V9    10.0   1_665     S
Er4     Er1    10.0   1_665     S
Er4     Er3    10.0   1_565     S
Er4     Er2    10.0   1_655     S
Er5     V14    10.0   .     S
Er5     V13    10.0   .     S
Er5     V16    10.0   .     S
Er5     V10    10.0   1_556     S
Er5     V9    10.0   1_556     S
Er5     V12    10.0   1_556     S
Er5     Er8    10.0   .     S
Er5     Er8    10.0   1_445     S
Er5     Er6    10.0   1_545     S
Er5     Er6    10.0   .     S
Er5     Er7    10.0   .     S
Er5     Er7    10.0   1_455     S
Er6     V13    10.0   1_565     S
Er6     V14    10.0   .     S
Er6     V15    10.0   1_565     S
Er6     V9    10.0   1_566     S
Er6     V10    10.0   1_556     S
Er6     V11    10.0   1_566     S
Er6     Er7    10.0   1_565     S
Er6     Er7    10.0   1_455     S
Er6     Er5    10.0   1_565     S
Er6     Er8    10.0   .     S
Er6     Er8    10.0   1_455     S
Er7     V16    10.0   .     S
Er7     V15    10.0   .     S
Er7     V14    10.0   1_655     S
Er7     V12    10.0   1_556     S
Er7     V11    10.0   1_556     S
Er7     V10    10.0   1_656     S
Er7     Er6    10.0   1_545     S
Er7     Er6    10.0   1_655     S
Er7     Er8    10.0   1_545     S
Er7     Er8    10.0   .     S
Er7     Er5    10.0   1_655     S
Er8     V15    10.0   1_565     S
Er8     V16    10.0   .     S
Er8     V13    10.0   1_665     S
Er8     V11    10.0   1_566     S
Er8     V12    10.0   1_556     S
Er8     V9    10.0   1_666     S
Er8     Er5    10.0   1_665     S
Er8     Er7    10.0   1_565     S
Er8     Er6    10.0   1_655     S
V9     Er3    10.0   1_455     S
V9     Er4    10.0   1_445     S
V9     Er6    10.0   1_544     S
V9     Er5    10.0   1_554     S
V9     Er8    10.0   1_444     S
V9     V10    10.0   .     S
V9     V10    10.0   1_545     S
V9     V12    10.0   .     S
V9     V12    10.0   1_445     S
V9     V11    10.0   .     S
V9     V11    10.0   1_455     S
V10     Er4    10.0   1_455     S
V10     Er3    10.0   1_455     S
V10     Er5    10.0   1_554     S
V10     Er6    10.0   1_554     S
V10     Er7    10.0   1_454     S
V10     V9    10.0   1_565     S
V10     V11    10.0   1_565     S
V10     V11    10.0   1_455     S
V10     V12    10.0   .     S
V10     V12    10.0   1_455     S
V11     Er2    10.0   1_545     S
V11     Er8    10.0   1_544     S
V11     Er7    10.0   1_554     S
V11     Er6    10.0   1_544     S
V11     V12    10.0   .     S
V11     V12    10.0   1_545     S
V11     V10    10.0   1_545     S
V11     V10    10.0   1_655     S
V11     V9    10.0   1_655     S
V12     Er7    10.0   1_554     S
V12     Er8    10.0   1_554     S
V12     Er5    10.0   1_554     S
V12     V11    10.0   1_565     S
V12     V9    10.0   1_665     S
V12     V10    10.0   1_655     S
V13     Er3    10.0   1_455     S
V13     Er4    10.0   1_445     S
V13     Er6    10.0   1_545     S
V13     Er8    10.0   1_445     S
V13     V15    10.0   .     S
V13     V15    10.0   1_455     S
V13     V14    10.0   .     S
V13     V14    10.0   1_545     S
V13     V16    10.0   .     S
V13     V16    10.0   1_445     S
V14     Er4    10.0   1_455     S
V14     Er3    10.0   1_455     S
V14     Er7    10.0   1_455     S
V14     V16    10.0   .     S
V14     V16    10.0   1_455     S
V14     V13    10.0   1_565     S
V14     V15    10.0   1_565     S
V14     V15    10.0   1_455     S
V15     Er2    10.0   1_545     S
V15     Er8    10.0   1_545     S
V15     Er6    10.0   1_545     S
V15     V13    10.0   1_655     S
V15     V16    10.0   .     S
V15     V16    10.0   1_545     S
V15     V14    10.0   1_545     S
V15     V14    10.0   1_655     S
V16     V14    10.0   1_655     S
V16     V15    10.0   1_565     S
V16     V13    10.0   1_665     S
