data_tck
_audit_creation_date              2020-02-02
_audit_creation_method            'Pymatgen'
_symmetry_space_group_name_H-M    'P1'
_symmetry_Int_Tables_number       1
loop_
_symmetry_equiv_pos_as_xyz
  x,y,z
_cell_length_a                    20.0
_cell_length_b                    20.0
_cell_length_c                    48.9901
_cell_angle_alpha                 90.0
_cell_angle_beta                 90.0
_cell_angle_gamma                 120.0
loop_
_atom_site_label
_atom_site_type_symbol
_atom_site_fract_x
_atom_site_fract_y
_atom_site_fract_z
Er1     Er     0.1667   0.3333   0.4167
Er2     Er     0.1667   0.8333   0.4167
Er3     Er     0.6667   0.3333   0.4167
Er4     Er     0.6667   0.8333   0.4167
Er5     Er     0.3333   0.1667   0.5833
Er6     Er     0.3333   0.6667   0.5833
Er7     Er     0.8333   0.1667   0.5833
Er8     Er     0.8333   0.6667   0.5833
V9     V     0.0   0.0   0.25
V10     V     0.0   0.5   0.25
V11     V     0.5   0.0   0.25
V12     V     0.5   0.5   0.25
Er13     Er     0.3333   0.1667   0.9167
Er14     Er     0.3333   0.6667   0.9167
Er15     Er     0.8333   0.1667   0.9167
Er16     Er     0.8333   0.6667   0.9167
Er17     Er     0.1667   0.3333   0.0833
Er18     Er     0.1667   0.8333   0.0833
Er19     Er     0.6667   0.3333   0.0833
Er20     Er     0.6667   0.8333   0.0833
V21     V     0.0   0.0   0.75
V22     V     0.0   0.5   0.75
V23     V     0.5   0.0   0.75
V24     V     0.5   0.5   0.75
loop_
_geom_bond_atom_site_label_1
_geom_bond_atom_site_label_2
_geom_bond_distance
_geom_bond_site_symmetry_2
_ccdc_geom_bond_type
Er1     Er4    10.0   .     S
Er1     Er4    10.0   1_445     S
Er1     Er2    10.0   1_545     S
Er1     Er2    10.0   .     S
Er1     Er6    10.0   .     S
Er1     Er5    10.0   .     S
Er1     Er3    10.0   .     S
Er1     Er3    10.0   1_455     S
Er1     Er7    10.0   1_455     S
Er1     V9    10.0   .     S
Er1     V10    10.0   .     S
Er1     V12    10.0   .     S
Er2     Er3    10.0   1_565     S
Er2     Er3    10.0   1_455     S
Er2     Er1    10.0   1_565     S
Er2     Er5    10.0   1_565     S
Er2     Er6    10.0   .     S
Er2     Er4    10.0   .     S
Er2     Er4    10.0   1_455     S
Er2     Er8    10.0   1_455     S
Er2     V10    10.0   .     S
Er2     V9    10.0   1_565     S
Er2     V11    10.0   1_565     S
Er3     Er2    10.0   1_545     S
Er3     Er2    10.0   1_655     S
Er3     Er4    10.0   1_545     S
Er3     Er4    10.0   .     S
Er3     Er8    10.0   .     S
Er3     Er7    10.0   .     S
Er3     Er1    10.0   1_655     S
Er3     Er5    10.0   .     S
Er3     V11    10.0   .     S
Er3     V12    10.0   .     S
Er3     V10    10.0   1_655     S
Er4     Er1    10.0   1_665     S
Er4     Er3    10.0   1_565     S
Er4     Er7    10.0   1_565     S
Er4     Er8    10.0   .     S
Er4     Er2    10.0   1_655     S
Er4     Er6    10.0   .     S
Er4     V12    10.0   .     S
Er4     V11    10.0   1_565     S
Er4     V9    10.0   1_665     S
Er5     Er8    10.0   1_445     S
Er5     Er8    10.0   .     S
Er5     Er2    10.0   1_545     S
Er5     Er7    10.0   1_455     S
Er5     Er7    10.0   .     S
Er5     Er6    10.0   .     S
Er5     Er6    10.0   1_545     S
Er5     V21    10.0   .     S
Er5     V24    10.0   .     S
Er5     V23    10.0   .     S
Er6     Er7    10.0   1_455     S
Er6     Er7    10.0   1_565     S
Er6     Er8    10.0   1_455     S
Er6     Er8    10.0   .     S
Er6     Er5    10.0   1_565     S
Er6     V22    10.0   .     S
Er6     V23    10.0   1_565     S
Er6     V24    10.0   .     S
Er7     Er6    10.0   1_655     S
Er7     Er6    10.0   1_545     S
Er7     Er4    10.0   1_545     S
Er7     Er5    10.0   1_655     S
Er7     Er1    10.0   1_655     S
Er7     Er8    10.0   .     S
Er7     Er8    10.0   1_545     S
Er7     V23    10.0   .     S
Er7     V22    10.0   1_655     S
Er7     V21    10.0   1_655     S
Er8     Er5    10.0   1_665     S
Er8     Er6    10.0   1_655     S
Er8     Er2    10.0   1_655     S
Er8     Er7    10.0   1_565     S
Er8     V24    10.0   .     S
Er8     V21    10.0   1_665     S
Er8     V22    10.0   1_655     S
V9     V10    10.0   .     S
V9     V10    10.0   1_545     S
V9     Er17    10.0   .     S
V9     Er18    10.0   1_545     S
V9     V12    10.0   .     S
V9     V12    10.0   1_445     S
V9     V11    10.0   .     S
V9     V11    10.0   1_455     S
V9     Er20    10.0   1_445     S
V9     Er2    10.0   1_545     S
V9     Er4    10.0   1_445     S
V10     V9    10.0   1_565     S
V10     Er18    10.0   .     S
V10     Er17    10.0   .     S
V10     V11    10.0   1_565     S
V10     V11    10.0   1_455     S
V10     V12    10.0   .     S
V10     V12    10.0   1_455     S
V10     Er19    10.0   1_455     S
V10     Er3    10.0   1_455     S
V11     V12    10.0   .     S
V11     V12    10.0   1_545     S
V11     Er19    10.0   .     S
V11     Er20    10.0   1_545     S
V11     V10    10.0   1_545     S
V11     V10    10.0   1_655     S
V11     V9    10.0   1_655     S
V11     Er18    10.0   1_545     S
V11     Er4    10.0   1_545     S
V11     Er2    10.0   1_545     S
V12     V11    10.0   1_565     S
V12     Er20    10.0   .     S
V12     Er19    10.0   .     S
V12     V9    10.0   1_665     S
V12     V10    10.0   1_655     S
V12     Er17    10.0   .     S
Er13     Er16    10.0   1_445     S
Er13     Er16    10.0   .     S
Er13     Er15    10.0   1_455     S
Er13     Er15    10.0   .     S
Er13     Er17    10.0   1_556     S
Er13     Er18    10.0   1_546     S
Er13     Er19    10.0   1_556     S
Er13     Er14    10.0   .     S
Er13     Er14    10.0   1_545     S
Er13     V21    10.0   .     S
Er13     V23    10.0   .     S
Er13     V24    10.0   .     S
Er14     Er15    10.0   1_455     S
Er14     Er15    10.0   1_565     S
Er14     Er16    10.0   1_455     S
Er14     Er16    10.0   .     S
Er14     Er18    10.0   1_556     S
Er14     Er17    10.0   1_556     S
Er14     Er20    10.0   1_556     S
Er14     Er13    10.0   1_565     S
Er14     V22    10.0   .     S
Er14     V24    10.0   .     S
Er14     V23    10.0   1_565     S
Er15     Er14    10.0   1_655     S
Er15     Er14    10.0   1_545     S
Er15     Er13    10.0   1_655     S
Er15     Er19    10.0   1_556     S
Er15     Er20    10.0   1_546     S
Er15     Er17    10.0   1_656     S
Er15     Er16    10.0   .     S
Er15     Er16    10.0   1_545     S
Er15     V23    10.0   .     S
Er15     V21    10.0   1_655     S
Er15     V22    10.0   1_655     S
Er16     Er13    10.0   1_665     S
Er16     Er14    10.0   1_655     S
Er16     Er20    10.0   1_556     S
Er16     Er19    10.0   1_556     S
Er16     Er18    10.0   1_656     S
Er16     Er15    10.0   1_565     S
Er16     V24    10.0   .     S
Er16     V22    10.0   1_655     S
Er16     V21    10.0   1_665     S
Er17     Er20    10.0   .     S
Er17     Er20    10.0   1_445     S
Er17     Er18    10.0   1_545     S
Er17     Er18    10.0   .     S
Er17     Er13    10.0   1_554     S
Er17     Er14    10.0   1_554     S
Er17     Er15    10.0   1_454     S
Er17     Er19    10.0   .     S
Er17     Er19    10.0   1_455     S
Er18     V9    10.0   1_565     S
Er18     V11    10.0   1_565     S
Er18     Er19    10.0   1_565     S
Er18     Er19    10.0   1_455     S
Er18     Er17    10.0   1_565     S
Er18     Er14    10.0   1_554     S
Er18     Er13    10.0   1_564     S
Er18     Er16    10.0   1_454     S
Er18     Er20    10.0   .     S
Er18     Er20    10.0   1_455     S
Er19     V10    10.0   1_655     S
Er19     Er18    10.0   1_545     S
Er19     Er18    10.0   1_655     S
Er19     Er20    10.0   1_545     S
Er19     Er20    10.0   .     S
Er19     Er15    10.0   1_554     S
Er19     Er16    10.0   1_554     S
Er19     Er13    10.0   1_554     S
Er19     Er17    10.0   1_655     S
Er20     V11    10.0   1_565     S
Er20     V9    10.0   1_665     S
Er20     Er17    10.0   1_665     S
Er20     Er19    10.0   1_565     S
Er20     Er16    10.0   1_554     S
Er20     Er15    10.0   1_564     S
Er20     Er14    10.0   1_554     S
Er20     Er18    10.0   1_655     S
V21     V23    10.0   .     S
V21     V23    10.0   1_455     S
V21     V24    10.0   .     S
V21     V24    10.0   1_445     S
V21     Er15    10.0   1_455     S
V21     V22    10.0   .     S
V21     V22    10.0   1_545     S
V21     Er16    10.0   1_445     S
V21     Er8    10.0   1_445     S
V21     Er7    10.0   1_455     S
V22     V24    10.0   .     S
V22     V24    10.0   1_455     S
V22     V23    10.0   1_565     S
V22     V23    10.0   1_455     S
V22     Er16    10.0   1_455     S
V22     V21    10.0   1_565     S
V22     Er15    10.0   1_455     S
V22     Er7    10.0   1_455     S
V22     Er8    10.0   1_455     S
V23     V21    10.0   1_655     S
V23     V22    10.0   1_545     S
V23     V22    10.0   1_655     S
V23     V24    10.0   .     S
V23     V24    10.0   1_545     S
V23     Er14    10.0   1_545     S
V23     Er6    10.0   1_545     S
V24     V22    10.0   1_655     S
V24     V21    10.0   1_665     S
V24     V23    10.0   1_565     S
