data_tcm
_audit_creation_date              2020-02-02
_audit_creation_method            'Pymatgen'
_symmetry_space_group_name_H-M    'P1'
_symmetry_Int_Tables_number       1
loop_
_symmetry_equiv_pos_as_xyz
  x,y,z
_cell_length_a                    20.0
_cell_length_b                    20.0
_cell_length_c                    97.9805
_cell_angle_alpha                 90.0
_cell_angle_beta                 90.0
_cell_angle_gamma                 120.0
loop_
_atom_site_label
_atom_site_type_symbol
_atom_site_fract_x
_atom_site_fract_y
_atom_site_fract_z
Er1     Er     0.1667   0.3333   0.7917
Er2     Er     0.1667   0.8333   0.7917
Er3     Er     0.6667   0.3333   0.7917
Er4     Er     0.6667   0.8333   0.7917
Er5     Er     0.0   0.0   0.875
Er6     Er     0.0   0.5   0.875
Er7     Er     0.5   0.0   0.875
Er8     Er     0.5   0.5   0.875
V9     V     0.0   0.0   0.7083
V10     V     0.0   0.5   0.7083
V11     V     0.5   0.0   0.7083
V12     V     0.5   0.5   0.7083
V13     V     0.3333   0.1667   0.625
V14     V     0.3333   0.6667   0.625
V15     V     0.8333   0.1667   0.625
V16     V     0.8333   0.6667   0.625
Er17     Er     0.3333   0.1667   0.4583
Er18     Er     0.3333   0.6667   0.4583
Er19     Er     0.8333   0.1667   0.4583
Er20     Er     0.8333   0.6667   0.4583
Er21     Er     0.1667   0.3333   0.5417
Er22     Er     0.1667   0.8333   0.5417
Er23     Er     0.6667   0.3333   0.5417
Er24     Er     0.6667   0.8333   0.5417
V25     V     0.1667   0.3333   0.375
V26     V     0.1667   0.8333   0.375
V27     V     0.6667   0.3333   0.375
V28     V     0.6667   0.8333   0.375
V29     V     0.0   0.0   0.2917
V30     V     0.0   0.5   0.2917
V31     V     0.5   0.0   0.2917
V32     V     0.5   0.5   0.2917
Er33     Er     0.3333   0.1667   0.2083
Er34     Er     0.3333   0.6667   0.2083
Er35     Er     0.8333   0.1667   0.2083
Er36     Er     0.8333   0.6667   0.2083
Er37     Er     0.0   0.0   0.125
Er38     Er     0.0   0.5   0.125
Er39     Er     0.5   0.0   0.125
Er40     Er     0.5   0.5   0.125
V41     V     0.3333   0.1667   0.0417
V42     V     0.3333   0.6667   0.0417
V43     V     0.8333   0.1667   0.0417
V44     V     0.8333   0.6667   0.0417
V45     V     0.1667   0.3333   0.9583
V46     V     0.1667   0.8333   0.9583
V47     V     0.6667   0.3333   0.9583
V48     V     0.6667   0.8333   0.9583
loop_
_geom_bond_atom_site_label_1
_geom_bond_atom_site_label_2
_geom_bond_distance
_geom_bond_site_symmetry_2
_ccdc_geom_bond_type
Er1     Er5    10.0   .     S
Er1     Er2    10.0   1_545     S
Er1     Er2    10.0   .     S
Er1     Er8    10.0   .     S
Er1     Er6    10.0   .     S
Er1     Er3    10.0   .     S
Er1     Er3    10.0   1_455     S
Er1     Er4    10.0   .     S
Er1     Er4    10.0   1_445     S
Er1     V9    10.0   .     S
Er1     V10    10.0   .     S
Er1     V12    10.0   .     S
Er2     Er6    10.0   .     S
Er2     Er1    10.0   1_565     S
Er2     Er7    10.0   1_565     S
Er2     Er5    10.0   1_565     S
Er2     Er4    10.0   .     S
Er2     Er4    10.0   1_455     S
Er2     Er3    10.0   1_565     S
Er2     Er3    10.0   1_455     S
Er2     V10    10.0   .     S
Er2     V9    10.0   1_565     S
Er2     V11    10.0   1_565     S
Er3     Er7    10.0   .     S
Er3     Er4    10.0   1_545     S
Er3     Er4    10.0   .     S
Er3     Er6    10.0   1_655     S
Er3     Er8    10.0   .     S
Er3     Er1    10.0   1_655     S
Er3     Er2    10.0   1_545     S
Er3     Er2    10.0   1_655     S
Er3     V11    10.0   .     S
Er3     V12    10.0   .     S
Er3     V10    10.0   1_655     S
Er4     Er8    10.0   .     S
Er4     Er3    10.0   1_565     S
Er4     Er5    10.0   1_665     S
Er4     Er7    10.0   1_565     S
Er4     Er2    10.0   1_655     S
Er4     Er1    10.0   1_665     S
Er4     V12    10.0   .     S
Er4     V11    10.0   1_565     S
Er4     V9    10.0   1_665     S
Er5     Er6    10.0   .     S
Er5     Er6    10.0   1_545     S
Er5     Er4    10.0   1_445     S
Er5     Er7    10.0   .     S
Er5     Er7    10.0   1_455     S
Er5     Er2    10.0   1_545     S
Er5     Er8    10.0   .     S
Er5     Er8    10.0   1_445     S
Er5     V46    10.0   1_545     S
Er5     V45    10.0   .     S
Er5     V48    10.0   1_445     S
Er6     Er5    10.0   1_565     S
Er6     Er3    10.0   1_455     S
Er6     Er8    10.0   .     S
Er6     Er8    10.0   1_455     S
Er6     Er7    10.0   1_565     S
Er6     Er7    10.0   1_455     S
Er6     V45    10.0   .     S
Er6     V46    10.0   .     S
Er6     V47    10.0   1_455     S
Er7     Er8    10.0   .     S
Er7     Er8    10.0   1_545     S
Er7     Er2    10.0   1_545     S
Er7     Er5    10.0   1_655     S
Er7     Er4    10.0   1_545     S
Er7     Er6    10.0   1_545     S
Er7     Er6    10.0   1_655     S
Er7     V48    10.0   1_545     S
Er7     V47    10.0   .     S
Er7     V46    10.0   1_545     S
Er8     Er7    10.0   1_565     S
Er8     Er6    10.0   1_655     S
Er8     Er5    10.0   1_665     S
Er8     V47    10.0   .     S
Er8     V48    10.0   .     S
Er8     V45    10.0   .     S
V9     Er2    10.0   1_545     S
V9     Er4    10.0   1_445     S
V9     V16    10.0   1_445     S
V9     V12    10.0   .     S
V9     V12    10.0   1_445     S
V9     V15    10.0   1_455     S
V9     V13    10.0   .     S
V9     V11    10.0   .     S
V9     V11    10.0   1_455     S
V9     V10    10.0   .     S
V9     V10    10.0   1_545     S
V10     Er3    10.0   1_455     S
V10     V15    10.0   1_455     S
V10     V11    10.0   1_565     S
V10     V11    10.0   1_455     S
V10     V16    10.0   1_455     S
V10     V14    10.0   .     S
V10     V12    10.0   .     S
V10     V12    10.0   1_455     S
V10     V9    10.0   1_565     S
V11     Er4    10.0   1_545     S
V11     Er2    10.0   1_545     S
V11     V14    10.0   1_545     S
V11     V10    10.0   1_545     S
V11     V10    10.0   1_655     S
V11     V13    10.0   .     S
V11     V15    10.0   .     S
V11     V9    10.0   1_655     S
V11     V12    10.0   .     S
V11     V12    10.0   1_545     S
V12     V13    10.0   .     S
V12     V9    10.0   1_665     S
V12     V14    10.0   .     S
V12     V16    10.0   .     S
V12     V10    10.0   1_655     S
V12     V11    10.0   1_565     S
V13     V14    10.0   .     S
V13     V14    10.0   1_545     S
V13     V16    10.0   1_445     S
V13     V16    10.0   .     S
V13     V15    10.0   1_455     S
V13     V15    10.0   .     S
V13     Er23    10.0   .     S
V13     Er22    10.0   1_545     S
V13     Er21    10.0   .     S
V14     V11    10.0   1_565     S
V14     V13    10.0   1_565     S
V14     V15    10.0   1_455     S
V14     V15    10.0   1_565     S
V14     V16    10.0   1_455     S
V14     V16    10.0   .     S
V14     Er24    10.0   .     S
V14     Er21    10.0   .     S
V14     Er22    10.0   .     S
V15     V10    10.0   1_655     S
V15     V9    10.0   1_655     S
V15     V16    10.0   .     S
V15     V16    10.0   1_545     S
V15     V14    10.0   1_655     S
V15     V14    10.0   1_545     S
V15     V13    10.0   1_655     S
V15     Er21    10.0   1_655     S
V15     Er24    10.0   1_545     S
V15     Er23    10.0   .     S
V16     V9    10.0   1_665     S
V16     V10    10.0   1_655     S
V16     V15    10.0   1_565     S
V16     V13    10.0   1_665     S
V16     V14    10.0   1_655     S
V16     Er22    10.0   1_655     S
V16     Er23    10.0   .     S
V16     Er24    10.0   .     S
Er17     Er23    10.0   .     S
Er17     Er22    10.0   1_545     S
Er17     Er20    10.0   1_445     S
Er17     Er20    10.0   .     S
Er17     Er21    10.0   .     S
Er17     Er18    10.0   .     S
Er17     Er18    10.0   1_545     S
Er17     Er19    10.0   1_455     S
Er17     Er19    10.0   .     S
Er17     V26    10.0   1_545     S
Er17     V27    10.0   .     S
Er17     V25    10.0   .     S
Er18     Er24    10.0   .     S
Er18     Er21    10.0   .     S
Er18     Er19    10.0   1_455     S
Er18     Er19    10.0   1_565     S
Er18     Er22    10.0   .     S
Er18     Er17    10.0   1_565     S
Er18     Er20    10.0   1_455     S
Er18     Er20    10.0   .     S
Er18     V25    10.0   .     S
Er18     V28    10.0   .     S
Er18     V26    10.0   .     S
Er19     Er21    10.0   1_655     S
Er19     Er24    10.0   1_545     S
Er19     Er18    10.0   1_655     S
Er19     Er18    10.0   1_545     S
Er19     Er23    10.0   .     S
Er19     Er20    10.0   .     S
Er19     Er20    10.0   1_545     S
Er19     Er17    10.0   1_655     S
Er19     V28    10.0   1_545     S
Er19     V25    10.0   1_655     S
Er19     V27    10.0   .     S
Er20     Er22    10.0   1_655     S
Er20     Er23    10.0   .     S
Er20     Er17    10.0   1_665     S
Er20     Er24    10.0   .     S
Er20     Er19    10.0   1_565     S
Er20     Er18    10.0   1_655     S
Er20     V27    10.0   .     S
Er20     V26    10.0   1_655     S
Er20     V28    10.0   .     S
Er21     V15    10.0   1_455     S
Er21     Er19    10.0   1_455     S
Er21     Er24    10.0   .     S
Er21     Er24    10.0   1_445     S
Er21     Er23    10.0   .     S
Er21     Er23    10.0   1_455     S
Er21     Er22    10.0   1_545     S
Er21     Er22    10.0   .     S
Er22     V16    10.0   1_455     S
Er22     V13    10.0   1_565     S
Er22     Er20    10.0   1_455     S
Er22     Er17    10.0   1_565     S
Er22     Er23    10.0   1_565     S
Er22     Er23    10.0   1_455     S
Er22     Er24    10.0   .     S
Er22     Er24    10.0   1_455     S
Er22     Er21    10.0   1_565     S
Er23     Er22    10.0   1_545     S
Er23     Er22    10.0   1_655     S
Er23     Er21    10.0   1_655     S
Er23     Er24    10.0   1_545     S
Er23     Er24    10.0   .     S
Er24     V15    10.0   1_565     S
Er24     Er19    10.0   1_565     S
Er24     Er21    10.0   1_665     S
Er24     Er22    10.0   1_655     S
Er24     Er23    10.0   1_565     S
V25     V29    10.0   .     S
V25     V26    10.0   1_545     S
V25     V26    10.0   .     S
V25     V32    10.0   .     S
V25     V30    10.0   .     S
V25     V27    10.0   .     S
V25     V27    10.0   1_455     S
V25     V28    10.0   .     S
V25     V28    10.0   1_445     S
V25     Er19    10.0   1_455     S
V26     V30    10.0   .     S
V26     V25    10.0   1_565     S
V26     V31    10.0   1_565     S
V26     V29    10.0   1_565     S
V26     V28    10.0   .     S
V26     V28    10.0   1_455     S
V26     V27    10.0   1_565     S
V26     V27    10.0   1_455     S
V26     Er17    10.0   1_565     S
V26     Er20    10.0   1_455     S
V27     V31    10.0   .     S
V27     V28    10.0   1_545     S
V27     V28    10.0   .     S
V27     V30    10.0   1_655     S
V27     V32    10.0   .     S
V27     V25    10.0   1_655     S
V27     V26    10.0   1_545     S
V27     V26    10.0   1_655     S
V28     V32    10.0   .     S
V28     V27    10.0   1_565     S
V28     V29    10.0   1_665     S
V28     V31    10.0   1_565     S
V28     V26    10.0   1_655     S
V28     V25    10.0   1_665     S
V28     Er19    10.0   1_565     S
V29     Er35    10.0   1_455     S
V29     Er33    10.0   .     S
V29     Er36    10.0   1_445     S
V29     V28    10.0   1_445     S
V29     V26    10.0   1_545     S
V29     V30    10.0   .     S
V29     V30    10.0   1_545     S
V29     V32    10.0   .     S
V29     V32    10.0   1_445     S
V29     V31    10.0   .     S
V29     V31    10.0   1_455     S
V30     Er36    10.0   1_455     S
V30     Er34    10.0   .     S
V30     Er35    10.0   1_455     S
V30     V27    10.0   1_455     S
V30     V29    10.0   1_565     S
V30     V31    10.0   1_565     S
V30     V31    10.0   1_455     S
V30     V32    10.0   .     S
V30     V32    10.0   1_455     S
V31     Er33    10.0   .     S
V31     Er35    10.0   .     S
V31     Er34    10.0   1_545     S
V31     V26    10.0   1_545     S
V31     V28    10.0   1_545     S
V31     V32    10.0   .     S
V31     V32    10.0   1_545     S
V31     V30    10.0   1_545     S
V31     V30    10.0   1_655     S
V31     V29    10.0   1_655     S
V32     Er34    10.0   .     S
V32     Er36    10.0   .     S
V32     Er33    10.0   .     S
V32     V31    10.0   1_565     S
V32     V29    10.0   1_665     S
V32     V30    10.0   1_655     S
Er33     Er40    10.0   .     S
Er33     Er39    10.0   .     S
Er33     Er37    10.0   .     S
Er33     Er35    10.0   1_455     S
Er33     Er35    10.0   .     S
Er33     Er34    10.0   .     S
Er33     Er34    10.0   1_545     S
Er33     Er36    10.0   1_445     S
Er33     Er36    10.0   .     S
Er34     V31    10.0   1_565     S
Er34     Er39    10.0   1_565     S
Er34     Er40    10.0   .     S
Er34     Er38    10.0   .     S
Er34     Er36    10.0   1_455     S
Er34     Er36    10.0   .     S
Er34     Er33    10.0   1_565     S
Er34     Er35    10.0   1_455     S
Er34     Er35    10.0   1_565     S
Er35     V29    10.0   1_655     S
Er35     V30    10.0   1_655     S
Er35     Er38    10.0   1_655     S
Er35     Er37    10.0   1_655     S
Er35     Er39    10.0   .     S
Er35     Er33    10.0   1_655     S
Er35     Er36    10.0   .     S
Er35     Er36    10.0   1_545     S
Er35     Er34    10.0   1_655     S
Er35     Er34    10.0   1_545     S
Er36     V30    10.0   1_655     S
Er36     V29    10.0   1_665     S
Er36     Er37    10.0   1_665     S
Er36     Er38    10.0   1_655     S
Er36     Er40    10.0   .     S
Er36     Er34    10.0   1_655     S
Er36     Er35    10.0   1_565     S
Er36     Er33    10.0   1_665     S
Er37     Er36    10.0   1_445     S
Er37     Er38    10.0   .     S
Er37     Er38    10.0   1_545     S
Er37     Er35    10.0   1_455     S
Er37     Er39    10.0   .     S
Er37     Er39    10.0   1_455     S
Er37     Er40    10.0   .     S
Er37     Er40    10.0   1_445     S
Er37     V43    10.0   1_455     S
Er37     V41    10.0   .     S
Er37     V44    10.0   1_445     S
Er38     Er35    10.0   1_455     S
Er38     Er37    10.0   1_565     S
Er38     Er36    10.0   1_455     S
Er38     Er40    10.0   .     S
Er38     Er40    10.0   1_455     S
Er38     Er39    10.0   1_565     S
Er38     Er39    10.0   1_455     S
Er38     V44    10.0   1_455     S
Er38     V42    10.0   .     S
Er38     V43    10.0   1_455     S
Er39     Er34    10.0   1_545     S
Er39     Er40    10.0   .     S
Er39     Er40    10.0   1_545     S
Er39     Er37    10.0   1_655     S
Er39     Er38    10.0   1_545     S
Er39     Er38    10.0   1_655     S
Er39     V41    10.0   .     S
Er39     V43    10.0   .     S
Er39     V42    10.0   1_545     S
Er40     Er39    10.0   1_565     S
Er40     Er38    10.0   1_655     S
Er40     Er37    10.0   1_665     S
Er40     V42    10.0   .     S
Er40     V44    10.0   .     S
Er40     V41    10.0   .     S
V41     V47    10.0   1_554     S
V41     V45    10.0   1_554     S
V41     V43    10.0   1_455     S
V41     V43    10.0   .     S
V41     V46    10.0   1_544     S
V41     V42    10.0   .     S
V41     V42    10.0   1_545     S
V41     V44    10.0   1_445     S
V41     V44    10.0   .     S
V42     Er39    10.0   1_565     S
V42     V48    10.0   1_554     S
V42     V46    10.0   1_554     S
V42     V44    10.0   1_455     S
V42     V44    10.0   .     S
V42     V45    10.0   1_554     S
V42     V41    10.0   1_565     S
V42     V43    10.0   1_455     S
V42     V43    10.0   1_565     S
V43     Er37    10.0   1_655     S
V43     Er38    10.0   1_655     S
V43     V45    10.0   1_654     S
V43     V47    10.0   1_554     S
V43     V41    10.0   1_655     S
V43     V48    10.0   1_544     S
V43     V44    10.0   .     S
V43     V44    10.0   1_545     S
V43     V42    10.0   1_655     S
V43     V42    10.0   1_545     S
V44     Er38    10.0   1_655     S
V44     Er37    10.0   1_665     S
V44     V46    10.0   1_654     S
V44     V48    10.0   1_554     S
V44     V42    10.0   1_655     S
V44     V47    10.0   1_554     S
V44     V43    10.0   1_565     S
V44     V41    10.0   1_665     S
V45     V43    10.0   1_456     S
V45     V41    10.0   1_556     S
V45     V42    10.0   1_556     S
V45     V46    10.0   1_545     S
V45     V46    10.0   .     S
V45     V47    10.0   .     S
V45     V47    10.0   1_455     S
V45     V48    10.0   .     S
V45     V48    10.0   1_445     S
V46     V44    10.0   1_456     S
V46     V42    10.0   1_556     S
V46     V41    10.0   1_566     S
V46     V45    10.0   1_565     S
V46     V48    10.0   .     S
V46     V48    10.0   1_455     S
V46     V47    10.0   1_565     S
V46     V47    10.0   1_455     S
V46     Er5    10.0   1_565     S
V46     Er7    10.0   1_565     S
V47     V41    10.0   1_556     S
V47     V43    10.0   1_556     S
V47     V44    10.0   1_556     S
V47     V48    10.0   1_545     S
V47     V48    10.0   .     S
V47     V45    10.0   1_655     S
V47     V46    10.0   1_545     S
V47     V46    10.0   1_655     S
V47     Er6    10.0   1_655     S
V48     V42    10.0   1_556     S
V48     V44    10.0   1_556     S
V48     V43    10.0   1_566     S
V48     V47    10.0   1_565     S
V48     V46    10.0   1_655     S
V48     V45    10.0   1_665     S
V48     Er7    10.0   1_565     S
V48     Er5    10.0   1_665     S
