data_tdc
_audit_creation_date              2020-02-02
_audit_creation_method            'Pymatgen'
_symmetry_space_group_name_H-M    'P1'
_symmetry_Int_Tables_number       1
loop_
_symmetry_equiv_pos_as_xyz
  x,y,z
_cell_length_a                    92.7017
_cell_length_b                    92.7017
_cell_length_c                    28.5073
_cell_angle_alpha                 90.0
_cell_angle_beta                 90.0
_cell_angle_gamma                 120.0
loop_
_atom_site_label
_atom_site_type_symbol
_atom_site_fract_x
_atom_site_fract_y
_atom_site_fract_z
Er1     Er     0.4976   0.8873   0.3246
Er2     Er     0.3897   0.8873   0.3246
Er3     Er     0.4976   0.8873   0.6754
Er4     Er     0.3897   0.8873   0.6754
Er5     Er     0.3897   0.5024   0.3246
Er6     Er     0.4976   0.6103   0.3246
Er7     Er     0.3897   0.5024   0.6754
Er8     Er     0.4976   0.6103   0.6754
Ti9     Ti     0.2255   0.5588   0.1754
Ti10     Ti     0.2255   0.5588   0.8246
Ti11     Ti     0.3333   0.5588   0.1754
Ti12     Ti     0.3333   0.5588   0.8246
Ti13     Ti     0.2255   0.6667   0.1754
Ti14     Ti     0.3333   0.7745   0.1754
Ti15     Ti     0.2255   0.6667   0.8246
Ti16     Ti     0.3333   0.7745   0.8246
Ti17     Ti     0.4412   0.7745   0.1754
Ti18     Ti     0.4412   0.7745   0.8246
Ti19     Ti     0.4412   0.6667   0.1754
Ti20     Ti     0.4412   0.6667   0.8246
Er21     Er     0.1127   0.5024   0.3246
Er22     Er     0.1127   0.6103   0.3246
Er23     Er     0.1127   0.5024   0.6754
Er24     Er     0.1127   0.6103   0.6754
Er25     Er     0.8873   0.4976   0.3246
Er26     Er     0.8873   0.3897   0.3246
Er27     Er     0.8873   0.4976   0.6754
Er28     Er     0.8873   0.3897   0.6754
V29     V     0.0   0.4461   0.8246
V30     V     0.0   0.4461   0.1754
V31     V     0.0   0.5539   0.8246
V32     V     0.0   0.5539   0.1754
V33     V     0.4461   0.0   0.8246
V34     V     0.4461   0.0   0.1754
V35     V     0.5539   0.0   0.8246
V36     V     0.5539   0.0   0.1754
Er37     Er     0.5024   0.1127   0.3246
Er38     Er     0.6103   0.1127   0.3246
Er39     Er     0.5024   0.1127   0.6754
Er40     Er     0.6103   0.1127   0.6754
V41     V     0.5539   0.5539   0.8246
V42     V     0.5539   0.5539   0.1754
V43     V     0.4461   0.4461   0.8246
V44     V     0.4461   0.4461   0.1754
Er45     Er     0.5024   0.3897   0.3246
Er46     Er     0.6103   0.4976   0.3246
Er47     Er     0.5024   0.3897   0.6754
Er48     Er     0.6103   0.4976   0.6754
Ti49     Ti     0.5588   0.2255   0.1754
Ti50     Ti     0.5588   0.2255   0.8246
Ti51     Ti     0.5588   0.3333   0.1754
Ti52     Ti     0.5588   0.3333   0.8246
Ti53     Ti     0.7745   0.3333   0.1754
Ti54     Ti     0.6667   0.2255   0.1754
Ti55     Ti     0.6667   0.2255   0.8246
Ti56     Ti     0.7745   0.3333   0.8246
Ti57     Ti     0.6667   0.4412   0.1754
Ti58     Ti     0.6667   0.4412   0.8246
Ti59     Ti     0.7745   0.4412   0.1754
Ti60     Ti     0.7745   0.4412   0.8246
loop_
_geom_bond_atom_site_label_1
_geom_bond_atom_site_label_2
_geom_bond_distance
_geom_bond_site_symmetry_2
_ccdc_geom_bond_type
Er1     Er2    10.0   .     S
Er1     V36    10.0   1_565     S
Er1     Er3    10.0   .     S
Er1     Ti17    10.0   .     S
Er2     V34    10.0   1_565     S
Er2     Er4    10.0   .     S
Er2     Ti14    10.0   .     S
Er3     Er4    10.0   .     S
Er3     V35    10.0   1_565     S
Er3     Ti18    10.0   .     S
Er4     V33    10.0   1_565     S
Er4     Ti16    10.0   .     S
Er5     Er6    10.0   .     S
Er5     V44    10.0   .     S
Er5     Er7    10.0   .     S
Er5     Ti11    10.0   .     S
Er6     V42    10.0   .     S
Er6     Er8    10.0   .     S
Er6     Ti19    10.0   .     S
Er7     Er8    10.0   .     S
Er7     V43    10.0   .     S
Er7     Ti12    10.0   .     S
Er8     V41    10.0   .     S
Er8     Ti20    10.0   .     S
Ti9     Er21    10.0   .     S
Ti9     Ti10    10.0   1_554     S
Ti9     Ti11    10.0   .     S
Ti9     Ti13    10.001   .     S
Ti10     Ti12    10.0   .     S
Ti10     Er23    10.0   .     S
Ti10     Ti9    10.0   1_556     S
Ti10     Ti15    10.001   .     S
Ti11     Ti12    10.0   1_554     S
Ti11     Ti19    10.001   .     S
Ti12     Ti11    10.0   1_556     S
Ti12     Ti20    10.001   .     S
Ti13     Ti14    10.0   .     S
Ti13     Er22    10.0   .     S
Ti13     Ti15    10.0   1_554     S
Ti14     Ti16    10.0   1_554     S
Ti14     Ti17    10.001   .     S
Ti15     Ti16    10.0   .     S
Ti15     Er24    10.0   .     S
Ti15     Ti13    10.0   1_556     S
Ti16     Ti14    10.0   1_556     S
Ti16     Ti18    10.001   .     S
Ti17     Ti19    10.0   .     S
Ti17     Ti18    10.0   1_554     S
Ti18     Ti17    10.0   1_556     S
Ti18     Ti20    10.0   .     S
Ti19     Ti20    10.0   1_554     S
Ti20     Ti19    10.0   1_556     S
Er21     Er22    10.0   .     S
Er21     V30    10.0   .     S
Er21     Er23    10.0   .     S
Er22     V32    10.0   .     S
Er22     Er24    10.0   .     S
Er23     Er24    10.0   .     S
Er23     V29    10.0   .     S
Er24     V31    10.0   .     S
Er25     Er26    10.0   .     S
Er25     V32    10.0   1_655     S
Er25     Er27    10.0   .     S
Er25     Ti59    10.0   .     S
Er26     V30    10.0   1_655     S
Er26     Er28    10.0   .     S
Er26     Ti53    10.0   .     S
Er27     Er28    10.0   .     S
Er27     V31    10.0   1_655     S
Er27     Ti60    10.0   .     S
Er28     V29    10.0   1_655     S
Er28     Ti56    10.0   .     S
V29     Er28    10.0   1_455     S
V29     V30    10.0   1_556     S
V29     V31    10.001   .     S
V30     Er26    10.0   1_455     S
V30     V29    10.0   1_554     S
V30     V32    10.001   .     S
V31     Er27    10.0   1_455     S
V31     V32    10.0   1_556     S
V32     Er25    10.0   1_455     S
V32     V31    10.0   1_554     S
V33     Er4    10.0   1_545     S
V33     V34    10.0   1_556     S
V33     V35    10.001   .     S
V33     Er39    10.0   .     S
V34     Er2    10.0   1_545     S
V34     V33    10.0   1_554     S
V34     V36    10.001   .     S
V34     Er37    10.0   .     S
V35     Er3    10.0   1_545     S
V35     V36    10.0   1_556     S
V35     Er40    10.0   .     S
V36     Er1    10.0   1_545     S
V36     V35    10.0   1_554     S
V36     Er38    10.0   .     S
Er37     Er38    10.0   .     S
Er37     Er39    10.0   .     S
Er37     Ti49    10.0   .     S
Er38     Er40    10.0   .     S
Er38     Ti54    10.0   .     S
Er39     Er40    10.0   .     S
Er39     Ti50    10.0   .     S
Er40     Ti55    10.0   .     S
V41     V42    10.0   1_556     S
V41     V43    10.001   .     S
V41     Er48    10.0   .     S
V42     V41    10.0   1_554     S
V42     V44    10.001   .     S
V42     Er46    10.0   .     S
V43     V44    10.0   1_556     S
V43     Er47    10.0   .     S
V44     V43    10.0   1_554     S
V44     Er45    10.0   .     S
Er45     Er46    10.0   .     S
Er45     Er47    10.0   .     S
Er45     Ti51    10.0   .     S
Er46     Er48    10.0   .     S
Er46     Ti57    10.0   .     S
Er47     Er48    10.0   .     S
Er47     Ti52    10.0   .     S
Er48     Ti58    10.0   .     S
Ti49     Ti51    10.0   .     S
Ti49     Ti50    10.0   1_554     S
Ti49     Ti54    10.001   .     S
Ti50     Ti49    10.0   1_556     S
Ti50     Ti52    10.0   .     S
Ti50     Ti55    10.001   .     S
Ti51     Ti52    10.0   1_554     S
Ti51     Ti57    10.001   .     S
Ti52     Ti51    10.0   1_556     S
Ti52     Ti58    10.001   .     S
Ti53     Ti54    10.0   .     S
Ti53     Ti56    10.0   1_554     S
Ti53     Ti59    10.001   .     S
Ti54     Ti55    10.0   1_554     S
Ti55     Ti56    10.0   .     S
Ti55     Ti54    10.0   1_556     S
Ti56     Ti53    10.0   1_556     S
Ti56     Ti60    10.001   .     S
Ti57     Ti59    10.0   .     S
Ti57     Ti58    10.0   1_554     S
Ti58     Ti57    10.0   1_556     S
Ti58     Ti60    10.0   .     S
Ti59     Ti60    10.0   1_554     S
Ti60     Ti59    10.0   1_556     S
