data_tdd
_audit_creation_date              2020-02-02
_audit_creation_method            'Pymatgen'
_symmetry_space_group_name_H-M    'P1'
_symmetry_Int_Tables_number       1
loop_
_symmetry_equiv_pos_as_xyz
  x,y,z
_cell_length_a                    125.379
_cell_length_b                    125.379
_cell_length_c                    27.9415
_cell_angle_alpha                 90.0
_cell_angle_beta                 90.0
_cell_angle_gamma                 120.0
loop_
_atom_site_label
_atom_site_type_symbol
_atom_site_fract_x
_atom_site_fract_y
_atom_site_fract_z
V1     V     0.4976   0.5821   0.179
V2     V     0.4178   0.5024   0.179
Ti3     Ti     0.4554   0.6244   0.321
Ti4     Ti     0.3756   0.5446   0.321
V5     V     0.4976   0.5821   0.821
Ti6     Ti     0.4554   0.6244   0.6789
Ti7     Ti     0.3756   0.5446   0.6789
V8     V     0.4178   0.5024   0.821
V9     V     0.5024   0.4178   0.179
Ti10     Ti     0.5446   0.3756   0.321
Ti11     Ti     0.6244   0.4554   0.321
V12     V     0.5821   0.4976   0.179
V13     V     0.5024   0.4178   0.821
Ti14     Ti     0.5446   0.3756   0.6789
Ti15     Ti     0.6244   0.4554   0.6789
V16     V     0.5821   0.4976   0.821
Er17     Er     0.4601   0.4601   0.321
Er18     Er     0.5399   0.5399   0.321
Er19     Er     0.4601   0.4601   0.6789
Er20     Er     0.5399   0.5399   0.6789
Ce21     Ce     0.7464   0.3333   0.179
Ce22     Ce     0.6667   0.2536   0.179
Ce23     Ce     0.7464   0.4131   0.179
Ce24     Ce     0.6667   0.4131   0.179
Ce25     Ce     0.5869   0.2536   0.179
Ce26     Ce     0.5869   0.3333   0.179
Ce27     Ce     0.5869   0.2536   0.821
Ce28     Ce     0.5869   0.3333   0.821
Ce29     Ce     0.7464   0.4131   0.821
Ce30     Ce     0.6667   0.4131   0.821
Ce31     Ce     0.7464   0.3333   0.821
Ce32     Ce     0.6667   0.2536   0.821
V33     V     0.9155   0.4178   0.179
V34     V     0.9155   0.4976   0.179
Ti35     Ti     0.831   0.3756   0.321
Ti36     Ti     0.831   0.4554   0.321
V37     V     0.9155   0.4976   0.821
V38     V     0.9155   0.4178   0.821
Ti39     Ti     0.831   0.3756   0.6789
Ti40     Ti     0.831   0.4554   0.6789
V41     V     0.0845   0.5024   0.179
Ti42     Ti     0.169   0.5446   0.321
Ti43     Ti     0.169   0.6244   0.321
V44     V     0.0845   0.5821   0.179
V45     V     0.0845   0.5024   0.821
Ti46     Ti     0.169   0.5446   0.6789
Ti47     Ti     0.169   0.6244   0.6789
V48     V     0.0845   0.5821   0.821
Er49     Er     0.0   0.4601   0.321
Er50     Er     0.0   0.5399   0.321
Er51     Er     0.0   0.5399   0.6789
Er52     Er     0.0   0.4601   0.6789
V53     V     0.5024   0.0845   0.179
Ti54     Ti     0.6244   0.169   0.321
Ti55     Ti     0.5446   0.169   0.321
V56     V     0.5821   0.0845   0.179
V57     V     0.5821   0.0845   0.821
Ti58     Ti     0.6244   0.169   0.6789
Ti59     Ti     0.5446   0.169   0.6789
V60     V     0.5024   0.0845   0.821
Ce61     Ce     0.2536   0.5869   0.179
Ce62     Ce     0.3333   0.5869   0.179
Ce63     Ce     0.4131   0.7464   0.179
Ce64     Ce     0.4131   0.6667   0.179
Ce65     Ce     0.2536   0.6667   0.179
Ce66     Ce     0.3333   0.7464   0.179
Ce67     Ce     0.2536   0.6667   0.821
Ce68     Ce     0.3333   0.7464   0.821
Ce69     Ce     0.4131   0.6667   0.821
Ce70     Ce     0.4131   0.7464   0.821
Ce71     Ce     0.2536   0.5869   0.821
Ce72     Ce     0.3333   0.5869   0.821
Er73     Er     0.4601   0.0   0.321
Er74     Er     0.5399   0.0   0.321
Er75     Er     0.4601   0.0   0.6789
Er76     Er     0.5399   0.0   0.6789
V77     V     0.4976   0.9155   0.179
V78     V     0.4178   0.9155   0.179
Ti79     Ti     0.3756   0.831   0.321
Ti80     Ti     0.4554   0.831   0.321
V81     V     0.4178   0.9155   0.821
Ti82     Ti     0.3756   0.831   0.6789
Ti83     Ti     0.4554   0.831   0.6789
V84     V     0.4976   0.9155   0.821
loop_
_geom_bond_atom_site_label_1
_geom_bond_atom_site_label_2
_geom_bond_distance
_geom_bond_site_symmetry_2
_ccdc_geom_bond_type
V1     V2    10.001   .     S
V1     Ti3    9.999   .     S
V1     V5    10.0   1_554     S
V1     Er18    10.0   .     S
V2     Ti4    9.999   .     S
V2     V8    10.0   1_554     S
V2     Er17    10.0   .     S
Ti3     Ti4    9.999   .     S
Ti3     Ce64    10.0   .     S
Ti3     Ti6    10.0   .     S
Ti4     Ce62    10.0   .     S
Ti4     Ti7    10.0   .     S
V5     V8    10.001   .     S
V5     Ti6    9.999   .     S
V5     V1    10.0   1_556     S
V5     Er20    10.0   .     S
Ti6     Ti7    9.999   .     S
Ti6     Ce69    10.0   .     S
Ti7     Ce72    10.0   .     S
Ti7     V8    9.999   .     S
V8     V2    10.0   1_556     S
V8     Er19    10.0   .     S
V9     V12    10.001   .     S
V9     Ti10    9.999   .     S
V9     V13    10.0   1_554     S
V9     Er17    10.0   .     S
Ti10     Ti11    9.999   .     S
Ti10     Ce26    10.0   .     S
Ti10     Ti14    10.0   .     S
Ti11     Ce24    10.0   .     S
Ti11     V12    9.999   .     S
Ti11     Ti15    10.0   .     S
V12     V16    10.0   1_554     S
V12     Er18    10.0   .     S
V13     V16    10.001   .     S
V13     Ti14    9.999   .     S
V13     V9    10.0   1_556     S
V13     Er19    10.0   .     S
Ti14     Ti15    9.999   .     S
Ti14     Ce28    10.0   .     S
Ti15     Ce30    10.0   .     S
Ti15     V16    9.999   .     S
V16     V12    10.0   1_556     S
V16     Er20    10.0   .     S
Er17     Er18    10.0   .     S
Er17     Er19    10.0   .     S
Er18     Er20    10.0   .     S
Er19     Er20    10.0   .     S
Ce21     Ce22    9.999   .     S
Ce21     Ce23    10.0   .     S
Ce21     Ce31    10.0   1_554     S
Ce21     Ti35    10.0   .     S
Ce22     Ce25    10.0   .     S
Ce22     Ce32    10.0   1_554     S
Ce22     Ti54    10.0   .     S
Ce23     Ce24    9.999   .     S
Ce23     Ce29    10.0   1_554     S
Ce23     Ti36    10.0   .     S
Ce24     Ce26    10.0   .     S
Ce24     Ce30    10.0   1_554     S
Ce25     Ce26    9.999   .     S
Ce25     Ce27    10.0   1_554     S
Ce25     Ti55    10.0   .     S
Ce26     Ce28    10.0   1_554     S
Ce27     Ce28    9.999   .     S
Ce27     Ce32    10.0   .     S
Ce27     Ce25    10.0   1_556     S
Ce27     Ti59    10.0   .     S
Ce28     Ce30    10.0   .     S
Ce28     Ce26    10.0   1_556     S
Ce29     Ce30    9.999   .     S
Ce29     Ce31    10.0   .     S
Ce29     Ce23    10.0   1_556     S
Ce29     Ti40    10.0   .     S
Ce30     Ce24    10.0   1_556     S
Ce31     Ce32    9.999   .     S
Ce31     Ce21    10.0   1_556     S
Ce31     Ti39    10.0   .     S
Ce32     Ce22    10.0   1_556     S
Ce32     Ti58    10.0   .     S
V33     V34    10.001   .     S
V33     Ti35    9.999   .     S
V33     V38    10.0   1_554     S
V33     Er49    10.0   1_655     S
V34     Ti36    9.999   .     S
V34     V37    10.0   1_554     S
V34     Er50    10.0   1_655     S
Ti35     Ti36    9.999   .     S
Ti35     Ti39    10.0   .     S
Ti36     Ti40    10.0   .     S
V37     V38    10.001   .     S
V37     Ti40    9.999   .     S
V37     V34    10.0   1_556     S
V37     Er51    10.0   1_655     S
V38     Ti39    9.999   .     S
V38     V33    10.0   1_556     S
V38     Er52    10.0   1_655     S
Ti39     Ti40    9.999   .     S
V41     V44    10.001   .     S
V41     Ti42    9.999   .     S
V41     V45    10.0   1_554     S
V41     Er49    10.0   .     S
Ti42     Ti43    9.999   .     S
Ti42     Ce61    10.0   .     S
Ti42     Ti46    10.0   .     S
Ti43     Ce65    10.0   .     S
Ti43     V44    9.999   .     S
Ti43     Ti47    10.0   .     S
V44     V48    10.0   1_554     S
V44     Er50    10.0   .     S
V45     V48    10.001   .     S
V45     Ti46    9.999   .     S
V45     V41    10.0   1_556     S
V45     Er52    10.0   .     S
Ti46     Ti47    9.999   .     S
Ti46     Ce71    10.0   .     S
Ti47     Ce67    10.0   .     S
Ti47     V48    9.999   .     S
V48     V44    10.0   1_556     S
V48     Er51    10.0   .     S
Er49     V33    10.0   1_455     S
Er49     Er50    10.0   .     S
Er49     Er52    10.0   .     S
Er50     V34    10.0   1_455     S
Er50     Er51    10.0   .     S
Er51     V37    10.0   1_455     S
Er51     Er52    10.0   .     S
Er52     V38    10.0   1_455     S
V53     V56    10.001   .     S
V53     Ti55    9.999   .     S
V53     V60    10.0   1_554     S
V53     Er73    10.0   .     S
Ti54     Ti55    9.999   .     S
Ti54     V56    9.999   .     S
Ti54     Ti58    10.0   .     S
Ti55     Ti59    10.0   .     S
V56     V57    10.0   1_554     S
V56     Er74    10.0   .     S
V57     V60    10.001   .     S
V57     Ti58    9.999   .     S
V57     V56    10.0   1_556     S
V57     Er76    10.0   .     S
Ti58     Ti59    9.999   .     S
Ti59     V60    9.999   .     S
V60     V53    10.0   1_556     S
V60     Er75    10.0   .     S
Ce61     Ce62    9.999   .     S
Ce61     Ce65    10.0   .     S
Ce61     Ce71    10.0   1_554     S
Ce62     Ce64    10.0   .     S
Ce62     Ce72    10.0   1_554     S
Ce63     Ce64    9.999   .     S
Ce63     Ce66    10.0   .     S
Ce63     Ce70    10.0   1_554     S
Ce63     Ti80    10.0   .     S
Ce64     Ce69    10.0   1_554     S
Ce65     Ce66    9.999   .     S
Ce65     Ce67    10.0   1_554     S
Ce66     Ce68    10.0   1_554     S
Ce66     Ti79    10.0   .     S
Ce67     Ce68    9.999   .     S
Ce67     Ce71    10.0   .     S
Ce67     Ce65    10.0   1_556     S
Ce68     Ce70    10.0   .     S
Ce68     Ce66    10.0   1_556     S
Ce68     Ti82    10.0   .     S
Ce69     Ce70    9.999   .     S
Ce69     Ce72    10.0   .     S
Ce69     Ce64    10.0   1_556     S
Ce70     Ce63    10.0   1_556     S
Ce70     Ti83    10.0   .     S
Ce71     Ce72    9.999   .     S
Ce71     Ce61    10.0   1_556     S
Ce72     Ce62    10.0   1_556     S
Er73     V78    10.0   1_545     S
Er73     Er74    10.0   .     S
Er73     Er75    10.0   .     S
Er74     V77    10.0   1_545     S
Er74     Er76    10.0   .     S
Er75     V81    10.0   1_545     S
Er75     Er76    10.0   .     S
Er76     V84    10.0   1_545     S
V77     Er74    10.0   1_565     S
V77     V78    10.001   .     S
V77     Ti80    9.999   .     S
V77     V84    10.0   1_554     S
V78     Er73    10.0   1_565     S
V78     Ti79    9.999   .     S
V78     V81    10.0   1_554     S
Ti79     Ti80    9.999   .     S
Ti79     Ti82    10.0   .     S
Ti80     Ti83    10.0   .     S
V81     Er75    10.0   1_565     S
V81     V84    10.001   .     S
V81     Ti82    9.999   .     S
V81     V78    10.0   1_556     S
Ti82     Ti83    9.999   .     S
Ti83     V84    9.999   .     S
V84     Er76    10.0   1_565     S
V84     V77    10.0   1_556     S
