data_ten
_audit_creation_date              2020-02-02
_audit_creation_method            'Pymatgen'
_symmetry_space_group_name_H-M    'P1'
_symmetry_Int_Tables_number       1
loop_
_symmetry_equiv_pos_as_xyz
  x,y,z
_cell_length_a                    16.8485
_cell_length_b                    16.8485
_cell_length_c                    16.8485
_cell_angle_alpha                 90.0
_cell_angle_beta                 90.0
_cell_angle_gamma                 90.0
loop_
_atom_site_label
_atom_site_type_symbol
_atom_site_fract_x
_atom_site_fract_y
_atom_site_fract_z
V1     V     0.7048   0.1599   0.75
V2     V     0.75   0.2952   0.8401
V3     V     0.8401   0.25   0.7048
V4     V     0.1599   0.75   0.7048
V5     V     0.2952   0.8401   0.75
V6     V     0.25   0.7048   0.8401
V7     V     0.1599   0.25   0.2952
V8     V     0.2952   0.1599   0.25
V9     V     0.25   0.2952   0.1599
V10     V     0.8401   0.75   0.2952
V11     V     0.75   0.7048   0.1599
V12     V     0.7048   0.8401   0.25
V13     V     0.6599   0.25   0.2048
V14     V     0.75   0.2048   0.3401
V15     V     0.7952   0.3401   0.25
V16     V     0.2048   0.3401   0.75
V17     V     0.25   0.2048   0.6599
V18     V     0.3401   0.25   0.7952
V19     V     0.3401   0.75   0.2048
V20     V     0.2048   0.6599   0.25
V21     V     0.25   0.7952   0.3401
V22     V     0.6599   0.75   0.7952
V23     V     0.7952   0.6599   0.75
V24     V     0.75   0.7952   0.6599
loop_
_geom_bond_atom_site_label_1
_geom_bond_atom_site_label_2
_geom_bond_distance
_geom_bond_site_symmetry_2
_ccdc_geom_bond_type
V1     V22    10.0   .     S
V1     V14    10.0   1_556     S
V1     V12    10.0   1_546     S
V1     V12    10.0   1_545     S
V2     V15    10.0   .     S
V2     V18    10.0   1_655     S
V2     V9    10.0   1_656     S
V2     V9    10.0   1_556     S
V3     V17    10.0   .     S
V3     V23    10.0   1_545     S
V3     V4    10.0   1_645     S
V3     V4    10.0   1_655     S
V4     V24    10.0   .     S
V4     V16    10.0   1_565     S
V4     V3    10.0   1_465     S
V4     V3    10.0   1_455     S
V5     V18    10.0   .     S
V5     V21    10.0   1_556     S
V5     V8    10.0   1_566     S
V5     V8    10.0   1_565     S
V6     V20    10.0   .     S
V6     V22    10.0   1_455     S
V6     V11    10.0   1_456     S
V6     V11    10.0   1_556     S
V7     V14    10.0   .     S
V7     V10    10.0   1_445     S
V7     V20    10.0   1_545     S
V7     V10    10.0   1_455     S
V8     V19    10.0   .     S
V8     V17    10.0   1_554     S
V8     V5    10.0   1_544     S
V8     V5    10.0   1_545     S
V9     V16    10.0   .     S
V9     V13    10.0   1_455     S
V9     V2    10.0   1_454     S
V9     V2    10.0   1_554     S
V10     V21    10.0   .     S
V10     V15    10.0   1_565     S
V10     V7    10.0   1_665     S
V10     V7    10.0   1_655     S
V11     V23    10.0   .     S
V11     V19    10.0   1_655     S
V11     V6    10.0   1_654     S
V11     V6    10.0   1_554     S
V12     V13    10.0   .     S
V12     V24    10.0   1_554     S
V12     V1    10.0   1_564     S
V12     V1    10.0   1_565     S
V13     V19    10.0   .     S
V13     V9    10.0   1_655     S
V13     V19    10.0   1_545     S
V14     V17    10.0   .     S
V14     V1    10.0   1_554     S
V14     V17    10.0   1_655     S
V15     V23    10.0   .     S
V15     V10    10.0   1_545     S
V15     V23    10.0   1_554     S
V16     V20    10.0   .     S
V16     V4    10.0   1_545     S
V16     V20    10.0   1_556     S
V17     V8    10.0   1_556     S
V17     V14    10.0   1_455     S
V18     V22    10.0   .     S
V18     V2    10.0   1_455     S
V18     V22    10.0   1_545     S
V19     V11    10.0   1_455     S
V19     V13    10.0   1_565     S
V20     V7    10.0   1_565     S
V20     V16    10.0   1_554     S
V21     V24    10.0   .     S
V21     V5    10.0   1_554     S
V21     V24    10.0   1_455     S
V22     V6    10.0   1_655     S
V22     V18    10.0   1_565     S
V23     V3    10.0   1_565     S
V23     V15    10.0   1_556     S
V24     V12    10.0   1_556     S
V24     V21    10.0   1_655     S
