data_tfce
_audit_creation_date              2020-02-02
_audit_creation_method            'Pymatgen'
_symmetry_space_group_name_H-M    'P1'
_symmetry_Int_Tables_number       1
loop_
_symmetry_equiv_pos_as_xyz
  x,y,z
_cell_length_a                    55.5507
_cell_length_b                    19.9999
_cell_length_c                    17.0499
_cell_angle_alpha                 90.0
_cell_angle_beta                 90.0
_cell_angle_gamma                 90.0
loop_
_atom_site_label
_atom_site_type_symbol
_atom_site_fract_x
_atom_site_fract_y
_atom_site_fract_z
Ti1     Ti     0.5941   0.5   0.5
V2     V     0.5   0.5   0.0
Ti3     Ti     0.4059   0.5   0.5
Er4     Er     0.25   0.75   0.5
Er5     Er     0.25   0.25   0.5
Er6     Er     0.75   0.75   0.5
Er7     Er     0.75   0.25   0.5
Ti8     Ti     0.0941   0.0   0.5
V9     V     0.0   0.0   0.0
Ti10     Ti     0.9059   0.0   0.5
loop_
_geom_bond_atom_site_label_1
_geom_bond_atom_site_label_2
_geom_bond_distance
_geom_bond_site_symmetry_2
_ccdc_geom_bond_type
Ti1     V2    10.0   .     S
Ti1     V2    10.0   1_556     S
Ti1     Er7    10.0   .     S
Ti1     Er6    10.0   .     S
V2     Ti1    10.0   1_554     S
V2     Ti3    10.0   .     S
V2     Ti3    10.0   1_554     S
Ti3     Er4    10.0   .     S
Ti3     Er5    10.0   .     S
Ti3     V2    10.0   1_556     S
Er4     Ti8    10.0   1_565     S
Er4     Er5    10.0   1_565     S
Er4     Er5    10.0   .     S
Er5     Ti8    10.0   .     S
Er5     Er4    10.0   1_545     S
Er6     Er7    10.0   1_565     S
Er6     Er7    10.0   .     S
Er6     Ti10    10.0   1_565     S
Er7     Er6    10.0   1_545     S
Er7     Ti10    10.0   .     S
Ti8     Er4    10.0   1_545     S
Ti8     V9    10.0   .     S
Ti8     V9    10.0   1_556     S
V9     Ti8    10.0   1_554     S
V9     Ti10    10.0   1_455     S
V9     Ti10    10.0   1_454     S
Ti10     Er6    10.0   1_545     S
Ti10     V9    10.0   1_655     S
Ti10     V9    10.0   1_656     S
