data_tfd
_audit_creation_date              2020-02-02
_audit_creation_method            'Pymatgen'
_symmetry_space_group_name_H-M    'P1'
_symmetry_Int_Tables_number       1
loop_
_symmetry_equiv_pos_as_xyz
  x,y,z
_cell_length_a                    41.4386
_cell_length_b                    41.4386
_cell_length_c                    25.2002
_cell_angle_alpha                 90.0
_cell_angle_beta                 90.0
_cell_angle_gamma                 90.0
loop_
_atom_site_label
_atom_site_type_symbol
_atom_site_fract_x
_atom_site_fract_y
_atom_site_fract_z
V1     V     0.2683   0.7317   0.6984
V2     V     0.2683   0.7317   0.3016
V3     V     0.7317   0.2683   0.6984
V4     V     0.7317   0.2683   0.3016
Ti5     Ti     0.3792   0.6208   0.0
Er6     Er     0.6205   0.6205   0.0
Ti7     Ti     0.6208   0.3792   0.0
Er8     Er     0.3794   0.3794   0.0
V9     V     0.7683   0.7683   0.8016
V10     V     0.7683   0.7683   0.1984
V11     V     0.2317   0.2317   0.8016
V12     V     0.2317   0.2317   0.1984
Ti13     Ti     0.8792   0.8792   0.5
Ti14     Ti     0.1208   0.1208   0.5
Er15     Er     0.1206   0.8794   0.5
Er16     Er     0.8794   0.1206   0.5
loop_
_geom_bond_atom_site_label_1
_geom_bond_atom_site_label_2
_geom_bond_distance
_geom_bond_site_symmetry_2
_ccdc_geom_bond_type
V1     V2    10.0   .     S
V1     Er15    10.0   .     S
V1     Ti5    10.0   1_556     S
V2     Er15    10.0   .     S
V2     Ti5    10.0   .     S
V3     V4    10.0   .     S
V3     Er16    10.0   .     S
V3     Ti7    10.0   1_556     S
V4     Er16    10.0   .     S
V4     Ti7    10.0   .     S
Ti5     V1    10.0   1_554     S
Ti5     Er8    10.0   .     S
Ti5     Er6    10.0   .     S
Er6     Ti7    10.0   .     S
Er6     V9    10.0   1_554     S
Er6     V10    10.0   .     S
Ti7     V3    10.0   1_554     S
Ti7     Er8    10.0   .     S
Er8     V11    10.0   1_554     S
Er8     V12    10.0   .     S
V9     V10    10.0   1_556     S
V9     Er6    10.0   1_556     S
V9     Ti13    10.0   .     S
V10     V9    10.0   1_554     S
V10     Ti13    10.0   .     S
V11     V12    10.0   1_556     S
V11     Er8    10.0   1_556     S
V11     Ti14    10.0   .     S
V12     V11    10.0   1_554     S
V12     Ti14    10.0   .     S
Ti13     Er15    10.0   1_655     S
Ti13     Er16    10.0   1_565     S
Ti14     Er15    10.0   1_545     S
Ti14     Er16    10.0   1_455     S
Er15     Ti14    10.0   1_565     S
Er15     Ti13    10.0   1_455     S
Er16     Ti14    10.0   1_655     S
Er16     Ti13    10.0   1_545     S
