data_tfia
_audit_creation_date              2020-02-02
_audit_creation_method            'Pymatgen'
_symmetry_space_group_name_H-M    'P1'
_symmetry_Int_Tables_number       1
loop_
_symmetry_equiv_pos_as_xyz
  x,y,z
_cell_length_a                    38.269
_cell_length_b                    38.269
_cell_length_c                    85.0616
_cell_angle_alpha                 90.0
_cell_angle_beta                 90.0
_cell_angle_gamma                 90.0
loop_
_atom_site_label
_atom_site_type_symbol
_atom_site_fract_x
_atom_site_fract_y
_atom_site_fract_z
V1     V     0.1306   0.0   0.7916
V2     V     0.8694   0.0   0.7916
V3     V     0.0   0.8694   0.7084
V4     V     0.0   0.1306   0.7084
Ti5     Ti     0.0   0.6306   0.3394
Ti6     Ti     0.0   0.3694   0.3394
Er7     Er     0.0   0.5   0.5588
Er8     Er     0.0   0.5   0.4412
Ti9     Ti     0.0   0.6306   0.6606
Ti10     Ti     0.0   0.3694   0.6606
V11     V     0.0   0.1306   0.2916
V12     V     0.0   0.8694   0.2916
V13     V     0.8694   0.0   0.2084
V14     V     0.1306   0.0   0.2084
Ti15     Ti     0.6306   0.0   0.1606
Ti16     Ti     0.3694   0.0   0.1606
Er17     Er     0.5   0.0   0.0588
Er18     Er     0.5   0.0   0.9412
Ti19     Ti     0.6306   0.0   0.8394
Ti20     Ti     0.3694   0.0   0.8394
loop_
_geom_bond_atom_site_label_1
_geom_bond_atom_site_label_2
_geom_bond_distance
_geom_bond_site_symmetry_2
_ccdc_geom_bond_type
V1     V3    9.999   1_545     S
V1     V4    9.999   .     S
V1     V2    10.0   1_455     S
V1     Ti20    10.001   .     S
V2     V3    9.999   1_645     S
V2     V4    9.999   1_655     S
V2     V1    10.0   1_655     S
V2     Ti19    10.001   .     S
V3     V1    9.999   1_565     S
V3     V2    9.999   1_465     S
V3     V4    10.0   1_565     S
V3     Ti9    10.001   .     S
V4     V2    9.999   1_455     S
V4     V3    10.0   1_545     S
V4     Ti10    10.001   .     S
Ti5     Er8    10.0   .     S
Ti5     Ti6    10.0   .     S
Ti5     V12    10.001   .     S
Ti6     Er8    10.0   .     S
Ti6     V11    10.001   .     S
Er7     Er8    10.0   .     S
Er7     Ti9    10.0   .     S
Er7     Ti10    10.0   .     S
Ti9     Ti10    10.0   .     S
V11     V13    9.999   1_455     S
V11     V14    9.999   .     S
V11     V12    10.0   1_545     S
V12     V14    9.999   1_565     S
V12     V13    9.999   1_465     S
V12     V11    10.0   1_565     S
V13     V11    9.999   1_655     S
V13     V12    9.999   1_645     S
V13     V14    10.0   1_655     S
V13     Ti15    10.001   .     S
V14     V12    9.999   1_545     S
V14     V13    10.0   1_455     S
V14     Ti16    10.001   .     S
Ti15     Er17    10.0   .     S
Ti15     Ti16    10.0   .     S
Ti16     Er17    10.0   .     S
Er17     Er18    10.0   1_554     S
Er18     Er17    10.0   1_556     S
Er18     Ti19    10.0   .     S
Er18     Ti20    10.0   .     S
Ti19     Ti20    10.0   .     S
