data_tfj
_audit_creation_date              2020-02-02
_audit_creation_method            'Pymatgen'
_symmetry_space_group_name_H-M    'P1'
_symmetry_Int_Tables_number       1
loop_
_symmetry_equiv_pos_as_xyz
  x,y,z
_cell_length_a                    33.3437
_cell_length_b                    33.3437
_cell_length_c                    29.7956
_cell_angle_alpha                 90.0
_cell_angle_beta                 90.0
_cell_angle_gamma                 90.0
loop_
_atom_site_label
_atom_site_type_symbol
_atom_site_fract_x
_atom_site_fract_y
_atom_site_fract_z
Ti1     Ti     0.0   0.0   0.5
V2     V     0.5   0.2001   0.0
V3     V     0.5   0.7999   0.0
V4     V     0.2999   0.0   0.5
V5     V     0.7001   0.0   0.5
Er6     Er     0.5   0.0   0.75
Er7     Er     0.5   0.0   0.25
Ti8     Ti     0.5   0.5   0.0
V9     V     0.2001   0.5   0.0
V10     V     0.7999   0.5   0.0
V11     V     0.0   0.2999   0.5
V12     V     0.0   0.7001   0.5
Er13     Er     0.0   0.5   0.75
Er14     Er     0.0   0.5   0.25
loop_
_geom_bond_atom_site_label_1
_geom_bond_atom_site_label_2
_geom_bond_distance
_geom_bond_site_symmetry_2
_ccdc_geom_bond_type
Ti1     V11    10.0   .     S
Ti1     V4    10.0   .     S
Ti1     V5    10.0   1_455     S
Ti1     V12    10.0   1_545     S
V2     Er7    10.0   .     S
V2     Er6    10.0   1_554     S
V2     Ti8    10.0   .     S
V3     Er7    10.0   1_565     S
V3     Er6    10.0   1_564     S
V3     Ti8    10.0   .     S
V4     Er6    10.0   .     S
V4     Er7    10.0   .     S
V5     Ti1    10.0   1_655     S
V5     Er7    10.0   .     S
V5     Er6    10.0   .     S
Er6     V2    10.0   1_556     S
Er6     V3    10.0   1_546     S
Er7     V3    10.0   1_545     S
Ti8     V9    10.0   .     S
Ti8     V10    10.0   .     S
V9     Er14    10.0   .     S
V9     Er13    10.0   1_554     S
V10     Er14    10.0   1_655     S
V10     Er13    10.0   1_654     S
V11     Er13    10.0   .     S
V11     Er14    10.0   .     S
V12     Ti1    10.0   1_565     S
V12     Er14    10.0   .     S
V12     Er13    10.0   .     S
Er13     V9    10.0   1_556     S
Er13     V10    10.0   1_456     S
Er14     V10    10.0   1_455     S
