data_tfka
_audit_creation_date              2020-02-02
_audit_creation_method            'Pymatgen'
_symmetry_space_group_name_H-M    'P1'
_symmetry_Int_Tables_number       1
loop_
_symmetry_equiv_pos_as_xyz
  x,y,z
_cell_length_a                    38.5223
_cell_length_b                    38.5223
_cell_length_c                    89.7306
_cell_angle_alpha                 90.0
_cell_angle_beta                 90.0
_cell_angle_gamma                 90.0
loop_
_atom_site_label
_atom_site_type_symbol
_atom_site_fract_x
_atom_site_fract_y
_atom_site_fract_z
Er1     Er     0.0   0.0   0.1943
Er2     Er     0.0   0.0   0.3057
Ti3     Ti     0.1298   0.0   0.4022
Ti4     Ti     0.8702   0.0   0.4022
Ti5     Ti     0.1298   0.0   0.5978
Ti6     Ti     0.8702   0.0   0.5978
V7     V     0.6298   0.0   0.5557
V8     V     0.6298   0.0   0.4443
V9     V     0.3702   0.0   0.5557
V10     V     0.3702   0.0   0.4443
Er11     Er     0.0   0.0   0.8057
Er12     Er     0.0   0.0   0.6943
Ti13     Ti     0.0   0.1298   0.9022
Ti14     Ti     0.0   0.8702   0.9022
Ti15     Ti     0.0   0.1298   0.0978
Ti16     Ti     0.0   0.8702   0.0978
V17     V     0.0   0.6298   0.9443
V18     V     0.0   0.6298   0.0557
V19     V     0.0   0.3702   0.9443
V20     V     0.0   0.3702   0.0557
loop_
_geom_bond_atom_site_label_1
_geom_bond_atom_site_label_2
_geom_bond_distance
_geom_bond_site_symmetry_2
_ccdc_geom_bond_type
Er1     Er2    10.0   .     S
Er1     Ti15    10.0   .     S
Er1     Ti16    10.0   1_545     S
Er2     Ti3    10.0   .     S
Er2     Ti4    10.0   1_455     S
Ti3     Ti4    10.0   1_455     S
Ti3     V10    10.0   .     S
Ti4     Ti3    10.0   1_655     S
Ti4     Er2    10.0   1_655     S
Ti4     V8    10.0   .     S
Ti5     Ti6    10.0   1_455     S
Ti5     Er12    10.0   .     S
Ti5     V9    10.0   .     S
Ti6     Ti5    10.0   1_655     S
Ti6     Er12    10.0   1_655     S
Ti6     V7    10.0   .     S
V7     V8    10.0   .     S
V7     V9    10.0   .     S
V8     V10    10.0   .     S
V9     V10    10.0   .     S
Er11     Er12    10.0   .     S
Er11     Ti13    10.0   .     S
Er11     Ti14    10.0   1_545     S
Er12     Ti6    10.0   1_455     S
Ti13     Ti14    10.0   1_545     S
Ti13     V19    10.0   .     S
Ti14     Ti13    10.0   1_565     S
Ti14     Er11    10.0   1_565     S
Ti14     V17    10.0   .     S
Ti15     Ti16    10.0   1_545     S
Ti15     V20    10.0   .     S
Ti16     Ti15    10.0   1_565     S
Ti16     Er1    10.0   1_565     S
Ti16     V18    10.0   .     S
V17     V18    10.0   1_556     S
V17     V19    10.0   .     S
V18     V17    10.0   1_554     S
V18     V20    10.0   .     S
V19     V20    10.0   1_556     S
V20     V19    10.0   1_554     S
