data_tfl
_audit_creation_date              2020-02-02
_audit_creation_method            'Pymatgen'
_symmetry_space_group_name_H-M    'P1'
_symmetry_Int_Tables_number       1
loop_
_symmetry_equiv_pos_as_xyz
  x,y,z
_cell_length_a                    22.3085
_cell_length_b                    41.7314
_cell_length_c                    51.4387
_cell_angle_alpha                 90.0
_cell_angle_beta                 90.0
_cell_angle_gamma                 90.0
loop_
_atom_site_label
_atom_site_type_symbol
_atom_site_fract_x
_atom_site_fract_y
_atom_site_fract_z
Er1     Er     0.062   0.1848   0.8792
Er2     Er     0.438   0.3152   0.8792
V3     V     0.75   0.25   0.75
Er4     Er     0.562   0.1848   0.3792
Er5     Er     0.938   0.3152   0.3792
V6     V     0.25   0.25   0.25
Er7     Er     0.688   0.4348   0.6292
Er8     Er     0.312   0.5652   0.6292
V9     V     0.0   0.5   0.5
Er10     Er     0.562   0.6848   0.8792
Er11     Er     0.938   0.8152   0.8792
V12     V     0.25   0.75   0.75
Er13     Er     0.688   0.9348   0.1292
Er14     Er     0.312   0.0652   0.1292
V15     V     0.0   0.0   0.0
Er16     Er     0.188   0.4348   0.1292
Er17     Er     0.812   0.5652   0.1292
V18     V     0.5   0.5   0.0
Er19     Er     0.062   0.6848   0.3792
Er20     Er     0.438   0.8152   0.3792
V21     V     0.75   0.75   0.25
Er22     Er     0.188   0.9348   0.6292
Er23     Er     0.812   0.0652   0.6292
V24     V     0.5   0.0   0.5
loop_
_geom_bond_atom_site_label_1
_geom_bond_atom_site_label_2
_geom_bond_distance
_geom_bond_site_symmetry_2
_ccdc_geom_bond_type
Er1     Er2    10.0   .     S
Er1     V3    10.0   1_455     S
Er1     V15    10.0   1_556     S
Er2     V3    10.0   .     S
Er2     V18    10.0   1_556     S
V3     Er1    10.0   1_655     S
V3     Er7    10.0   .     S
V3     Er23    10.0   .     S
Er4     Er5    10.0   .     S
Er4     V6    10.0   .     S
Er4     V24    10.0   .     S
Er5     V6    10.0   1_655     S
Er5     V9    10.0   1_655     S
V6     Er5    10.0   1_455     S
V6     Er16    10.0   .     S
V6     Er14    10.0   .     S
Er7     Er8    10.0   .     S
Er7     V9    10.0   1_655     S
Er8     V9    10.0   .     S
Er8     V12    10.0   .     S
V9     Er7    10.0   1_455     S
V9     Er5    10.0   1_455     S
V9     Er19    10.0   .     S
Er10     Er11    10.0   .     S
Er10     V12    10.0   .     S
Er10     V18    10.0   1_556     S
Er11     V12    10.0   1_655     S
Er11     V15    10.0   1_666     S
V12     Er11    10.0   1_455     S
V12     Er22    10.0   .     S
Er13     Er14    10.0   1_565     S
Er13     V15    10.0   1_665     S
Er13     V21    10.0   .     S
Er14     Er13    10.0   1_545     S
Er14     V15    10.0   .     S
V15     Er13    10.0   1_445     S
V15     Er1    10.0   1_554     S
V15     Er11    10.0   1_444     S
Er16     Er17    10.0   1_455     S
Er16     V18    10.0   .     S
Er17     Er16    10.0   1_655     S
Er17     V18    10.0   .     S
Er17     V21    10.0   .     S
V18     Er2    10.0   1_554     S
V18     Er10    10.0   1_554     S
Er19     Er20    10.0   .     S
Er19     V21    10.0   1_455     S
Er20     V21    10.0   .     S
Er20     V24    10.0   1_565     S
V21     Er19    10.0   1_655     S
Er22     Er23    10.0   1_465     S
Er22     V24    10.0   1_565     S
Er23     Er22    10.0   1_645     S
Er23     V24    10.0   .     S
V24     Er22    10.0   1_545     S
V24     Er20    10.0   1_545     S
