data_tfo
_audit_creation_date              2020-02-02
_audit_creation_method            'Pymatgen'
_symmetry_space_group_name_H-M    'P1'
_symmetry_Int_Tables_number       1
loop_
_symmetry_equiv_pos_as_xyz
  x,y,z
_cell_length_a                    19.9999
_cell_length_b                    43.382
_cell_length_c                    32.4544
_cell_angle_alpha                 90.0
_cell_angle_beta                 90.0
_cell_angle_gamma                 90.0
loop_
_atom_site_label
_atom_site_type_symbol
_atom_site_fract_x
_atom_site_fract_y
_atom_site_fract_z
Er1     Er     0.5   0.75   0.25
Er2     Er     0.0   0.75   0.25
Er3     Er     0.5   0.25   0.75
Er4     Er     0.0   0.25   0.75
Er5     Er     0.5   0.75   0.75
Er6     Er     0.0   0.75   0.75
V7     V     0.5   0.8848   0.0
V8     V     0.5   0.1152   0.0
V9     V     0.5   0.3848   0.5
V10     V     0.5   0.6153   0.5
V11     V     0.0   0.8848   0.5
V12     V     0.0   0.1152   0.5
V13     V     0.0   0.3848   0.0
V14     V     0.0   0.6153   0.0
Er15     Er     0.5   0.25   0.25
Er16     Er     0.0   0.25   0.25
loop_
_geom_bond_atom_site_label_1
_geom_bond_atom_site_label_2
_geom_bond_distance
_geom_bond_site_symmetry_2
_ccdc_geom_bond_type
Er1     V10    10.0   .     S
Er1     V7    10.0   .     S
Er1     Er2    10.0   1_655     S
Er1     Er2    10.0   .     S
Er2     V14    10.0   .     S
Er2     V11    10.0   .     S
Er2     Er1    10.0   1_455     S
Er3     V8    10.0   1_556     S
Er3     V9    10.0   .     S
Er3     Er4    10.0   1_655     S
Er3     Er4    10.0   .     S
Er4     V13    10.0   1_556     S
Er4     V12    10.0   .     S
Er4     Er3    10.0   1_455     S
Er5     V10    10.0   .     S
Er5     V7    10.0   1_556     S
Er5     Er6    10.0   1_655     S
Er5     Er6    10.0   .     S
Er6     V14    10.0   1_556     S
Er6     V11    10.0   .     S
Er6     Er5    10.0   1_455     S
V7     Er5    10.0   1_554     S
V7     V8    10.0   1_565     S
V8     Er3    10.0   1_554     S
V8     V7    10.0   1_545     S
V8     Er15    10.0   .     S
V9     V10    10.0   .     S
V9     Er15    10.0   .     S
V11     V12    10.0   1_565     S
V12     V11    10.0   1_545     S
V12     Er16    10.0   .     S
V13     Er4    10.0   1_554     S
V13     V14    10.0   .     S
V13     Er16    10.0   .     S
V14     Er6    10.0   1_554     S
Er15     Er16    10.0   1_655     S
Er15     Er16    10.0   .     S
Er16     Er15    10.0   1_455     S
