data_tfq
_audit_creation_date              2020-02-02
_audit_creation_method            'Pymatgen'
_symmetry_space_group_name_H-M    'P1'
_symmetry_Int_Tables_number       1
loop_
_symmetry_equiv_pos_as_xyz
  x,y,z
_cell_length_a                    18.0165
_cell_length_b                    18.0165
_cell_length_c                    56.0506
_cell_angle_alpha                 90.0
_cell_angle_beta                 90.0
_cell_angle_gamma                 120.0
loop_
_atom_site_label
_atom_site_type_symbol
_atom_site_fract_x
_atom_site_fract_y
_atom_site_fract_z
V1     V     0.0   0.5   0.7441
V2     V     0.5   0.0   0.5892
Er3     Er     0.5   0.5   0.6667
V4     V     0.5   0.0   0.4108
V5     V     0.5   0.5   0.2559
Er6     Er     0.0   0.5   0.3333
V7     V     0.0   0.5   0.9225
V8     V     0.5   0.5   0.0775
Er9     Er     0.5   0.0   0.0
loop_
_geom_bond_atom_site_label_1
_geom_bond_atom_site_label_2
_geom_bond_distance
_geom_bond_site_symmetry_2
_ccdc_geom_bond_type
V1     Er3    10.0   .     S
V1     Er3    10.0   1_455     S
V1     V7    10.001   .     S
V2     Er3    10.0   .     S
V2     Er3    10.0   1_545     S
V2     V4    10.001   .     S
Er3     V1    10.0   1_655     S
Er3     V2    10.0   1_565     S
V4     Er6    10.0   1_655     S
V4     Er6    10.0   1_545     S
V5     Er6    10.0   1_655     S
V5     Er6    10.0   .     S
V5     V8    10.001   .     S
Er6     V4    10.0   1_455     S
Er6     V4    10.0   1_565     S
Er6     V5    10.0   1_455     S
V7     Er9    10.0   1_566     S
V7     Er9    10.0   1_456     S
V8     Er9    10.0   .     S
V8     Er9    10.0   1_565     S
Er9     V7    10.0   1_544     S
Er9     V7    10.0   1_654     S
Er9     V8    10.0   1_545     S
