data_tfu
_audit_creation_date              2020-02-02
_audit_creation_method            'Pymatgen'
_symmetry_space_group_name_H-M    'P1'
_symmetry_Int_Tables_number       1
loop_
_symmetry_equiv_pos_as_xyz
  x,y,z
_cell_length_a                    43.1053
_cell_length_b                    43.1053
_cell_length_c                    78.9289
_cell_angle_alpha                 90.0
_cell_angle_beta                 90.0
_cell_angle_gamma                 120.0
loop_
_atom_site_label
_atom_site_type_symbol
_atom_site_fract_x
_atom_site_fract_y
_atom_site_fract_z
Er1     Er     0.2669   0.1535   0.3302
V2     V     0.3333   0.0272   0.4167
Er3     Er     0.3998   0.2199   0.5031
Ti4     Ti     0.6667   0.3333   0.5027
Er5     Er     0.8866   0.7331   0.3302
V6     V     0.6938   0.6667   0.4167
Er7     Er     0.8201   0.6002   0.5031
Er8     Er     0.8465   0.1134   0.3302
V9     V     0.9728   0.3062   0.4167
Er10     Er     0.7801   0.1799   0.5031
Ti11     Ti     0.0   0.0   0.3306
Er12     Er     0.6002   0.7801   0.4969
V13     V     0.6667   0.9728   0.5833
Er14     Er     0.7331   0.8465   0.6698
Er15     Er     0.1799   0.3998   0.4969
V16     V     0.3062   0.3333   0.5833
Er17     Er     0.1134   0.2669   0.6698
Er18     Er     0.2199   0.8201   0.4969
V19     V     0.0272   0.6938   0.5833
Er20     Er     0.1535   0.8866   0.6698
Ti21     Ti     0.0   0.0   0.6694
Ti22     Ti     0.3333   0.6667   0.4973
Er23     Er     0.9335   0.4868   0.6636
V24     V     0.0   0.3605   0.75
Er25     Er     0.0665   0.5533   0.8364
Er26     Er     0.4868   0.9335   0.8364
V27     V     0.3605   0.0   0.75
Er28     Er     0.5533   0.0665   0.6636
Er29     Er     0.4467   0.5132   0.8364
V30     V     0.6395   0.6395   0.75
Er31     Er     0.5132   0.4467   0.6636
Ti32     Ti     0.6667   0.3333   0.6639
Ti33     Ti     0.3333   0.6667   0.8361
Er34     Er     0.3998   0.1799   0.0031
V35     V     0.3333   0.3062   0.9167
Er36     Er     0.2669   0.1134   0.8302
Er37     Er     0.8201   0.2199   0.0031
V38     V     0.6938   0.0272   0.9167
Er39     Er     0.8866   0.1535   0.8302
Ti40     Ti     0.0   0.0   0.8306
Er41     Er     0.7801   0.6002   0.0031
V42     V     0.9728   0.6667   0.9167
Er43     Er     0.8465   0.7331   0.8302
Ti44     Ti     0.6667   0.3333   0.0027
Er45     Er     0.5132   0.0665   0.1636
V46     V     0.6395   0.0   0.25
Er47     Er     0.4467   0.9335   0.3364
Ti48     Ti     0.6667   0.3333   0.1639
Er49     Er     0.5533   0.4868   0.1636
V50     V     0.3605   0.3605   0.25
Er51     Er     0.4868   0.5533   0.3364
Er52     Er     0.9335   0.4467   0.1636
V53     V     0.0   0.6395   0.25
Er54     Er     0.0665   0.5132   0.3364
Ti55     Ti     0.3333   0.6667   0.3361
Er56     Er     0.2199   0.3998   0.9969
V57     V     0.0272   0.3333   0.0833
Er58     Er     0.1535   0.2669   0.1698
Er59     Er     0.6002   0.8201   0.9969
V60     V     0.6667   0.6938   0.0833
Er61     Er     0.7331   0.8866   0.1698
Er62     Er     0.1134   0.8465   0.1698
V63     V     0.3062   0.9728   0.0833
Er64     Er     0.1799   0.7801   0.9969
Ti65     Ti     0.3333   0.6667   0.9973
Ti66     Ti     0.0   0.0   0.1694
loop_
_geom_bond_atom_site_label_1
_geom_bond_atom_site_label_2
_geom_bond_distance
_geom_bond_site_symmetry_2
_ccdc_geom_bond_type
Er1     V2    10.0   .     S
Er1     Ti11    10.0   .     S
Er1     V50    10.0   .     S
V2     Er18    10.0   1_545     S
V2     Er47    10.0   1_545     S
V2     Er3    10.0   .     S
Er3     Ti4    10.0   .     S
Er3     V16    10.0   .     S
Ti4     Er7    10.0   .     S
Ti4     Er10    10.0   .     S
Er5     V6    10.0   .     S
Er5     Ti11    10.0   1_665     S
Er5     V53    10.0   1_655     S
V6     Er12    10.0   .     S
V6     Er51    10.0   .     S
V6     Er7    10.0   .     S
Er7     V19    10.0   1_655     S
Er8     V9    10.0   .     S
Er8     Ti11    10.0   1_655     S
Er8     V46    10.0   .     S
V9     Er15    10.0   1_655     S
V9     Er54    10.0   1_655     S
V9     Er10    10.0   .     S
Er10     V13    10.0   1_545     S
Ti11     Er5    10.0   1_445     S
Ti11     Er8    10.0   1_455     S
Er12     V13    10.0   .     S
Er12     Ti22    10.0   .     S
V13     Er28    10.0   1_565     S
V13     Er10    10.0   1_565     S
V13     Er14    10.0   .     S
Er14     Ti21    10.0   1_665     S
Er14     V30    10.0   .     S
Er15     V9    10.0   1_455     S
Er15     V16    10.0   .     S
Er15     Ti22    10.0   .     S
V16     Er31    10.0   .     S
V16     Er17    10.0   .     S
Er17     Ti21    10.0   .     S
Er17     V24    10.0   .     S
Er18     V2    10.0   1_565     S
Er18     V19    10.0   .     S
Er18     Ti22    10.0   .     S
V19     Er23    10.0   1_455     S
V19     Er7    10.0   1_455     S
V19     Er20    10.0   .     S
Er20     Ti21    10.0   1_565     S
Er20     V27    10.0   1_565     S
Ti21     Er14    10.0   1_445     S
Ti21     Er20    10.0   1_545     S
Er23     V19    10.0   1_655     S
Er23     V24    10.0   1_655     S
Er23     Ti32    10.0   .     S
V24     Er23    10.0   1_455     S
V24     Er39    10.0   1_455     S
V24     Er25    10.0   .     S
Er25     Ti33    10.0   .     S
Er25     V42    10.0   1_455     S
Er26     V27    10.0   1_565     S
Er26     Ti33    10.0   .     S
Er26     V38    10.0   1_565     S
V27     Er26    10.0   1_545     S
V27     Er36    10.0   .     S
V27     Er20    10.0   1_545     S
V27     Er28    10.0   .     S
Er28     V13    10.0   1_545     S
Er28     Ti32    10.0   .     S
Er29     V30    10.0   .     S
Er29     Ti33    10.0   .     S
Er29     V35    10.0   .     S
V30     Er43    10.0   .     S
V30     Er31    10.0   .     S
Er31     Ti32    10.0   .     S
Er34     V35    10.0   1_554     S
Er34     Ti44    10.0   .     S
Er34     V63    10.0   1_545     S
V35     Er34    10.0   1_556     S
V35     Er56    10.0   .     S
V35     Er36    10.0   .     S
Er36     Ti40    10.0   .     S
Er37     V38    10.0   1_554     S
Er37     Ti44    10.0   .     S
Er37     V57    10.0   1_655     S
V38     Er37    10.0   1_556     S
V38     Er59    10.0   1_545     S
V38     Er26    10.0   1_545     S
V38     Er39    10.0   .     S
Er39     V24    10.0   1_655     S
Er39     Ti40    10.0   1_655     S
Ti40     Er39    10.0   1_455     S
Ti40     Er43    10.0   1_445     S
Er41     V42    10.0   1_554     S
Er41     Ti44    10.0   .     S
Er41     V60    10.0   .     S
V42     Er41    10.0   1_556     S
V42     Er64    10.0   1_655     S
V42     Er25    10.0   1_655     S
V42     Er43    10.0   .     S
Er43     Ti40    10.0   1_665     S
Er45     V46    10.0   .     S
Er45     Ti48    10.0   .     S
Er45     V63    10.0   1_545     S
V46     Er61    10.0   1_545     S
V46     Er47    10.0   1_545     S
Er47     V2    10.0   1_565     S
Er47     V46    10.0   1_565     S
Er47     Ti55    10.0   .     S
Ti48     Er49    10.0   .     S
Ti48     Er52    10.0   .     S
Er49     V50    10.0   .     S
Er49     V60    10.0   .     S
V50     Er58    10.0   .     S
V50     Er51    10.0   .     S
Er51     Ti55    10.0   .     S
Er52     V53    10.0   1_655     S
Er52     V57    10.0   1_655     S
V53     Er52    10.0   1_455     S
V53     Er5    10.0   1_455     S
V53     Er62    10.0   .     S
V53     Er54    10.0   .     S
Er54     V9    10.0   1_455     S
Er54     Ti55    10.0   .     S
Er56     V57    10.0   1_556     S
Er56     Ti65    10.0   .     S
V57     Er56    10.0   1_554     S
V57     Er52    10.0   1_455     S
V57     Er37    10.0   1_455     S
V57     Er58    10.0   .     S
Er58     Ti66    10.0   .     S
Er59     V38    10.0   1_565     S
Er59     V60    10.0   1_556     S
Er59     Ti65    10.0   .     S
V60     Er59    10.0   1_554     S
V60     Er61    10.0   .     S
Er61     V46    10.0   1_565     S
Er61     Ti66    10.0   1_665     S
Er62     V63    10.0   .     S
Er62     Ti66    10.0   1_565     S
V63     Er45    10.0   1_565     S
V63     Er34    10.0   1_565     S
V63     Er64    10.0   1_554     S
Er64     V42    10.0   1_455     S
Er64     V63    10.0   1_556     S
Er64     Ti65    10.0   .     S
Ti66     Er61    10.0   1_445     S
Ti66     Er62    10.0   1_545     S
