data_tfua
_audit_creation_date              2020-02-02
_audit_creation_method            'Pymatgen'
_symmetry_space_group_name_H-M    'P1'
_symmetry_Int_Tables_number       1
loop_
_symmetry_equiv_pos_as_xyz
  x,y,z
_cell_length_a                    95.3918
_cell_length_b                    95.3918
_cell_length_c                    157.9858
_cell_angle_alpha                 90.0
_cell_angle_beta                 90.0
_cell_angle_gamma                 120.0
loop_
_atom_site_label
_atom_site_type_symbol
_atom_site_fract_x
_atom_site_fract_y
_atom_site_fract_z
Er1     Er     0.6227   0.6178   0.898
Er2     Er     0.6716   0.7156   0.9353
V3     V     0.7035   0.631   0.9422
V4     V     0.7391   0.7023   0.8911
Er5     Er     0.0439   0.3284   0.9353
Er6     Er     0.995   0.3773   0.898
V7     V     0.9275   0.2965   0.9422
V8     V     0.9632   0.2609   0.8911
Ce9     Ce     0.1369   0.3673   0.9756
Ti10     Ti     0.2216   0.3768   0.0162
S11     S     0.226   0.4766   0.9932
Ce12     Ce     0.6327   0.7696   0.9756
Ti13     Ti     0.6232   0.8449   0.0162
S14     S     0.5234   0.7495   0.9932
Ce15     Ce     0.2304   0.8631   0.9756
Ti16     Ti     0.1551   0.7784   0.0162
S17     S     0.2505   0.774   0.9932
H18     H     0.4032   0.6998   0.9896
H19     H     0.2966   0.5968   0.9896
H20     H     0.3002   0.7034   0.9896
Er21     Er     0.3822   0.005   0.898
Er22     Er     0.2844   0.9561   0.9353
V23     V     0.2977   0.0368   0.8911
V24     V     0.369   0.0725   0.9422
Ce25     Ce     0.4363   0.966   0.8578
Ti26     Ti     0.5116   0.9566   0.8172
S27     S     0.4161   0.8568   0.8401
Ce28     Ce     0.034   0.4703   0.8578
Ti29     Ti     0.0434   0.555   0.8172
S30     S     0.1432   0.5594   0.8401
Ce31     Ce     0.5297   0.5637   0.8578
Ti32     Ti     0.445   0.4884   0.8172
S33     S     0.4406   0.5839   0.8401
H34     H     0.3664   0.7365   0.8437
H35     H     0.3701   0.6336   0.8437
H36     H     0.2635   0.6299   0.8437
Er37     Er     0.9561   0.6716   0.0647
Er38     Er     0.005   0.6227   0.102
V39     V     0.0725   0.7035   0.0578
V40     V     0.0368   0.7391   0.1089
Ce41     Ce     0.7696   0.1369   0.0244
Ti42     Ti     0.8449   0.2216   0.9838
S43     S     0.7495   0.226   0.0068
Ce44     Ce     0.8631   0.6327   0.0244
Ti45     Ti     0.7784   0.6232   0.9838
S46     S     0.774   0.5234   0.0068
Ce47     Ce     0.3673   0.2304   0.0244
Ti48     Ti     0.3768   0.1551   0.9838
S49     S     0.4766   0.2505   0.0068
H50     H     0.6998   0.2966   0.0104
H51     H     0.7034   0.4032   0.0104
H52     H     0.5968   0.3002   0.0104
Er53     Er     0.3773   0.3822   0.102
Er54     Er     0.3284   0.2844   0.0647
V55     V     0.2965   0.369   0.0578
V56     V     0.2609   0.2977   0.1089
Er57     Er     0.6178   0.995   0.102
Er58     Er     0.7156   0.0439   0.0647
V59     V     0.631   0.9275   0.0578
V60     V     0.7023   0.9632   0.1089
Ce61     Ce     0.966   0.5297   0.1422
Ti62     Ti     0.9566   0.445   0.1828
S63     S     0.8568   0.4406   0.1599
Ce64     Ce     0.5637   0.034   0.1422
Ti65     Ti     0.4884   0.0434   0.1828
S66     S     0.5839   0.1432   0.1599
Ce67     Ce     0.4703   0.4363   0.1422
Ti68     Ti     0.555   0.5116   0.1828
S69     S     0.5594   0.4161   0.1599
H70     H     0.6299   0.3664   0.1563
H71     H     0.7365   0.3701   0.1563
H72     H     0.6336   0.2635   0.1563
Ce73     Ce     0.4703   0.034   0.6422
Ti74     Ti     0.555   0.0434   0.6828
S75     S     0.5594   0.1432   0.6599
Ce76     Ce     0.966   0.4363   0.6422
Ti77     Ti     0.9566   0.5116   0.6828
S78     S     0.8568   0.4161   0.6599
Ce79     Ce     0.5637   0.5297   0.6422
Ti80     Ti     0.4884   0.445   0.6828
S81     S     0.5839   0.4406   0.6599
H82     H     0.6299   0.2635   0.6563
H83     H     0.7365   0.3664   0.6563
H84     H     0.6336   0.3701   0.6563
Er85     Er     0.6178   0.6227   0.602
Er86     Er     0.7156   0.6716   0.5647
V87     V     0.631   0.7035   0.5578
V88     V     0.7023   0.7391   0.6089
Er89     Er     0.3284   0.0439   0.5647
Er90     Er     0.3773   0.995   0.602
V91     V     0.2965   0.9275   0.5578
V92     V     0.2609   0.9632   0.6089
Er93     Er     0.005   0.3822   0.602
Er94     Er     0.9561   0.2844   0.5647
V95     V     0.0725   0.369   0.5578
V96     V     0.0368   0.2977   0.6089
Ce97     Ce     0.3673   0.1369   0.5244
Ti98     Ti     0.3768   0.2216   0.4838
S99     S     0.4766   0.226   0.5068
Ce100     Ce     0.7696   0.6327   0.5244
Ti101     Ti     0.8449   0.6232   0.4838
S102     S     0.7495   0.5234   0.5068
Ce103     Ce     0.8631   0.2304   0.5244
Ti104     Ti     0.7784   0.1551   0.4838
S105     S     0.774   0.2505   0.5068
H106     H     0.7034   0.3002   0.5104
H107     H     0.5968   0.2966   0.5104
H108     H     0.6998   0.4032   0.5104
Er109     Er     0.6617   0.9511   0.7314
Er110     Er     0.7106   0.0489   0.7686
V111     V     0.6298   0.0356   0.7244
V112     V     0.5942   0.9644   0.7756
Er113     Er     0.9511   0.6617   0.7686
Er114     Er     0.0489   0.7106   0.7314
V115     V     0.9644   0.5942   0.7244
V116     V     0.0356   0.6298   0.7756
Ce117     Ce     0.1029   0.8036   0.6911
Ti118     Ti     0.1782   0.8883   0.6505
S119     S     0.0828   0.8927   0.6735
Ce120     Ce     0.1964   0.2993   0.6911
Ti121     Ti     0.1117   0.2899   0.6505
S122     S     0.1073   0.1901   0.6735
Ce123     Ce     0.7007   0.8971   0.6911
Ti124     Ti     0.7101   0.8218   0.6505
S125     S     0.8099   0.9172   0.6735
H126     H     0.9301   0.9669   0.677
H127     H     0.0331   0.9632   0.677
H128     H     0.0368   0.0699   0.677
Er129     Er     0.3383   0.2894   0.7686
Er130     Er     0.2894   0.3383   0.7314
V131     V     0.4058   0.3702   0.7244
V132     V     0.3702   0.4058   0.7756
Ce133     Ce     0.8971   0.7007   0.8089
Ti134     Ti     0.8218   0.7101   0.8495
S135     S     0.9172   0.8099   0.8265
Ce136     Ce     0.8036   0.1029   0.8089
Ti137     Ti     0.8883   0.1782   0.8495
S138     S     0.8927   0.0828   0.8265
Ce139     Ce     0.2993   0.1964   0.8089
Ti140     Ti     0.2899   0.1117   0.8495
S141     S     0.1901   0.1073   0.8265
H142     H     0.9669   0.9301   0.823
H143     H     0.9632   0.0331   0.823
H144     H     0.0699   0.0368   0.823
Er145     Er     0.3822   0.3773   0.398
Er146     Er     0.2844   0.3284   0.4353
V147     V     0.2977   0.2609   0.3911
V148     V     0.369   0.2965   0.4422
Ce149     Ce     0.4363   0.4703   0.3578
Ti150     Ti     0.5116   0.555   0.3172
S151     S     0.4161   0.5594   0.3401
Ce152     Ce     0.5297   0.966   0.3578
Ti153     Ti     0.445   0.9566   0.3172
S154     S     0.4406   0.8568   0.3401
Ce155     Ce     0.034   0.5637   0.3578
Ti156     Ti     0.0434   0.4884   0.3172
S157     S     0.1432   0.5839   0.3401
H158     H     0.3701   0.7365   0.3437
H159     H     0.2635   0.6336   0.3437
H160     H     0.3664   0.6299   0.3437
Er161     Er     0.995   0.6178   0.398
Er162     Er     0.0439   0.7156   0.4353
V163     V     0.9275   0.631   0.4422
V164     V     0.9632   0.7023   0.3911
Er165     Er     0.6716   0.9561   0.4353
Er166     Er     0.6227   0.005   0.398
V167     V     0.7391   0.0368   0.3911
V168     V     0.7035   0.0725   0.4422
Ce169     Ce     0.1369   0.7696   0.4756
Ti170     Ti     0.2216   0.8449   0.5162
S171     S     0.226   0.7495   0.4932
Ce172     Ce     0.6327   0.8631   0.4756
Ti173     Ti     0.6232   0.7784   0.5162
S174     S     0.5234   0.774   0.4932
Ce175     Ce     0.2304   0.3673   0.4756
Ti176     Ti     0.1551   0.3768   0.5162
S177     S     0.2505   0.4766   0.4932
H178     H     0.4032   0.7034   0.4896
H179     H     0.3002   0.5968   0.4896
H180     H     0.2966   0.6998   0.4896
Ce181     Ce     0.7007   0.8036   0.1911
Ti182     Ti     0.7101   0.8883   0.1505
S183     S     0.8099   0.8927   0.1735
Ce184     Ce     0.1029   0.2993   0.1911
Ti185     Ti     0.1782   0.2899   0.1505
S186     S     0.0828   0.1901   0.1735
Ce187     Ce     0.1964   0.8971   0.1911
Ti188     Ti     0.1117   0.8218   0.1505
S189     S     0.1073   0.9172   0.1735
H190     H     0.9301   0.9632   0.177
H191     H     0.0368   0.9669   0.177
H192     H     0.0331   0.0699   0.177
Er193     Er     0.7106   0.6617   0.2686
Er194     Er     0.6617   0.7106   0.2314
V195     V     0.5942   0.6298   0.2756
V196     V     0.6298   0.5942   0.2244
Er197     Er     0.0489   0.3383   0.2314
Er198     Er     0.9511   0.2894   0.2686
V199     V     0.0356   0.4058   0.2756
V200     V     0.9644   0.3702   0.2244
Er201     Er     0.3383   0.0489   0.2686
Er202     Er     0.2894   0.9511   0.2314
V203     V     0.3702   0.9644   0.2756
V204     V     0.4058   0.0356   0.2244
Ce205     Ce     0.8036   0.7007   0.3089
Ti206     Ti     0.8883   0.7101   0.3495
S207     S     0.8927   0.8099   0.3265
Ce208     Ce     0.2993   0.1029   0.3089
Ti209     Ti     0.2899   0.1782   0.3495
S210     S     0.1901   0.0828   0.3265
Ce211     Ce     0.8971   0.1964   0.3089
Ti212     Ti     0.8218   0.1117   0.3495
S213     S     0.9172   0.1073   0.3265
H214     H     0.9632   0.9301   0.323
H215     H     0.9669   0.0368   0.323
H216     H     0.0699   0.0331   0.323
loop_
_geom_bond_atom_site_label_1
_geom_bond_atom_site_label_2
_geom_bond_distance
_geom_bond_site_symmetry_2
_ccdc_geom_bond_type
Er1     V4    9.999   .     S
Er1     V3    10.0   .     S
Er1     Er2    10.0   .     S
Er1     Ce31    10.0   .     S
Er2     V3    9.999   .     S
Er2     V4    10.0   .     S
Er2     Ce12    10.0   .     S
V3     V4    10.0   .     S
V3     Ti45    10.001   .     S
V4     Ti134    10.001   .     S
Er5     V7    9.999   1_455     S
Er5     V8    10.0   1_455     S
Er5     Er6    10.0   1_455     S
Er5     Ce9    10.0   .     S
Er6     V8    9.999   .     S
Er6     V7    10.0   .     S
Er6     Er5    10.0   1_655     S
Er6     Ce28    10.0   1_655     S
V7     V8    10.0   .     S
V7     Er5    9.999   1_655     S
V7     Ti42    10.001   .     S
V8     Er5    10.0   1_655     S
V8     Ti137    10.001   .     S
Ce9     Ti10    10.0   1_556     S
Ce9     S11    10.0   .     S
Ti10     Ce9    10.0   1_554     S
Ti10     S11    10.0   1_554     S
Ti10     V55    10.001   .     S
S11     Ti10    10.0   1_556     S
S11     H19    10.0   .     S
Ce12     Ti13    10.0   1_556     S
Ce12     S14    10.0   .     S
Ti13     Ce12    10.0   1_554     S
Ti13     S14    10.0   1_554     S
Ti13     V59    10.001   .     S
S14     Ti13    10.0   1_556     S
S14     H18    10.0   .     S
Ce15     Ti16    10.0   1_556     S
Ce15     S17    10.0   .     S
Ce15     Er22    10.0   .     S
Ti16     Ce15    10.0   1_554     S
Ti16     S17    10.0   1_554     S
Ti16     V39    10.001   .     S
S17     Ti16    10.0   1_556     S
S17     H20    10.0   .     S
H18     H19    10.001   .     S
H18     H20    10.001   .     S
H19     H20    10.001   .     S
Er21     V23    9.999   .     S
Er21     V24    10.0   .     S
Er21     Er22    10.0   1_545     S
Er21     Ce25    10.0   1_545     S
Er22     V24    9.999   1_565     S
Er22     V23    10.0   1_565     S
Er22     Er21    10.0   1_565     S
V23     V24    10.0   .     S
V23     Er22    10.0   1_545     S
V23     Ti140    10.001   .     S
V24     Er22    9.999   1_545     S
V24     Ti48    10.001   .     S
Ce25     Er21    10.0   1_565     S
Ce25     Ti26    10.0   .     S
Ce25     S27    10.0   .     S
Ti26     S27    10.0   .     S
Ti26     V112    10.001   .     S
S27     H34    10.0   .     S
Ce28     Er6    10.0   1_455     S
Ce28     Ti29    10.0   .     S
Ce28     S30    10.0   .     S
Ti29     S30    10.0   .     S
Ti29     V116    10.001   .     S
S30     H36    10.0   .     S
Ce31     Ti32    10.0   .     S
Ce31     S33    10.0   .     S
Ti32     S33    10.0   .     S
Ti32     V132    10.001   .     S
S33     H35    10.0   .     S
H34     H36    10.001   .     S
H34     H35    10.001   .     S
H35     H36    10.001   .     S
Er37     V39    9.999   1_655     S
Er37     V40    10.0   1_655     S
Er37     Er38    10.0   1_655     S
Er37     Ce44    10.0   .     S
Er38     V40    9.999   .     S
Er38     V39    10.0   .     S
Er38     Er37    10.0   1_455     S
Er38     Ce61    10.0   1_455     S
V39     V40    10.0   .     S
V39     Er37    9.999   1_455     S
V40     Er37    10.0   1_455     S
V40     Ti188    10.001   .     S
Ce41     Ti42    10.0   1_554     S
Ce41     S43    10.0   .     S
Ce41     Er58    10.0   .     S
Ti42     Ce41    10.0   1_556     S
Ti42     S43    10.0   1_556     S
S43     Ti42    10.0   1_554     S
S43     H50    10.0   .     S
Ce44     Ti45    10.0   1_554     S
Ce44     S46    10.0   .     S
Ti45     Ce44    10.0   1_556     S
Ti45     S46    10.0   1_556     S
S46     Ti45    10.0   1_554     S
S46     H51    10.0   .     S
Ce47     Ti48    10.0   1_554     S
Ce47     S49    10.0   .     S
Ce47     Er54    10.0   .     S
Ti48     Ce47    10.0   1_556     S
Ti48     S49    10.0   1_556     S
S49     Ti48    10.0   1_554     S
S49     H52    10.0   .     S
H50     H52    10.001   .     S
H50     H51    10.001   .     S
H51     H52    10.001   .     S
Er53     V56    9.999   .     S
Er53     V55    10.0   .     S
Er53     Er54    10.0   .     S
Er53     Ce67    10.0   .     S
Er54     V55    9.999   .     S
Er54     V56    10.0   .     S
V55     V56    10.0   .     S
V56     Ti185    10.001   .     S
Er57     V60    9.999   .     S
Er57     V59    10.0   .     S
Er57     Er58    10.0   1_565     S
Er57     Ce64    10.0   1_565     S
Er58     V59    9.999   1_545     S
Er58     V60    10.0   1_545     S
Er58     Er57    10.0   1_545     S
V59     V60    10.0   .     S
V59     Er58    9.999   1_565     S
V60     Er58    10.0   1_565     S
V60     Ti182    10.001   .     S
Ce61     Er38    10.0   1_655     S
Ce61     Ti62    10.0   .     S
Ce61     S63    10.0   .     S
Ti62     S63    10.0   .     S
Ti62     V200    10.001   .     S
S63     H71    10.0   .     S
Ce64     Er57    10.0   1_545     S
Ce64     Ti65    10.0   .     S
Ce64     S66    10.0   .     S
Ti65     S66    10.0   .     S
Ti65     V204    10.001   .     S
S66     H72    10.0   .     S
Ce67     Ti68    10.0   .     S
Ce67     S69    10.0   .     S
Ti68     S69    10.0   .     S
Ti68     V196    10.001   .     S
S69     H70    10.0   .     S
H70     H72    10.001   .     S
H70     H71    10.001   .     S
H71     H72    10.001   .     S
Ce73     Ti74    10.0   .     S
Ce73     S75    10.0   .     S
Ce73     Er90    10.0   1_545     S
Ti74     S75    10.0   .     S
Ti74     V111    10.001   .     S
S75     H82    10.0   .     S
Ce76     Ti77    10.0   .     S
Ce76     S78    10.0   .     S
Ce76     Er93    10.0   1_655     S
Ti77     S78    10.0   .     S
Ti77     V115    10.001   .     S
S78     H83    10.0   .     S
Ce79     Ti80    10.0   .     S
Ce79     S81    10.0   .     S
Ce79     Er85    10.0   .     S
Ti80     S81    10.0   .     S
Ti80     V131    10.001   .     S
S81     H84    10.0   .     S
H82     H84    10.001   .     S
H82     H83    10.001   .     S
H83     H84    10.001   .     S
Er85     V88    9.999   .     S
Er85     V87    10.0   .     S
Er85     Er86    10.0   .     S
Er86     V87    9.999   .     S
Er86     V88    10.0   .     S
Er86     Ce100    10.0   .     S
V87     V88    10.0   .     S
V87     Ti173    10.001   .     S
V88     Ti124    10.001   .     S
Er89     V91    9.999   1_545     S
Er89     V92    10.0   1_545     S
Er89     Er90    10.0   1_545     S
Er89     Ce97    10.0   .     S
Er90     V92    9.999   .     S
Er90     V91    10.0   .     S
Er90     Er89    10.0   1_565     S
Er90     Ce73    10.0   1_565     S
V91     V92    10.0   .     S
V91     Er89    9.999   1_565     S
V91     Ti170    10.001   .     S
V92     Er89    10.0   1_565     S
V92     Ti118    10.001   .     S
Er93     V96    9.999   .     S
Er93     V95    10.0   .     S
Er93     Er94    10.0   1_455     S
Er93     Ce76    10.0   1_455     S
Er94     V95    9.999   1_655     S
Er94     V96    10.0   1_655     S
Er94     Er93    10.0   1_655     S
Er94     Ce103    10.0   .     S
V95     V96    10.0   .     S
V95     Er94    9.999   1_455     S
V95     Ti176    10.001   .     S
V96     Er94    10.0   1_455     S
V96     Ti121    10.001   .     S
Ce97     Ti98    10.0   .     S
Ce97     S99    10.0   .     S
Ti98     S99    10.0   .     S
Ti98     V148    10.001   .     S
S99     H107    10.0   .     S
Ce100     Ti101    10.0   .     S
Ce100     S102    10.0   .     S
Ti101     S102    10.0   .     S
Ti101     V163    10.001   .     S
S102     H108    10.0   .     S
Ce103     Ti104    10.0   .     S
Ce103     S105    10.0   .     S
Ti104     S105    10.0   .     S
Ti104     V168    10.001   .     S
S105     H106    10.0   .     S
H106     H108    10.001   .     S
H106     H107    10.001   .     S
H107     H108    10.001   .     S
Er109     V111    9.999   1_565     S
Er109     V112    10.0   .     S
Er109     Er110    10.0   1_565     S
Er109     Ce123    10.0   .     S
Er110     V112    9.999   1_545     S
Er110     V111    10.0   .     S
Er110     Er109    10.0   1_545     S
Er110     Ce136    10.0   .     S
V111     V112    10.0   1_545     S
V111     Er109    9.999   1_545     S
V112     V111    10.0   1_565     S
V112     Er110    9.999   1_565     S
Er113     V116    9.999   1_655     S
Er113     V115    10.0   .     S
Er113     Er114    10.0   1_655     S
Er113     Ce133    10.0   .     S
Er114     V115    9.999   1_455     S
Er114     V116    10.0   .     S
Er114     Er113    10.0   1_455     S
Er114     Ce117    10.0   .     S
V115     V116    10.0   1_655     S
V115     Er114    9.999   1_655     S
V116     V115    10.0   1_455     S
V116     Er113    9.999   1_455     S
Ce117     Ti118    10.0   .     S
Ce117     S119    10.0   .     S
Ti118     S119    10.0   .     S
S119     H127    10.0   .     S
Ce120     Ti121    10.0   .     S
Ce120     S122    10.0   .     S
Ce120     Er130    10.0   .     S
Ti121     S122    10.0   .     S
S122     H128    10.0   .     S
Ce123     Ti124    10.0   .     S
Ce123     S125    10.0   .     S
Ti124     S125    10.0   .     S
S125     H126    10.0   .     S
H126     H128    10.001   1_665     S
H126     H127    10.001   1_655     S
H127     H126    10.001   1_455     S
H127     H128    10.001   1_565     S
H128     H126    10.001   1_445     S
H128     H127    10.001   1_545     S
Er129     V132    9.999   .     S
Er129     V131    10.0   .     S
Er129     Er130    10.0   .     S
Er129     Ce139    10.0   .     S
Er130     V131    9.999   .     S
Er130     V132    10.0   .     S
V131     V132    10.0   .     S
Ce133     Ti134    10.0   .     S
Ce133     S135    10.0   .     S
Ti134     S135    10.0   .     S
S135     H142    10.0   .     S
Ce136     Ti137    10.0   .     S
Ce136     S138    10.0   .     S
Ti137     S138    10.0   .     S
S138     H143    10.0   .     S
Ce139     Ti140    10.0   .     S
Ce139     S141    10.0   .     S
Ti140     S141    10.0   .     S
S141     H144    10.0   .     S
H142     H144    10.001   1_665     S
H142     H143    10.001   1_565     S
H143     H142    10.001   1_545     S
H143     H144    10.001   1_655     S
H144     H142    10.001   1_445     S
H144     H143    10.001   1_455     S
Er145     V147    9.999   .     S
Er145     V148    10.0   .     S
Er145     Er146    10.0   .     S
Er145     Ce149    10.0   .     S
Er146     V148    9.999   .     S
Er146     V147    10.0   .     S
Er146     Ce175    10.0   .     S
V147     V148    10.0   .     S
V147     Ti209    10.001   .     S
Ce149     Ti150    10.0   .     S
Ce149     S151    10.0   .     S
Ti150     S151    10.0   .     S
Ti150     V195    10.001   .     S
S151     H160    10.0   .     S
Ce152     Ti153    10.0   .     S
Ce152     S154    10.0   .     S
Ce152     Er166    10.0   1_565     S
Ti153     S154    10.0   .     S
Ti153     V203    10.001   .     S
S154     H158    10.0   .     S
Ce155     Ti156    10.0   .     S
Ce155     S157    10.0   .     S
Ce155     Er161    10.0   1_455     S
Ti156     S157    10.0   .     S
Ti156     V199    10.001   .     S
S157     H159    10.0   .     S
H158     H160    10.001   .     S
H158     H159    10.001   .     S
H159     H160    10.001   .     S
Er161     V164    9.999   .     S
Er161     V163    10.0   .     S
Er161     Er162    10.0   1_655     S
Er161     Ce155    10.0   1_655     S
Er162     V163    9.999   1_455     S
Er162     V164    10.0   1_455     S
Er162     Er161    10.0   1_455     S
Er162     Ce169    10.0   .     S
V163     V164    10.0   .     S
V163     Er162    9.999   1_655     S
V164     Er162    10.0   1_655     S
V164     Ti206    10.001   .     S
Er165     V168    9.999   1_565     S
Er165     V167    10.0   1_565     S
Er165     Er166    10.0   1_565     S
Er165     Ce172    10.0   .     S
Er166     V167    9.999   .     S
Er166     V168    10.0   .     S
Er166     Er165    10.0   1_545     S
Er166     Ce152    10.0   1_545     S
V167     V168    10.0   .     S
V167     Er165    10.0   1_545     S
V167     Ti212    10.001   .     S
V168     Er165    9.999   1_545     S
Ce169     Ti170    10.0   .     S
Ce169     S171    10.0   .     S
Ti170     S171    10.0   .     S
S171     H180    10.0   .     S
Ce172     Ti173    10.0   .     S
Ce172     S174    10.0   .     S
Ti173     S174    10.0   .     S
S174     H178    10.0   .     S
Ce175     Ti176    10.0   .     S
Ce175     S177    10.0   .     S
Ti176     S177    10.0   .     S
S177     H179    10.0   .     S
H178     H180    10.001   .     S
H178     H179    10.001   .     S
H179     H180    10.001   .     S
Ce181     Ti182    10.0   .     S
Ce181     S183    10.0   .     S
Ce181     Er194    10.0   .     S
Ti182     S183    10.0   .     S
S183     H190    10.0   .     S
Ce184     Ti185    10.0   .     S
Ce184     S186    10.0   .     S
Ce184     Er197    10.0   .     S
Ti185     S186    10.0   .     S
S186     H192    10.0   .     S
Ce187     Ti188    10.0   .     S
Ce187     S189    10.0   .     S
Ce187     Er202    10.0   .     S
Ti188     S189    10.0   .     S
S189     H191    10.0   .     S
H190     H191    10.001   1_655     S
H190     H192    10.001   1_665     S
H191     H190    10.001   1_455     S
H191     H192    10.001   1_565     S
H192     H191    10.001   1_545     S
H192     H190    10.001   1_445     S
Er193     V195    9.999   .     S
Er193     V196    10.0   .     S
Er193     Er194    10.0   .     S
Er193     Ce205    10.0   .     S
Er194     V196    9.999   .     S
Er194     V195    10.0   .     S
V195     V196    10.0   .     S
Er197     V200    9.999   1_455     S
Er197     V199    10.0   .     S
Er197     Er198    10.0   1_455     S
Er198     V199    9.999   1_655     S
Er198     V200    10.0   .     S
Er198     Er197    10.0   1_655     S
Er198     Ce211    10.0   .     S
V199     V200    10.0   1_455     S
V199     Er198    9.999   1_455     S
V200     V199    10.0   1_655     S
V200     Er197    9.999   1_655     S
Er201     V203    9.999   1_545     S
Er201     V204    10.0   .     S
Er201     Er202    10.0   1_545     S
Er201     Ce208    10.0   .     S
Er202     V204    9.999   1_565     S
Er202     V203    10.0   .     S
Er202     Er201    10.0   1_565     S
V203     V204    10.0   1_565     S
V203     Er201    9.999   1_565     S
V204     V203    10.0   1_545     S
V204     Er202    9.999   1_545     S
Ce205     Ti206    10.0   .     S
Ce205     S207    10.0   .     S
Ti206     S207    10.0   .     S
S207     H214    10.0   .     S
Ce208     Ti209    10.0   .     S
Ce208     S210    10.0   .     S
Ti209     S210    10.0   .     S
S210     H216    10.0   .     S
Ce211     Ti212    10.0   .     S
Ce211     S213    10.0   .     S
Ti212     S213    10.0   .     S
S213     H215    10.0   .     S
H214     H215    10.001   1_565     S
H214     H216    10.001   1_665     S
H215     H214    10.001   1_545     S
H215     H216    10.001   1_655     S
H216     H215    10.001   1_455     S
H216     H214    10.001   1_445     S
