data_tfv
_audit_creation_date              2020-02-02
_audit_creation_method            'Pymatgen'
_symmetry_space_group_name_H-M    'P1'
_symmetry_Int_Tables_number       1
loop_
_symmetry_equiv_pos_as_xyz
  x,y,z
_cell_length_a                    21.58
_cell_length_b                    21.58
_cell_length_c                    23.6339
_cell_angle_alpha                 90.0
_cell_angle_beta                 90.0
_cell_angle_gamma                 90.0
loop_
_atom_site_label
_atom_site_type_symbol
_atom_site_fract_x
_atom_site_fract_y
_atom_site_fract_z
Er1     Er     0.5   0.5   0.0
V2     V     0.3364   0.8364   0.75
V3     V     0.6636   0.1636   0.75
V4     V     0.1636   0.3364   0.25
V5     V     0.8364   0.6636   0.25
Er6     Er     0.0   0.0   0.5
loop_
_geom_bond_atom_site_label_1
_geom_bond_atom_site_label_2
_geom_bond_distance
_geom_bond_site_symmetry_2
_ccdc_geom_bond_type
Er1     V2    10.004   1_554     S
Er1     V3    10.004   1_554     S
Er1     V5    10.004   .     S
Er1     V4    10.004   .     S
V2     Er1    10.004   1_556     S
V2     Er6    10.004   1_565     S
V2     V3    9.984   1_565     S
V3     Er1    10.004   1_556     S
V3     Er6    10.004   1_655     S
V3     V2    9.984   1_545     S
V4     Er6    10.004   .     S
V4     V5    9.984   1_455     S
V5     Er6    10.004   1_665     S
V5     V4    9.984   1_655     S
Er6     V2    10.004   1_545     S
Er6     V5    10.004   1_445     S
Er6     V3    10.004   1_455     S
