data_thh
_audit_creation_date              2020-02-02
_audit_creation_method            'Pymatgen'
_symmetry_space_group_name_H-M    'P1'
_symmetry_Int_Tables_number       1
loop_
_symmetry_equiv_pos_as_xyz
  x,y,z
_cell_length_a                    33.4343
_cell_length_b                    33.4343
_cell_length_c                    88.8972
_cell_angle_alpha                 90.0
_cell_angle_beta                 90.0
_cell_angle_gamma                 90.0
loop_
_atom_site_label
_atom_site_type_symbol
_atom_site_fract_x
_atom_site_fract_y
_atom_site_fract_z
V1     V     0.6496   0.1004   0.4583
V2     V     0.6496   0.3996   0.4583
V3     V     0.3504   0.3996   0.4583
V4     V     0.3504   0.1004   0.4583
V5     V     0.8504   0.6004   0.2917
V6     V     0.1495   0.6004   0.2917
V7     V     0.8504   0.8996   0.2917
V8     V     0.1495   0.8996   0.2917
Er9     Er     0.6496   0.6004   0.375
Er10     Er     0.6496   0.8996   0.375
Er11     Er     0.3504   0.6004   0.375
Er12     Er     0.3504   0.8996   0.375
V13     V     0.6496   0.8996   0.2083
V14     V     0.6496   0.6004   0.2083
V15     V     0.3504   0.8996   0.2083
V16     V     0.3504   0.6004   0.2083
Er17     Er     0.8504   0.6004   0.125
Er18     Er     0.1495   0.6004   0.125
Er19     Er     0.1495   0.8996   0.125
Er20     Er     0.8504   0.8996   0.125
V21     V     0.1495   0.3996   0.0417
V22     V     0.8504   0.3996   0.0417
V23     V     0.8504   0.1004   0.0417
V24     V     0.1495   0.1004   0.0417
V25     V     0.6496   0.8996   0.5417
V26     V     0.6496   0.6004   0.5417
V27     V     0.3504   0.8996   0.5417
V28     V     0.3504   0.6004   0.5417
V29     V     0.8504   0.3996   0.7083
V30     V     0.1495   0.3996   0.7083
V31     V     0.8504   0.1005   0.7083
V32     V     0.1495   0.1004   0.7083
Er33     Er     0.6496   0.3995   0.625
Er34     Er     0.6496   0.1004   0.625
Er35     Er     0.3504   0.1005   0.625
Er36     Er     0.3504   0.3995   0.625
V37     V     0.6496   0.1005   0.7917
V38     V     0.3504   0.1004   0.7917
V39     V     0.3504   0.3996   0.7917
V40     V     0.6496   0.3996   0.7917
V41     V     0.8504   0.6004   0.9583
V42     V     0.8504   0.8996   0.9583
V43     V     0.1495   0.8996   0.9583
V44     V     0.1495   0.6004   0.9583
Er45     Er     0.1495   0.1005   0.875
Er46     Er     0.8504   0.1004   0.875
Er47     Er     0.1495   0.3995   0.875
Er48     Er     0.8504   0.3995   0.875
loop_
_geom_bond_atom_site_label_1
_geom_bond_atom_site_label_2
_geom_bond_distance
_geom_bond_site_symmetry_2
_ccdc_geom_bond_type
V1     Er10    10.0   1_545     S
V1     V2    10.0   .     S
V1     V4    10.0   .     S
V1     V25    10.0   1_545     S
V2     Er9    10.0   .     S
V2     V3    10.0   .     S
V2     V26    10.0   .     S
V3     Er11    10.0   .     S
V3     V4    10.0   .     S
V3     V28    10.0   .     S
V4     Er12    10.0   1_545     S
V4     V27    10.0   1_545     S
V5     Er9    10.0   .     S
V5     V7    10.0   .     S
V5     V6    10.0   1_655     S
V5     V14    10.0   .     S
V6     Er11    10.0   .     S
V6     V8    10.0   .     S
V6     V5    10.0   1_455     S
V6     V16    10.0   .     S
V7     Er10    10.0   .     S
V7     V8    10.0   1_655     S
V7     V13    10.0   .     S
V8     Er12    10.0   .     S
V8     V7    10.0   1_455     S
V8     V15    10.0   .     S
Er9     Er10    10.0   .     S
Er9     Er11    10.0   .     S
Er10     V1    10.0   1_565     S
Er10     Er12    10.0   .     S
Er11     Er12    10.0   .     S
Er12     V4    10.0   1_565     S
V13     Er20    10.0   .     S
V13     V14    10.0   .     S
V13     V15    10.0   .     S
V14     Er17    10.0   .     S
V14     V16    10.0   .     S
V15     Er19    10.0   .     S
V15     V16    10.0   .     S
V16     Er18    10.0   .     S
Er17     Er20    10.0   .     S
Er17     Er18    10.0   1_655     S
Er17     V22    10.0   .     S
Er18     Er19    10.0   .     S
Er18     Er17    10.0   1_455     S
Er18     V21    10.0   .     S
Er19     Er20    10.0   1_455     S
Er19     V24    10.0   1_565     S
Er20     Er19    10.0   1_655     S
Er20     V23    10.0   1_565     S
V21     V22    10.0   1_455     S
V21     V24    10.0   .     S
V21     V44    10.0   1_554     S
V22     V21    10.0   1_655     S
V22     V23    10.0   .     S
V22     V41    10.0   1_554     S
V23     Er20    10.0   1_545     S
V23     V24    10.0   1_655     S
V23     V42    10.0   1_544     S
V24     Er19    10.0   1_545     S
V24     V23    10.0   1_455     S
V24     V43    10.0   1_544     S
V25     V1    10.0   1_565     S
V25     Er34    10.0   1_565     S
V25     V26    10.0   .     S
V25     V27    10.0   .     S
V26     Er33    10.0   .     S
V26     V28    10.0   .     S
V27     V4    10.0   1_565     S
V27     Er35    10.0   1_565     S
V27     V28    10.0   .     S
V28     Er36    10.0   .     S
V29     Er33    10.0   .     S
V29     V30    10.0   1_655     S
V29     V31    10.0   .     S
V29     V40    10.0   .     S
V30     Er36    10.0   .     S
V30     V29    10.0   1_455     S
V30     V32    10.0   .     S
V30     V39    10.0   .     S
V31     Er34    10.0   .     S
V31     V32    10.0   1_655     S
V31     V37    10.0   .     S
V32     Er35    10.0   .     S
V32     V31    10.0   1_455     S
V32     V38    10.0   .     S
Er33     Er34    10.0   .     S
Er33     Er36    10.0   .     S
Er34     V25    10.0   1_545     S
Er34     Er35    10.0   .     S
Er35     V27    10.0   1_545     S
Er35     Er36    10.0   .     S
V37     Er46    10.0   .     S
V37     V40    10.0   .     S
V37     V38    10.0   .     S
V38     Er45    10.0   .     S
V38     V39    10.0   .     S
V39     Er47    10.0   .     S
V39     V40    10.0   .     S
V40     Er48    10.0   .     S
V41     Er48    10.0   .     S
V41     V42    10.0   .     S
V41     V44    10.0   1_655     S
V41     V22    10.0   1_556     S
V42     V23    10.0   1_566     S
V42     Er46    10.0   1_565     S
V42     V43    10.0   1_655     S
V43     V24    10.0   1_566     S
V43     Er45    10.0   1_565     S
V43     V44    10.0   .     S
V43     V42    10.0   1_455     S
V44     V21    10.0   1_556     S
V44     Er47    10.0   .     S
V44     V41    10.0   1_455     S
Er45     V43    10.0   1_545     S
Er45     Er46    10.0   1_455     S
Er45     Er47    10.0   .     S
Er46     V42    10.0   1_545     S
Er46     Er45    10.0   1_655     S
Er46     Er48    10.0   .     S
Er47     Er48    10.0   1_455     S
Er48     Er47    10.0   1_655     S
