data_thj
_audit_creation_date              2020-02-02
_audit_creation_method            'Pymatgen'
_symmetry_space_group_name_H-M    'P1'
_symmetry_Int_Tables_number       1
loop_
_symmetry_equiv_pos_as_xyz
  x,y,z
_cell_length_a                    15.2206
_cell_length_b                    18.119
_cell_length_c                    41.061
_cell_angle_alpha                 90.0
_cell_angle_beta                 90.0
_cell_angle_gamma                 90.0
loop_
_atom_site_label
_atom_site_type_symbol
_atom_site_fract_x
_atom_site_fract_y
_atom_site_fract_z
V1     V     0.3609   0.5   0.25
V2     V     0.6391   0.0   0.25
Er3     Er     0.5   0.75   0.921
Er4     Er     0.0   0.75   0.079
Er5     Er     0.0   0.25   0.421
Er6     Er     0.5   0.25   0.579
V7     V     0.1391   0.5   0.75
V8     V     0.8609   0.0   0.75
loop_
_geom_bond_atom_site_label_1
_geom_bond_atom_site_label_2
_geom_bond_distance
_geom_bond_site_symmetry_2
_ccdc_geom_bond_type
V1     Er4    10.0   .     S
V1     Er5    10.0   .     S
V1     V2    10.0   .     S
V1     V2    10.0   1_565     S
V2     Er4    10.0   1_645     S
V2     Er5    10.0   1_655     S
V2     V1    10.0   1_545     S
Er3     Er4    10.0   1_556     S
Er3     Er4    10.0   1_656     S
Er3     V7    10.0   .     S
Er3     V8    10.0   1_565     S
Er4     V2    10.0   1_465     S
Er4     Er3    10.0   1_554     S
Er4     Er3    10.0   1_454     S
Er5     V2    10.0   1_455     S
Er5     Er6    10.0   1_455     S
Er5     Er6    10.0   .     S
Er6     Er5    10.0   1_655     S
Er6     V7    10.0   .     S
Er6     V8    10.0   .     S
V7     V8    10.0   1_465     S
V7     V8    10.0   1_455     S
V8     Er3    10.0   1_545     S
V8     V7    10.0   1_645     S
V8     V7    10.0   1_655     S
