data_thl
_audit_creation_date              2020-02-02
_audit_creation_method            'Pymatgen'
_symmetry_space_group_name_H-M    'P1'
_symmetry_Int_Tables_number       1
loop_
_symmetry_equiv_pos_as_xyz
  x,y,z
_cell_length_a                    20.5397
_cell_length_b                    26.19
_cell_length_c                    29.0077
_cell_angle_alpha                 90.0
_cell_angle_beta                 105.4833
_cell_angle_gamma                 90.0
loop_
_atom_site_label
_atom_site_type_symbol
_atom_site_fract_x
_atom_site_fract_y
_atom_site_fract_z
Ti1     Ti     0.4124   0.9423   0.7699
V2     V     0.6484   0.7615   0.5573
Ti3     Ti     0.5876   0.0577   0.2301
V4     V     0.3516   0.2385   0.4427
Er5     Er     0.0   0.0   0.5
Ti6     Ti     0.5876   0.4423   0.7301
V7     V     0.3516   0.2615   0.9427
Ti8     Ti     0.4124   0.5577   0.2699
V9     V     0.6484   0.7385   0.0573
Er10     Er     0.0   0.5   0.0
loop_
_geom_bond_atom_site_label_1
_geom_bond_atom_site_label_2
_geom_bond_distance
_geom_bond_site_symmetry_2
_ccdc_geom_bond_type
Ti1     V2    9.994   .     S
Ti1     Er5    9.995   1_565     S
Ti1     V9    9.997   1_556     S
Ti1     V7    9.997   1_565     S
V2     Ti8    9.997   .     S
V2     Ti6    9.997   .     S
V2     Er5    10.017   1_665     S
Ti3     V4    9.994   .     S
Ti3     Er5    9.995   1_655     S
Ti3     V7    9.997   1_554     S
Ti3     V9    9.997   1_545     S
V4     Ti6    9.997   .     S
V4     Ti8    9.997   .     S
V4     Er5    10.017   .     S
Er5     Ti1    9.995   1_545     S
Er5     Ti3    9.995   1_455     S
Er5     V2    10.017   1_445     S
Ti6     V7    9.994   .     S
Ti6     Er10    9.995   1_656     S
V7     Ti3    9.997   1_556     S
V7     Ti1    9.997   1_545     S
V7     Er10    10.017   1_556     S
Ti8     V9    9.994   .     S
Ti8     Er10    9.995   .     S
V9     Ti1    9.997   1_554     S
V9     Ti3    9.997   1_565     S
V9     Er10    10.017   1_655     S
Er10     Ti6    9.995   1_454     S
Er10     V9    10.017   1_455     S
Er10     V7    10.017   1_554     S
