data_thse
_audit_creation_date              2020-02-02
_audit_creation_method            'Pymatgen'
_symmetry_space_group_name_H-M    'P1'
_symmetry_Int_Tables_number       1
loop_
_symmetry_equiv_pos_as_xyz
  x,y,z
_cell_length_a                    20.0
_cell_length_b                    20.0
_cell_length_c                    69.282
_cell_angle_alpha                 90.0
_cell_angle_beta                 90.0
_cell_angle_gamma                 90.0
loop_
_atom_site_label
_atom_site_type_symbol
_atom_site_fract_x
_atom_site_fract_y
_atom_site_fract_z
V1     V     0.5   0.75   0.875
V2     V     0.0   0.75   0.625
Er3     Er     0.5   0.0   0.0
Er4     Er     0.5   0.5   0.0
Er5     Er     0.25   0.25   0.25
V6     V     0.5   0.25   0.125
Er7     Er     0.75   0.25   0.25
V8     V     0.0   0.25   0.375
Er9     Er     0.0   0.0   0.5
Er10     Er     0.0   0.5   0.5
Er11     Er     0.25   0.75   0.75
Er12     Er     0.75   0.75   0.75
loop_
_geom_bond_atom_site_label_1
_geom_bond_atom_site_label_2
_geom_bond_distance
_geom_bond_site_symmetry_2
_ccdc_geom_bond_type
V1     Er11    10.0   .     S
V1     Er12    10.0   .     S
V1     Er3    10.0   1_566     S
V1     Er4    10.0   1_556     S
V2     Er11    10.0   .     S
V2     Er12    10.0   1_455     S
V2     Er9    10.0   1_565     S
V2     Er10    10.0   .     S
Er3     V1    10.0   1_544     S
Er3     Er4    10.0   1_545     S
Er3     V6    10.0   .     S
Er3     Er4    10.0   .     S
Er4     Er3    10.0   1_565     S
Er4     V1    10.0   1_554     S
Er4     V6    10.0   .     S
Er5     V6    10.0   .     S
Er5     Er7    10.0   .     S
Er5     V8    10.0   .     S
Er5     Er7    10.0   1_455     S
V6     Er7    10.0   .     S
Er7     V8    10.0   1_655     S
Er7     Er5    10.0   1_655     S
V8     Er9    10.0   .     S
V8     Er7    10.0   1_455     S
V8     Er10    10.0   .     S
Er9     V2    10.0   1_545     S
Er9     Er10    10.0   .     S
Er9     Er10    10.0   1_545     S
Er10     Er9    10.0   1_565     S
Er11     Er12    10.0   1_455     S
Er11     Er12    10.0   .     S
Er12     V2    10.0   1_655     S
Er12     Er11    10.0   1_655     S
