data_tmd
_audit_creation_date              2020-02-02
_audit_creation_method            'Pymatgen'
_symmetry_space_group_name_H-M    'P1'
_symmetry_Int_Tables_number       1
loop_
_symmetry_equiv_pos_as_xyz
  x,y,z
_cell_length_a                    74.4903
_cell_length_b                    74.4903
_cell_length_c                    43.3096
_cell_angle_alpha                 90.0
_cell_angle_beta                 90.0
_cell_angle_gamma                 90.0
loop_
_atom_site_label
_atom_site_type_symbol
_atom_site_fract_x
_atom_site_fract_y
_atom_site_fract_z
H1     H     0.7232   0.6282   0.0
H2     H     0.6282   0.7232   0.0
H3     H     0.2232   0.1282   0.5
H4     H     0.1282   0.2232   0.5
H5     H     0.2232   0.8718   0.5
H6     H     0.1282   0.7768   0.5
H7     H     0.8718   0.2232   0.5
H8     H     0.7768   0.1282   0.5
H9     H     0.7768   0.8718   0.5
H10     H     0.8718   0.7768   0.5
H11     H     0.6282   0.2768   0.0
H12     H     0.7232   0.3718   0.0
H13     H     0.2768   0.6282   0.0
H14     H     0.3718   0.7232   0.0
H15     H     0.2768   0.3718   0.0
H16     H     0.3718   0.2768   0.0
Er17     Er     0.2989   0.5671   0.798
Er18     Er     0.2989   0.4329   0.798
Er19     Er     0.5671   0.2989   0.798
Er20     Er     0.4329   0.2989   0.798
Er21     Er     0.2989   0.5671   0.202
Er22     Er     0.2989   0.4329   0.202
Er23     Er     0.5671   0.2989   0.202
Er24     Er     0.4329   0.2989   0.202
Er25     Er     0.7011   0.5671   0.798
Er26     Er     0.7011   0.4329   0.798
Er27     Er     0.5671   0.7011   0.798
Er28     Er     0.4329   0.7011   0.798
Er29     Er     0.5671   0.7011   0.202
Er30     Er     0.4329   0.7011   0.202
Er31     Er     0.7011   0.5671   0.202
Er32     Er     0.7011   0.4329   0.202
V33     V     0.5   0.5   0.3846
Ce34     Ce     0.5922   0.5922   0.3301
Ce35     Ce     0.5922   0.4078   0.3301
Ce36     Ce     0.4078   0.5922   0.3301
Ce37     Ce     0.4078   0.4078   0.3301
V38     V     0.5   0.5   0.6155
Ce39     Ce     0.5922   0.5922   0.6699
Ce40     Ce     0.5922   0.4078   0.6699
Ce41     Ce     0.4078   0.5922   0.6699
Ce42     Ce     0.4078   0.4078   0.6699
S43     S     0.6565   0.6565   0.5
S44     S     0.6565   0.3435   0.5
S45     S     0.3435   0.3435   0.5
S46     S     0.3435   0.6565   0.5
S47     S     0.1565   0.1565   0.0
S48     S     0.1565   0.8435   0.0
He49     He     0.8297   0.29   0.0
He50     He     0.8297   0.71   0.0
He51     He     0.1703   0.29   0.0
He52     He     0.79   0.3297   0.5
He53     He     0.21   0.6703   0.5
He54     He     0.21   0.3297   0.5
He55     He     0.79   0.6703   0.5
He56     He     0.1703   0.71   0.0
Li57     Li     0.1091   0.5   0.6155
Ti58     Ti     0.1016   0.3157   0.8066
Ti59     Ti     0.1843   0.3984   0.6934
Li60     Li     0.0   0.3909   0.8846
Ti61     Ti     0.8157   0.3984   0.6934
Ti62     Ti     0.8984   0.3157   0.8066
Li63     Li     0.8909   0.5   0.6155
Ti64     Ti     0.8984   0.6843   0.8066
Ti65     Ti     0.8157   0.6016   0.6934
Li66     Li     0.0   0.6091   0.8846
Ti67     Ti     0.1016   0.6843   0.8066
Ti68     Ti     0.1843   0.6016   0.6934
Li69     Li     0.0   0.6091   0.1154
Ti70     Ti     0.1016   0.6843   0.1934
Ti71     Ti     0.1843   0.6016   0.3066
Li72     Li     0.1091   0.5   0.3846
Ti73     Ti     0.1016   0.3157   0.1934
Ti74     Ti     0.1843   0.3984   0.3066
Li75     Li     0.0   0.3909   0.1154
Ti76     Ti     0.8157   0.3984   0.3066
Ti77     Ti     0.8984   0.3157   0.1934
Li78     Li     0.8909   0.5   0.3846
Ti79     Ti     0.8157   0.6016   0.3066
Ti80     Ti     0.8984   0.6843   0.1934
S81     S     0.8435   0.8435   0.0
S82     S     0.8435   0.1565   0.0
He83     He     0.29   0.8297   0.0
He84     He     0.71   0.8297   0.0
He85     He     0.29   0.1703   0.0
He86     He     0.6703   0.79   0.5
He87     He     0.3297   0.21   0.5
He88     He     0.6703   0.21   0.5
He89     He     0.3297   0.79   0.5
He90     He     0.71   0.1703   0.0
Li91     Li     0.5   0.1091   0.6155
Ti92     Ti     0.3157   0.1016   0.8066
Ti93     Ti     0.3984   0.1843   0.6934
Li94     Li     0.3909   0.0   0.8846
Ti95     Ti     0.3984   0.8157   0.6934
Ti96     Ti     0.3157   0.8984   0.8066
Li97     Li     0.5   0.8909   0.6155
Ti98     Ti     0.6843   0.1016   0.8066
Ti99     Ti     0.6016   0.1843   0.6934
Li100     Li     0.6091   0.0   0.8846
Ti101     Ti     0.6843   0.8984   0.8066
Ti102     Ti     0.6016   0.8157   0.6934
Li103     Li     0.6091   0.0   0.1154
Ti104     Ti     0.6016   0.8157   0.3066
Ti105     Ti     0.6843   0.8984   0.1934
Li106     Li     0.5   0.8909   0.3846
Ti107     Ti     0.3984   0.8157   0.3066
Ti108     Ti     0.3157   0.8984   0.1934
Li109     Li     0.3909   0.0   0.1154
Ti110     Ti     0.3984   0.1843   0.3066
Ti111     Ti     0.3157   0.1016   0.1934
Ti112     Ti     0.6843   0.1016   0.1934
Ti113     Ti     0.6016   0.1843   0.3066
Li114     Li     0.5   0.1091   0.3846
Be115     Be     0.0   0.5   0.75
Be116     Be     0.5   0.0   0.75
Be117     Be     0.0   0.5   0.25
Be118     Be     0.5   0.0   0.25
Er119     Er     0.7989   0.0671   0.7021
Er120     Er     0.7989   0.9329   0.7021
Er121     Er     0.0671   0.7989   0.7021
Er122     Er     0.9329   0.7989   0.7021
Er123     Er     0.0671   0.2011   0.7021
Er124     Er     0.9329   0.2011   0.7021
Er125     Er     0.2011   0.0671   0.7021
Er126     Er     0.2011   0.9329   0.7021
Er127     Er     0.0671   0.7989   0.298
Er128     Er     0.9329   0.7989   0.298
Er129     Er     0.7989   0.0671   0.298
Er130     Er     0.7989   0.9329   0.298
Er131     Er     0.0671   0.2011   0.298
Er132     Er     0.9329   0.2011   0.298
Er133     Er     0.2011   0.0671   0.298
Er134     Er     0.2011   0.9329   0.298
V135     V     0.0   0.0   0.8846
Ce136     Ce     0.9078   0.9078   0.8301
Ce137     Ce     0.0922   0.9078   0.8301
Ce138     Ce     0.9078   0.0922   0.8301
Ce139     Ce     0.0922   0.0922   0.8301
V140     V     0.0   0.0   0.1154
Ce141     Ce     0.9078   0.9078   0.1699
Ce142     Ce     0.9078   0.0922   0.1699
Ce143     Ce     0.0922   0.9078   0.1699
Ce144     Ce     0.0922   0.0922   0.1699
loop_
_geom_bond_atom_site_label_1
_geom_bond_atom_site_label_2
_geom_bond_distance
_geom_bond_site_symmetry_2
_ccdc_geom_bond_type
H1     H2    9.999   .     S
H1     Er31    10.0   .     S
H1     Er25    10.0   1_554     S
H1     He50    10.0   .     S
H2     Er29    10.0   .     S
H2     Er27    10.0   1_554     S
H2     He84    10.0   .     S
H3     H4    9.999   .     S
H3     Er133    10.0   .     S
H3     Er125    10.0   .     S
H3     He87    10.0   .     S
H4     Er123    10.0   .     S
H4     Er131    10.0   .     S
H4     He54    10.0   .     S
H5     H6    9.999   .     S
H5     Er126    10.0   .     S
H5     Er134    10.0   .     S
H5     He89    10.0   .     S
H6     Er127    10.0   .     S
H6     Er121    10.0   .     S
H6     He53    10.0   .     S
H7     H8    9.999   .     S
H7     Er132    10.0   .     S
H7     Er124    10.0   .     S
H7     He52    10.0   .     S
H8     Er119    10.0   .     S
H8     Er129    10.0   .     S
H8     He88    10.0   .     S
H9     H10    9.999   .     S
H9     Er130    10.0   .     S
H9     Er120    10.0   .     S
H9     He86    10.0   .     S
H10     Er122    10.0   .     S
H10     Er128    10.0   .     S
H10     He55    10.0   .     S
H11     H12    9.999   .     S
H11     Er23    10.0   .     S
H11     Er19    10.0   1_554     S
H11     He90    10.0   .     S
H12     Er32    10.0   .     S
H12     Er26    10.0   1_554     S
H12     He49    10.0   .     S
H13     H14    9.999   .     S
H13     Er21    10.0   .     S
H13     Er17    10.0   1_554     S
H13     He56    10.0   .     S
H14     Er30    10.0   .     S
H14     Er28    10.0   1_554     S
H14     He83    10.0   .     S
H15     H16    9.999   .     S
H15     Er22    10.0   .     S
H15     Er18    10.0   1_554     S
H15     He51    10.0   .     S
H16     Er24    10.0   .     S
H16     Er20    10.0   1_554     S
H16     He85    10.0   .     S
Er17     H13    10.0   1_556     S
Er17     Er18    10.0   .     S
Er17     Ce41    10.0   .     S
Er17     Ti68    10.001   .     S
Er18     H15    10.0   1_556     S
Er18     Ce42    10.0   .     S
Er18     Ti59    10.001   .     S
Er19     H11    10.0   1_556     S
Er19     Er20    10.0   .     S
Er19     Ce40    10.0   .     S
Er19     Ti99    10.001   .     S
Er20     H16    10.0   1_556     S
Er20     Ce42    10.0   .     S
Er20     Ti93    10.001   .     S
Er21     Er22    10.0   .     S
Er21     Ce36    10.0   .     S
Er21     Ti71    10.001   .     S
Er22     Ce37    10.0   .     S
Er22     Ti74    10.001   .     S
Er23     Er24    10.0   .     S
Er23     Ce35    10.0   .     S
Er23     Ti113    10.001   .     S
Er24     Ce37    10.0   .     S
Er24     Ti110    10.001   .     S
Er25     H1    10.0   1_556     S
Er25     Er26    10.0   .     S
Er25     Ce39    10.0   .     S
Er25     Ti65    10.001   .     S
Er26     H12    10.0   1_556     S
Er26     Ce40    10.0   .     S
Er26     Ti61    10.001   .     S
Er27     H2    10.0   1_556     S
Er27     Er28    10.0   .     S
Er27     Ce39    10.0   .     S
Er27     Ti102    10.001   .     S
Er28     H14    10.0   1_556     S
Er28     Ce41    10.0   .     S
Er28     Ti95    10.001   .     S
Er29     Er30    10.0   .     S
Er29     Ce34    10.0   .     S
Er29     Ti104    10.001   .     S
Er30     Ce36    10.0   .     S
Er30     Ti107    10.001   .     S
Er31     Er32    10.0   .     S
Er31     Ce34    10.0   .     S
Er31     Ti79    10.001   .     S
Er32     Ce35    10.0   .     S
Er32     Ti76    10.001   .     S
V33     Ce37    9.999   .     S
V33     Ce35    9.999   .     S
V33     Ce36    9.999   .     S
V33     Ce34    9.999   .     S
V33     V38    10.0   .     S
Ce34     S43    10.001   .     S
Ce35     S44    10.001   .     S
Ce36     S46    10.001   .     S
Ce37     S45    10.001   .     S
V38     Ce42    9.999   .     S
V38     Ce40    9.999   .     S
V38     Ce41    9.999   .     S
V38     Ce39    9.999   .     S
Ce39     S43    10.001   .     S
Ce40     S44    10.001   .     S
Ce41     S46    10.001   .     S
Ce42     S45    10.001   .     S
S43     He86    10.0   .     S
S43     He55    10.0   .     S
S44     He88    10.0   .     S
S44     He52    10.0   .     S
S45     He87    10.0   .     S
S45     He54    10.0   .     S
S46     He53    10.0   .     S
S46     He89    10.0   .     S
S47     He51    10.0   .     S
S47     He85    10.0   .     S
S47     Ce139    10.001   1_554     S
S47     Ce144    10.001   .     S
S48     He56    10.0   .     S
S48     He83    10.0   .     S
S48     Ce143    10.001   .     S
S48     Ce137    10.001   1_554     S
He49     Ti62    10.0   1_554     S
He49     Ti77    10.0   .     S
He49     S82    10.0   .     S
He50     Ti64    10.0   1_554     S
He50     Ti80    10.0   .     S
He50     S81    10.0   .     S
He51     Ti58    10.0   1_554     S
He51     Ti73    10.0   .     S
He52     Ti76    10.0   .     S
He52     Ti61    10.0   .     S
He53     Ti71    10.0   .     S
He53     Ti68    10.0   .     S
He54     Ti74    10.0   .     S
He54     Ti59    10.0   .     S
He55     Ti79    10.0   .     S
He55     Ti65    10.0   .     S
He56     Ti67    10.0   1_554     S
He56     Ti70    10.0   .     S
Li57     Be115    10.0   .     S
Li57     Ti68    10.0   .     S
Li57     Ti59    10.0   .     S
Li57     Li72    10.0   .     S
Ti58     He51    10.0   1_556     S
Ti58     Ti59    9.999   .     S
Ti58     Li60    10.0   .     S
Ti58     Er123    10.001   .     S
Li60     Be115    10.0   .     S
Li60     Ti62    10.0   1_455     S
Li60     Li75    10.0   1_556     S
Ti61     Ti62    9.999   .     S
Ti61     Li63    10.0   .     S
Ti62     He49    10.0   1_556     S
Ti62     Li60    10.0   1_655     S
Ti62     Er124    10.001   .     S
Li63     Be115    10.0   1_655     S
Li63     Ti65    10.0   .     S
Li63     Li78    10.0   .     S
Ti64     He50    10.0   1_556     S
Ti64     Ti65    9.999   .     S
Ti64     Li66    10.0   1_655     S
Ti64     Er122    10.001   .     S
Li66     Ti64    10.0   1_455     S
Li66     Be115    10.0   .     S
Li66     Ti67    10.0   .     S
Li66     Li69    10.0   1_556     S
Ti67     He56    10.0   1_556     S
Ti67     Ti68    9.999   .     S
Ti67     Er121    10.001   .     S
Li69     Be117    10.0   .     S
Li69     Ti70    10.0   .     S
Li69     Ti80    10.0   1_455     S
Li69     Li66    10.0   1_554     S
Ti70     Ti71    9.999   .     S
Ti70     Er127    10.001   .     S
Ti71     Li72    10.0   .     S
Li72     Be117    10.0   .     S
Li72     Ti74    10.0   .     S
Ti73     Ti74    9.999   .     S
Ti73     Li75    10.0   .     S
Ti73     Er131    10.001   .     S
Li75     Be117    10.0   .     S
Li75     Ti77    10.0   1_455     S
Li75     Li60    10.0   1_554     S
Ti76     Ti77    9.999   .     S
Ti76     Li78    10.0   .     S
Ti77     Li75    10.0   1_655     S
Ti77     Er132    10.001   .     S
Li78     Be117    10.0   1_655     S
Li78     Ti79    10.0   .     S
Ti79     Ti80    9.999   .     S
Ti80     Li69    10.0   1_655     S
Ti80     Er128    10.001   .     S
S81     He84    10.0   .     S
S81     Ce141    10.001   .     S
S81     Ce136    10.001   1_554     S
S82     He90    10.0   .     S
S82     Ce142    10.001   .     S
S82     Ce138    10.001   1_554     S
He83     Ti96    10.0   1_554     S
He83     Ti108    10.0   .     S
He84     Ti101    10.0   1_554     S
He84     Ti105    10.0   .     S
He85     Ti92    10.0   1_554     S
He85     Ti111    10.0   .     S
He86     Ti104    10.0   .     S
He86     Ti102    10.0   .     S
He87     Ti110    10.0   .     S
He87     Ti93    10.0   .     S
He88     Ti113    10.0   .     S
He88     Ti99    10.0   .     S
He89     Ti107    10.0   .     S
He89     Ti95    10.0   .     S
He90     Ti98    10.0   1_554     S
He90     Ti112    10.0   .     S
Li91     Be116    10.0   .     S
Li91     Ti93    10.0   .     S
Li91     Ti99    10.0   .     S
Li91     Li114    10.0   .     S
Ti92     He85    10.0   1_556     S
Ti92     Ti93    9.999   .     S
Ti92     Li94    10.0   .     S
Ti92     Er125    10.001   .     S
Li94     Be116    10.0   .     S
Li94     Ti96    10.0   1_545     S
Li94     Li109    10.0   1_556     S
Ti95     Ti96    9.999   .     S
Ti95     Li97    10.0   .     S
Ti96     He83    10.0   1_556     S
Ti96     Li94    10.0   1_565     S
Ti96     Er126    10.001   .     S
Li97     Be116    10.0   1_565     S
Li97     Ti102    10.0   .     S
Li97     Li106    10.0   .     S
Ti98     He90    10.0   1_556     S
Ti98     Ti99    9.999   .     S
Ti98     Li100    10.0   .     S
Ti98     Er119    10.001   .     S
Li100     Be116    10.0   .     S
Li100     Ti101    10.0   1_545     S
Li100     Li103    10.0   1_556     S
Ti101     He84    10.0   1_556     S
Ti101     Ti102    9.999   .     S
Ti101     Li100    10.0   1_565     S
Ti101     Er120    10.001   .     S
Li103     Be118    10.0   .     S
Li103     Ti105    10.0   1_545     S
Li103     Ti112    10.0   .     S
Li103     Li100    10.0   1_554     S
Ti104     Ti105    9.999   .     S
Ti104     Li106    10.0   .     S
Ti105     Li103    10.0   1_565     S
Ti105     Er130    10.001   .     S
Li106     Be118    10.0   1_565     S
Li106     Ti107    10.0   .     S
Ti107     Ti108    9.999   .     S
Ti108     Li109    10.0   1_565     S
Ti108     Er134    10.001   .     S
Li109     Ti108    10.0   1_545     S
Li109     Be118    10.0   .     S
Li109     Ti111    10.0   .     S
Li109     Li94    10.0   1_554     S
Ti110     Ti111    9.999   .     S
Ti110     Li114    10.0   .     S
Ti111     Er133    10.001   .     S
Ti112     Ti113    9.999   .     S
Ti112     Er129    10.001   .     S
Ti113     Li114    10.0   .     S
Li114     Be118    10.0   .     S
Be115     Li63    10.0   1_455     S
Be116     Li97    10.0   1_545     S
Be117     Li78    10.0   1_455     S
Be118     Li106    10.0   1_545     S
Er119     Er120    10.0   1_545     S
Er119     Ce138    10.0   .     S
Er120     Er119    10.0   1_565     S
Er120     Ce136    10.0   .     S
Er121     Er122    10.0   1_455     S
Er121     Ce137    10.0   .     S
Er122     Er121    10.0   1_655     S
Er122     Ce136    10.0   .     S
Er123     Er124    10.0   1_455     S
Er123     Ce139    10.0   .     S
Er124     Er123    10.0   1_655     S
Er124     Ce138    10.0   .     S
Er125     Er126    10.0   1_545     S
Er125     Ce139    10.0   .     S
Er126     Er125    10.0   1_565     S
Er126     Ce137    10.0   .     S
Er127     Er128    10.0   1_455     S
Er127     Ce143    10.0   .     S
Er128     Er127    10.0   1_655     S
Er128     Ce141    10.0   .     S
Er129     Er130    10.0   1_545     S
Er129     Ce142    10.0   .     S
Er130     Er129    10.0   1_565     S
Er130     Ce141    10.0   .     S
Er131     Er132    10.0   1_455     S
Er131     Ce144    10.0   .     S
Er132     Er131    10.0   1_655     S
Er132     Ce142    10.0   .     S
Er133     Er134    10.0   1_545     S
Er133     Ce144    10.0   .     S
Er134     Er133    10.0   1_565     S
Er134     Ce143    10.0   .     S
V135     Ce139    9.999   .     S
V135     Ce137    9.999   1_545     S
V135     Ce138    9.999   1_455     S
V135     Ce136    9.999   1_445     S
V135     V140    10.0   1_556     S
Ce136     V135    9.999   1_665     S
Ce136     S81    10.001   1_556     S
Ce137     V135    9.999   1_565     S
Ce137     S48    10.001   1_556     S
Ce138     V135    9.999   1_655     S
Ce138     S82    10.001   1_556     S
Ce139     S47    10.001   1_556     S
V140     Ce144    9.999   .     S
V140     Ce142    9.999   1_455     S
V140     Ce143    9.999   1_545     S
V140     Ce141    9.999   1_445     S
V140     V135    10.0   1_554     S
Ce141     V140    9.999   1_665     S
Ce142     V140    9.999   1_655     S
Ce143     V140    9.999   1_565     S
