data_toca
_audit_creation_date              2020-02-02
_audit_creation_method            'Pymatgen'
_symmetry_space_group_name_H-M    'P1'
_symmetry_Int_Tables_number       1
loop_
_symmetry_equiv_pos_as_xyz
  x,y,z
_cell_length_a                    52.5179
_cell_length_b                    52.5179
_cell_length_c                    52.5179
_cell_angle_alpha                 90.0
_cell_angle_beta                 90.0
_cell_angle_gamma                 90.0
loop_
_atom_site_label
_atom_site_type_symbol
_atom_site_fract_x
_atom_site_fract_y
_atom_site_fract_z
V1     V     0.1827   0.8173   0.3173
V2     V     0.3173   0.8173   0.1827
V3     V     0.1827   0.6827   0.1827
V4     V     0.3173   0.6827   0.3173
V5     V     0.8173   0.3173   0.1827
V6     V     0.8173   0.1827   0.3173
V7     V     0.6827   0.1827   0.1827
V8     V     0.6827   0.3173   0.3173
V9     V     0.1827   0.3173   0.8173
V10     V     0.3173   0.1827   0.8173
V11     V     0.1827   0.1827   0.6827
V12     V     0.3173   0.3173   0.6827
Er13     Er     0.4551   0.5898   0.5898
Er14     Er     0.5898   0.4551   0.5898
Er15     Er     0.4102   0.4102   0.5449
Er16     Er     0.5898   0.5898   0.4551
Er17     Er     0.5449   0.4102   0.4102
Er18     Er     0.4102   0.5449   0.4102
V19     V     0.1827   0.6827   0.8173
V20     V     0.1827   0.8173   0.6827
V21     V     0.3173   0.8173   0.8173
V22     V     0.3173   0.6827   0.6827
V23     V     0.8173   0.1827   0.6827
V24     V     0.6827   0.1827   0.8173
V25     V     0.8173   0.3173   0.8173
V26     V     0.6827   0.3173   0.6827
Er27     Er     0.0898   0.0898   0.5449
Er28     Er     0.0449   0.9102   0.5898
Er29     Er     0.9102   0.0449   0.5898
Er30     Er     0.9551   0.0898   0.4102
Er31     Er     0.0898   0.9551   0.4102
Er32     Er     0.9102   0.9102   0.4551
Er33     Er     0.5449   0.0898   0.0898
Er34     Er     0.5898   0.0449   0.9102
Er35     Er     0.5898   0.9102   0.0449
Er36     Er     0.4102   0.9551   0.0898
Er37     Er     0.4102   0.0898   0.9551
Er38     Er     0.4551   0.9102   0.9102
V39     V     0.8173   0.8173   0.3173
V40     V     0.6827   0.6827   0.3173
V41     V     0.8173   0.6827   0.1827
V42     V     0.6827   0.8173   0.1827
Er43     Er     0.0898   0.5449   0.0898
Er44     Er     0.0449   0.5898   0.9102
Er45     Er     0.9102   0.5898   0.0449
Er46     Er     0.0898   0.4102   0.9551
Er47     Er     0.9551   0.4102   0.0898
Er48     Er     0.9102   0.4551   0.9102
loop_
_geom_bond_atom_site_label_1
_geom_bond_atom_site_label_2
_geom_bond_distance
_geom_bond_site_symmetry_2
_ccdc_geom_bond_type
V1     V2    10.0   .     S
V1     V3    10.0   .     S
V1     V4    10.0   .     S
V1     Er31    10.0   .     S
V2     V3    10.0   .     S
V2     V4    10.0   .     S
V2     Er36    10.0   .     S
V3     V4    10.0   .     S
V3     Er43    10.0   .     S
V4     Er18    10.0   .     S
V5     V6    10.0   .     S
V5     V7    10.0   .     S
V5     V8    10.0   .     S
V5     Er47    10.0   .     S
V6     V7    10.0   .     S
V6     V8    10.0   .     S
V6     Er30    10.0   .     S
V7     V8    10.0   .     S
V7     Er33    10.0   .     S
V8     Er17    10.0   .     S
V9     V10    10.0   .     S
V9     V11    10.0   .     S
V9     V12    10.0   .     S
V9     Er46    10.0   .     S
V10     V11    10.0   .     S
V10     V12    10.0   .     S
V10     Er37    10.0   .     S
V11     V12    10.0   .     S
V11     Er27    10.0   .     S
V12     Er15    10.0   .     S
Er13     Er15    10.0   .     S
Er13     Er18    10.0   .     S
Er13     Er16    10.0   .     S
Er13     Er14    10.0   .     S
Er13     V22    10.0   .     S
Er14     Er16    10.0   .     S
Er14     Er17    10.0   .     S
Er14     Er15    10.0   .     S
Er14     V26    10.0   .     S
Er15     Er18    10.0   .     S
Er15     Er17    10.0   .     S
Er16     Er18    10.0   .     S
Er16     Er17    10.0   .     S
Er16     V40    10.0   .     S
Er17     Er18    10.0   .     S
V19     V20    10.0   .     S
V19     V21    10.0   .     S
V19     V22    10.0   .     S
V19     Er44    10.0   .     S
V20     V22    10.0   .     S
V20     V21    10.0   .     S
V20     Er28    10.0   .     S
V21     V22    10.0   .     S
V21     Er38    10.0   .     S
V23     V24    10.0   .     S
V23     V25    10.0   .     S
V23     V26    10.0   .     S
V23     Er29    10.0   .     S
V24     V26    10.0   .     S
V24     V25    10.0   .     S
V24     Er34    10.0   .     S
V25     V26    10.0   .     S
V25     Er48    10.0   .     S
Er27     Er28    10.0   1_545     S
Er27     Er29    10.0   1_455     S
Er27     Er31    10.0   1_545     S
Er27     Er30    10.0   1_455     S
Er28     Er27    10.0   1_565     S
Er28     Er31    10.0   .     S
Er28     Er29    10.0   1_465     S
Er28     Er32    10.0   1_455     S
Er29     Er27    10.0   1_655     S
Er29     Er30    10.0   .     S
Er29     Er32    10.0   1_545     S
Er29     Er28    10.0   1_645     S
Er30     Er31    10.0   1_645     S
Er30     Er27    10.0   1_655     S
Er30     Er32    10.0   1_545     S
Er31     Er27    10.0   1_565     S
Er31     Er30    10.0   1_465     S
Er31     Er32    10.0   1_455     S
Er32     Er29    10.0   1_565     S
Er32     Er28    10.0   1_655     S
Er32     Er31    10.0   1_655     S
Er32     Er30    10.0   1_565     S
Er32     V39    10.0   .     S
Er33     Er34    10.0   1_554     S
Er33     Er35    10.0   1_545     S
Er33     Er37    10.0   1_554     S
Er33     Er36    10.0   1_545     S
Er34     Er33    10.0   1_556     S
Er34     Er37    10.0   .     S
Er34     Er35    10.0   1_546     S
Er34     Er38    10.0   1_545     S
Er35     Er33    10.0   1_565     S
Er35     Er36    10.0   .     S
Er35     Er38    10.0   1_554     S
Er35     Er34    10.0   1_564     S
Er35     V42    10.0   .     S
Er36     Er37    10.0   1_564     S
Er36     Er33    10.0   1_565     S
Er36     Er38    10.0   1_554     S
Er37     Er36    10.0   1_546     S
Er37     Er33    10.0   1_556     S
Er37     Er38    10.0   1_545     S
Er38     Er35    10.0   1_556     S
Er38     Er34    10.0   1_565     S
Er38     Er37    10.0   1_565     S
Er38     Er36    10.0   1_556     S
V39     V40    10.0   .     S
V39     V42    10.0   .     S
V39     V41    10.0   .     S
V40     V41    10.0   .     S
V40     V42    10.0   .     S
V41     V42    10.0   .     S
V41     Er45    10.0   .     S
Er43     Er45    10.0   1_455     S
Er43     Er44    10.0   1_554     S
Er43     Er46    10.0   1_554     S
Er43     Er47    10.0   1_455     S
Er44     Er43    10.0   1_556     S
Er44     Er46    10.0   .     S
Er44     Er45    10.0   1_456     S
Er44     Er48    10.0   1_455     S
Er45     Er43    10.0   1_655     S
Er45     Er47    10.0   .     S
Er45     Er48    10.0   1_554     S
Er45     Er44    10.0   1_654     S
Er46     Er43    10.0   1_556     S
Er46     Er47    10.0   1_456     S
Er46     Er48    10.0   1_455     S
Er47     Er46    10.0   1_654     S
Er47     Er43    10.0   1_655     S
Er47     Er48    10.0   1_554     S
Er48     Er45    10.0   1_556     S
Er48     Er44    10.0   1_655     S
Er48     Er47    10.0   1_556     S
Er48     Er46    10.0   1_655     S
