data_tof
_audit_creation_date              2020-02-02
_audit_creation_method            'Pymatgen'
_symmetry_space_group_name_H-M    'P1'
_symmetry_Int_Tables_number       1
loop_
_symmetry_equiv_pos_as_xyz
  x,y,z
_cell_length_a                    24.2158
_cell_length_b                    24.2158
_cell_length_c                    24.2158
_cell_angle_alpha                 90.0
_cell_angle_beta                 90.0
_cell_angle_gamma                 90.0
loop_
_atom_site_label
_atom_site_type_symbol
_atom_site_fract_x
_atom_site_fract_y
_atom_site_fract_z
Er1     Er     0.8808   0.8808   0.8808
Er2     Er     0.8808   0.6192   0.6192
Er3     Er     0.6192   0.8808   0.6192
Er4     Er     0.6192   0.6192   0.8808
V5     V     0.75   0.75   0.25
V6     V     0.75   0.25   0.75
V7     V     0.25   0.75   0.75
Er8     Er     0.3808   0.3808   0.1192
Er9     Er     0.3808   0.1192   0.3808
Er10     Er     0.1192   0.3808   0.3808
Er11     Er     0.1192   0.1192   0.1192
V12     V     0.25   0.25   0.75
V13     V     0.75   0.25   0.25
V14     V     0.25   0.75   0.25
loop_
_geom_bond_atom_site_label_1
_geom_bond_atom_site_label_2
_geom_bond_distance
_geom_bond_site_symmetry_2
_ccdc_geom_bond_type
Er1     V7    10.0   1_655     S
Er1     V6    10.0   1_565     S
Er1     V5    10.0   1_556     S
Er1     Er11    10.0   1_666     S
Er2     V7    10.0   1_655     S
Er2     V6    10.0   .     S
Er2     V5    10.0   .     S
Er2     Er10    10.0   1_655     S
Er3     V7    10.0   .     S
Er3     V6    10.0   1_565     S
Er3     V5    10.0   .     S
Er3     Er9    10.0   1_565     S
Er4     V7    10.0   .     S
Er4     V5    10.0   1_556     S
Er4     V6    10.0   .     S
Er4     Er8    10.0   1_556     S
V5     Er4    10.0   1_554     S
V5     Er1    10.0   1_554     S
V6     Er3    10.0   1_545     S
V6     Er1    10.0   1_545     S
V7     Er1    10.0   1_455     S
V7     Er2    10.0   1_455     S
Er8     V14    10.0   .     S
Er8     V13    10.0   .     S
Er8     V12    10.0   1_554     S
Er8     Er4    10.0   1_554     S
Er9     V14    10.0   1_545     S
Er9     V12    10.0   .     S
Er9     V13    10.0   .     S
Er9     Er3    10.0   1_545     S
Er10     V13    10.0   1_455     S
Er10     V14    10.0   .     S
Er10     V12    10.0   .     S
Er10     Er2    10.0   1_455     S
Er11     V14    10.0   1_545     S
Er11     V13    10.0   1_455     S
Er11     V12    10.0   1_554     S
Er11     Er1    10.0   1_444     S
V12     Er11    10.0   1_556     S
V12     Er8    10.0   1_556     S
V13     Er11    10.0   1_655     S
V13     Er10    10.0   1_655     S
V14     Er11    10.0   1_565     S
V14     Er9    10.0   1_565     S
