data_tona
_audit_creation_date              2020-02-02
_audit_creation_method            'Pymatgen'
_symmetry_space_group_name_H-M    'P1'
_symmetry_Int_Tables_number       1
loop_
_symmetry_equiv_pos_as_xyz
  x,y,z
_cell_length_a                    61.1709
_cell_length_b                    61.1709
_cell_length_c                    61.1709
_cell_angle_alpha                 90.0
_cell_angle_beta                 90.0
_cell_angle_gamma                 90.0
loop_
_atom_site_label
_atom_site_type_symbol
_atom_site_fract_x
_atom_site_fract_y
_atom_site_fract_z
Er1     Er     0.92   0.92   0.3962
Er2     Er     0.8962   0.08   0.42
Er3     Er     0.08   0.8962   0.42
Er4     Er     0.1038   0.92   0.58
Er5     Er     0.92   0.1038   0.58
Er6     Er     0.08   0.08   0.6038
Er7     Er     0.3962   0.58   0.58
Er8     Er     0.58   0.3962   0.58
Er9     Er     0.58   0.58   0.3962
Er10     Er     0.6038   0.42   0.42
Er11     Er     0.42   0.6038   0.42
Er12     Er     0.42   0.42   0.6038
Er13     Er     0.58   0.1038   0.92
Er14     Er     0.58   0.92   0.1038
Er15     Er     0.6038   0.08   0.08
Er16     Er     0.3962   0.92   0.92
Er17     Er     0.42   0.8962   0.08
Er18     Er     0.42   0.08   0.8962
V19     V     0.6446   0.3079   0.3079
Ti20     Ti     0.75   0.25   0.4183
V21     V     0.8554   0.1921   0.3079
V22     V     0.6446   0.1921   0.1921
V23     V     0.8554   0.3079   0.1921
Ti24     Ti     0.75   0.25   0.0817
Ti25     Ti     0.75   0.0817   0.25
Ti26     Ti     0.75   0.4183   0.25
V27     V     0.8079   0.8079   0.3555
V28     V     0.6921   0.8079   0.1445
Ti29     Ti     0.75   0.9183   0.25
V30     V     0.8079   0.6921   0.1445
Ti31     Ti     0.75   0.5817   0.25
Ti32     Ti     0.9183   0.75   0.25
V33     V     0.6921   0.6921   0.3555
Ti34     Ti     0.5817   0.75   0.25
V35     V     0.3079   0.8554   0.1921
Ti36     Ti     0.25   0.75   0.0817
V37     V     0.1921   0.6446   0.1921
V38     V     0.1921   0.8554   0.3079
Ti39     Ti     0.0817   0.75   0.25
V40     V     0.3079   0.6446   0.3079
Ti41     Ti     0.25   0.75   0.4183
Ti42     Ti     0.4183   0.75   0.25
V43     V     0.3555   0.8079   0.8079
V44     V     0.1445   0.6921   0.8079
Ti45     Ti     0.25   0.75   0.9183
V46     V     0.1445   0.8079   0.6921
Ti47     Ti     0.25   0.75   0.5817
Ti48     Ti     0.25   0.9183   0.75
V49     V     0.3555   0.6921   0.6921
Ti50     Ti     0.25   0.5817   0.75
V51     V     0.8079   0.3555   0.8079
V52     V     0.8079   0.1445   0.6921
Ti53     Ti     0.9183   0.25   0.75
V54     V     0.6921   0.3555   0.6921
V55     V     0.6921   0.1445   0.8079
Ti56     Ti     0.5817   0.25   0.75
Ti57     Ti     0.75   0.25   0.9183
Ti58     Ti     0.75   0.25   0.5817
V59     V     0.3079   0.1921   0.8554
Ti60     Ti     0.25   0.0817   0.75
V61     V     0.1921   0.1921   0.6446
V62     V     0.1921   0.3079   0.8554
Ti63     Ti     0.0817   0.25   0.75
V64     V     0.3079   0.3079   0.6446
Ti65     Ti     0.4183   0.25   0.75
Ti66     Ti     0.25   0.4183   0.75
Er67     Er     0.92   0.3962   0.92
Er68     Er     0.8962   0.42   0.08
Er69     Er     0.1038   0.58   0.92
Er70     Er     0.92   0.58   0.1038
Er71     Er     0.08   0.6038   0.08
Er72     Er     0.08   0.42   0.8962
loop_
_geom_bond_atom_site_label_1
_geom_bond_atom_site_label_2
_geom_bond_distance
_geom_bond_site_symmetry_2
_ccdc_geom_bond_type
Er1     Er3    10.007   1_655     S
Er1     Er2    10.007   1_565     S
Er1     V27    10.011   .     S
Er2     Er1    10.007   1_545     S
Er2     Er5    10.007   .     S
Er2     V21    10.011   .     S
Er3     Er1    10.007   1_455     S
Er3     Er4    10.007   .     S
Er3     V38    10.011   .     S
Er4     Er6    10.007   1_565     S
Er4     V46    10.011   .     S
Er5     Er6    10.007   1_655     S
Er5     V52    10.011   .     S
Er6     Er4    10.007   1_545     S
Er6     Er5    10.007   1_455     S
Er6     V61    10.011   .     S
Er7     Er12    10.007   .     S
Er7     Er11    10.007   .     S
Er7     V49    10.011   .     S
Er8     Er10    10.007   .     S
Er8     Er12    10.007   .     S
Er8     V54    10.011   .     S
Er9     Er11    10.007   .     S
Er9     Er10    10.007   .     S
Er9     V33    10.011   .     S
Er10     V19    10.011   .     S
Er11     V40    10.011   .     S
Er12     V64    10.011   .     S
Er13     Er18    10.007   .     S
Er13     Er15    10.007   1_556     S
Er13     V55    10.011   .     S
Er14     Er15    10.007   1_565     S
Er14     Er17    10.007   .     S
Er14     V28    10.011   .     S
Er15     Er13    10.007   1_554     S
Er15     Er14    10.007   1_545     S
Er15     V22    10.011   .     S
Er16     Er17    10.007   1_556     S
Er16     Er18    10.007   1_565     S
Er16     V43    10.011   .     S
Er17     Er16    10.007   1_554     S
Er17     V35    10.011   .     S
Er18     Er16    10.007   1_545     S
Er18     V59    10.011   .     S
V19     V22    10.013   .     S
V19     Ti20    9.99   .     S
V19     Ti26    9.99   .     S
Ti20     V21    9.99   .     S
Ti20     Ti58    9.992   .     S
V21     V23    10.013   .     S
V21     Ti25    9.99   .     S
V22     Ti24    9.99   .     S
V22     Ti25    9.99   .     S
V23     Er68    10.011   .     S
V23     Ti24    9.99   .     S
V23     Ti26    9.99   .     S
Ti24     Ti57    9.992   1_554     S
Ti25     Ti29    9.992   1_545     S
Ti26     Ti31    9.992   .     S
V27     V33    10.013   .     S
V27     Ti29    9.99   .     S
V27     Ti32    9.99   .     S
V28     V30    10.013   .     S
V28     Ti34    9.99   .     S
V28     Ti29    9.99   .     S
Ti29     Ti25    9.992   1_565     S
V30     Er70    10.011   .     S
V30     Ti32    9.99   .     S
V30     Ti31    9.99   .     S
Ti31     V33    9.99   .     S
Ti32     Ti39    9.992   1_655     S
V33     Ti34    9.99   .     S
Ti34     Ti42    9.992   .     S
V35     V38    10.013   .     S
V35     Ti36    9.99   .     S
V35     Ti42    9.99   .     S
Ti36     V37    9.99   .     S
Ti36     Ti45    9.992   1_554     S
V37     Er71    10.011   .     S
V37     V40    10.013   .     S
V37     Ti39    9.99   .     S
V38     Ti39    9.99   .     S
V38     Ti41    9.99   .     S
Ti39     Ti32    9.992   1_455     S
V40     Ti41    9.99   .     S
V40     Ti42    9.99   .     S
Ti41     Ti47    9.992   .     S
V43     V49    10.013   .     S
V43     Ti45    9.99   .     S
V43     Ti48    9.99   .     S
V44     Er69    10.011   .     S
V44     V46    10.013   .     S
V44     Ti50    9.99   .     S
V44     Ti45    9.99   .     S
Ti45     Ti36    9.992   1_556     S
V46     Ti48    9.99   .     S
V46     Ti47    9.99   .     S
Ti47     V49    9.99   .     S
Ti48     Ti60    9.992   1_565     S
V49     Ti50    9.99   .     S
Ti50     Ti66    9.992   .     S
V51     Er67    10.011   .     S
V51     V54    10.013   .     S
V51     Ti53    9.99   .     S
V51     Ti57    9.99   .     S
V52     V55    10.013   .     S
V52     Ti58    9.99   .     S
V52     Ti53    9.99   .     S
Ti53     Ti63    9.992   1_655     S
V54     Ti56    9.99   .     S
V54     Ti58    9.99   .     S
V55     Ti57    9.99   .     S
V55     Ti56    9.99   .     S
Ti56     Ti65    9.992   .     S
Ti57     Ti24    9.992   1_556     S
V59     V62    10.013   .     S
V59     Ti60    9.99   .     S
V59     Ti65    9.99   .     S
Ti60     V61    9.99   .     S
Ti60     Ti48    9.992   1_545     S
V61     V64    10.013   .     S
V61     Ti63    9.99   .     S
V62     Er72    10.011   .     S
V62     Ti63    9.99   .     S
V62     Ti66    9.99   .     S
Ti63     Ti53    9.992   1_455     S
V64     Ti65    9.99   .     S
V64     Ti66    9.99   .     S
Er67     Er72    10.007   1_655     S
Er67     Er68    10.007   1_556     S
Er68     Er67    10.007   1_554     S
Er68     Er70    10.007   .     S
Er69     Er71    10.007   1_556     S
Er69     Er72    10.007   .     S
Er70     Er71    10.007   1_655     S
Er71     Er69    10.007   1_554     S
Er71     Er70    10.007   1_455     S
Er72     Er67    10.007   1_455     S
