data_tota
_audit_creation_date              2020-02-02
_audit_creation_method            'Pymatgen'
_symmetry_space_group_name_H-M    'P1'
_symmetry_Int_Tables_number       1
loop_
_symmetry_equiv_pos_as_xyz
  x,y,z
_cell_length_a                    71.3775
_cell_length_b                    71.3775
_cell_length_c                    71.3775
_cell_angle_alpha                 90.0
_cell_angle_beta                 90.0
_cell_angle_gamma                 90.0
loop_
_atom_site_label
_atom_site_type_symbol
_atom_site_fract_x
_atom_site_fract_y
_atom_site_fract_z
Er1     Er     0.4498   0.4508   0.0492
Er2     Er     0.4498   0.5492   0.9508
Er3     Er     0.5502   0.5492   0.0492
Er4     Er     0.5502   0.4508   0.9508
Er5     Er     0.0492   0.4498   0.4508
Er6     Er     0.9508   0.4498   0.5492
Er7     Er     0.0492   0.5502   0.5492
Er8     Er     0.9508   0.5502   0.4508
Er9     Er     0.4508   0.0492   0.4498
Er10     Er     0.5492   0.9508   0.4498
Er11     Er     0.5492   0.0492   0.5502
Er12     Er     0.4508   0.9508   0.5502
Er13     Er     0.9498   0.5492   0.0492
Er14     Er     0.9498   0.4508   0.9508
Er15     Er     0.0503   0.4508   0.0492
Er16     Er     0.0503   0.5492   0.9508
Er17     Er     0.5492   0.0492   0.9498
Er18     Er     0.4508   0.9508   0.9498
Er19     Er     0.4508   0.0492   0.0503
Er20     Er     0.5492   0.9508   0.0503
Er21     Er     0.0492   0.9498   0.5492
Er22     Er     0.9508   0.9498   0.4508
Er23     Er     0.0492   0.0503   0.4508
Er24     Er     0.9508   0.0503   0.5492
V25     V     0.9906   0.6795   0.4906
V26     V     0.0094   0.6795   0.5094
V27     V     0.4906   0.9906   0.6795
V28     V     0.5094   0.0094   0.6795
V29     V     0.6795   0.4906   0.9906
V30     V     0.6795   0.5094   0.0094
V31     V     0.0094   0.3205   0.4906
V32     V     0.9906   0.3205   0.5094
V33     V     0.5094   0.9906   0.3205
V34     V     0.4906   0.0094   0.3205
V35     V     0.3205   0.5094   0.9906
V36     V     0.3205   0.4906   0.0094
V37     V     0.1795   0.4906   0.0094
V38     V     0.1795   0.5094   0.9906
V39     V     0.4906   0.0094   0.1795
V40     V     0.5094   0.9906   0.1795
V41     V     0.0094   0.1795   0.4906
V42     V     0.9906   0.1795   0.5094
V43     V     0.8205   0.4906   0.9906
V44     V     0.8205   0.5094   0.0094
V45     V     0.4906   0.9906   0.8205
V46     V     0.5094   0.0094   0.8205
V47     V     0.9906   0.8205   0.4906
V48     V     0.0094   0.8205   0.5094
Ti49     Ti     0.25   0.4054   0.0946
Ce50     Ce     0.25   0.307   0.193
Ti51     Ti     0.0946   0.25   0.4054
Ce52     Ce     0.193   0.25   0.307
Ti53     Ti     0.4054   0.0946   0.25
Ce54     Ce     0.307   0.193   0.25
Ti55     Ti     0.9054   0.75   0.4054
Ce56     Ce     0.807   0.75   0.307
Ti57     Ti     0.5946   0.9054   0.25
Ce58     Ce     0.693   0.807   0.25
Ti59     Ti     0.75   0.5946   0.0946
Ce60     Ce     0.75   0.693   0.193
Ti61     Ti     0.0946   0.75   0.5946
Ce62     Ce     0.193   0.75   0.693
Ti63     Ti     0.25   0.5946   0.9054
Ce64     Ce     0.25   0.693   0.807
Ti65     Ti     0.4054   0.9054   0.75
Ce66     Ce     0.307   0.807   0.75
Ti67     Ti     0.75   0.4054   0.9054
Ce68     Ce     0.75   0.307   0.807
Ti69     Ti     0.5946   0.0946   0.75
Ce70     Ce     0.693   0.193   0.75
Ti71     Ti     0.9054   0.25   0.5946
Ce72     Ce     0.807   0.25   0.693
loop_
_geom_bond_atom_site_label_1
_geom_bond_atom_site_label_2
_geom_bond_distance
_geom_bond_site_symmetry_2
_ccdc_geom_bond_type
Er1     Er2    9.923   1_554     S
Er1     V36    10.059   .     S
Er1     Er3    10.034   .     S
Er1     Er4    10.034   1_554     S
Er2     Er1    9.923   1_556     S
Er2     V35    10.059   .     S
Er2     Er3    10.034   1_556     S
Er2     Er4    10.034   .     S
Er3     Er4    9.923   1_554     S
Er3     V30    10.059   .     S
Er3     Er2    10.034   1_554     S
Er4     Er3    9.923   1_556     S
Er4     V29    10.059   .     S
Er4     Er1    10.034   1_556     S
Er5     Er6    9.923   1_455     S
Er5     V31    10.059   .     S
Er5     Er8    10.034   1_455     S
Er5     Er7    10.034   .     S
Er6     Er5    9.923   1_655     S
Er6     V32    10.059   .     S
Er6     Er7    10.034   1_655     S
Er6     Er8    10.034   .     S
Er7     Er8    9.923   1_455     S
Er7     V26    10.059   .     S
Er7     Er6    10.034   1_455     S
Er8     Er7    9.923   1_655     S
Er8     V25    10.059   .     S
Er8     Er5    10.034   1_655     S
Er9     Er10    9.923   1_545     S
Er9     V34    10.059   .     S
Er9     Er12    10.034   1_545     S
Er9     Er11    10.034   .     S
Er10     Er9    9.923   1_565     S
Er10     V33    10.059   .     S
Er10     Er11    10.034   1_565     S
Er10     Er12    10.034   .     S
Er11     Er12    9.923   1_545     S
Er11     V28    10.059   .     S
Er11     Er10    10.034   1_545     S
Er12     Er11    9.923   1_565     S
Er12     V27    10.059   .     S
Er12     Er9    10.034   1_565     S
Er13     Er14    9.923   1_554     S
Er13     V44    10.059   .     S
Er13     Er15    10.034   1_655     S
Er13     Er16    10.034   1_654     S
Er14     Er13    9.923   1_556     S
Er14     V43    10.059   .     S
Er14     Er15    10.034   1_656     S
Er14     Er16    10.034   1_655     S
Er15     Er16    9.923   1_554     S
Er15     V37    10.059   .     S
Er15     Er13    10.034   1_455     S
Er15     Er14    10.034   1_454     S
Er16     Er15    9.923   1_556     S
Er16     V38    10.059   .     S
Er16     Er13    10.034   1_456     S
Er16     Er14    10.034   1_455     S
Er17     Er18    9.923   1_545     S
Er17     V46    10.059   .     S
Er17     Er19    10.034   1_556     S
Er17     Er20    10.034   1_546     S
Er18     Er17    9.923   1_565     S
Er18     V45    10.059   .     S
Er18     Er19    10.034   1_566     S
Er18     Er20    10.034   1_556     S
Er19     Er20    9.923   1_545     S
Er19     V39    10.059   .     S
Er19     Er17    10.034   1_554     S
Er19     Er18    10.034   1_544     S
Er20     Er19    9.923   1_565     S
Er20     V40    10.059   .     S
Er20     Er17    10.034   1_564     S
Er20     Er18    10.034   1_554     S
Er21     Er22    9.923   1_455     S
Er21     V48    10.059   .     S
Er21     Er23    10.034   1_565     S
Er21     Er24    10.034   1_465     S
Er22     Er21    9.923   1_655     S
Er22     V47    10.059   .     S
Er22     Er23    10.034   1_665     S
Er22     Er24    10.034   1_565     S
Er23     Er24    9.923   1_455     S
Er23     V41    10.059   .     S
Er23     Er21    10.034   1_545     S
Er23     Er22    10.034   1_445     S
Er24     Er23    9.923   1_655     S
Er24     V42    10.059   .     S
Er24     Er21    10.034   1_645     S
Er24     Er22    10.034   1_545     S
V25     Ti55    9.961   .     S
V25     V47    10.067   .     S
V26     Ti61    9.961   .     S
V26     V48    10.067   .     S
V27     Ti65    9.961   .     S
V27     V45    10.067   .     S
V28     Ti69    9.961   .     S
V28     V46    10.067   .     S
V29     Ti67    9.961   .     S
V29     V43    10.067   .     S
V30     Ti59    9.961   .     S
V30     V44    10.067   .     S
V31     Ti51    9.961   .     S
V31     V41    10.067   .     S
V32     Ti71    9.961   .     S
V32     V42    10.067   .     S
V33     Ti57    9.961   .     S
V33     V40    10.067   .     S
V34     Ti53    9.961   .     S
V34     V39    10.067   .     S
V35     Ti63    9.961   .     S
V35     V38    10.067   .     S
V36     Ti49    9.961   .     S
V36     V37    10.067   .     S
V37     Ti49    9.961   .     S
V38     Ti63    9.961   .     S
V39     Ti53    9.961   .     S
V40     Ti57    9.961   .     S
V41     Ti51    9.961   .     S
V42     Ti71    9.961   .     S
V43     Ti67    9.961   .     S
V44     Ti59    9.961   .     S
V45     Ti65    9.961   .     S
V46     Ti69    9.961   .     S
V47     Ti55    9.961   .     S
V48     Ti61    9.961   .     S
Ti49     Ce50    9.94   .     S
Ce50     Ce52    9.961   .     S
Ce50     Ce54    9.961   .     S
Ti51     Ce52    9.94   .     S
Ce52     Ce54    9.961   .     S
Ti53     Ce54    9.94   .     S
Ti55     Ce56    9.94   .     S
Ce56     Ce58    9.961   .     S
Ce56     Ce60    9.961   .     S
Ti57     Ce58    9.94   .     S
Ce58     Ce60    9.961   .     S
Ti59     Ce60    9.94   .     S
Ti61     Ce62    9.94   .     S
Ce62     Ce64    9.961   .     S
Ce62     Ce66    9.961   .     S
Ti63     Ce64    9.94   .     S
Ce64     Ce66    9.961   .     S
Ti65     Ce66    9.94   .     S
Ti67     Ce68    9.94   .     S
Ce68     Ce72    9.961   .     S
Ce68     Ce70    9.961   .     S
Ti69     Ce70    9.94   .     S
Ce70     Ce72    9.961   .     S
Ti71     Ce72    9.94   .     S
