data_toz
_audit_creation_date              2020-02-02
_audit_creation_method            'Pymatgen'
_symmetry_space_group_name_H-M    'P1'
_symmetry_Int_Tables_number       1
loop_
_symmetry_equiv_pos_as_xyz
  x,y,z
_cell_length_a                    37.109
_cell_length_b                    37.109
_cell_length_c                    134.7574
_cell_angle_alpha                 90.0
_cell_angle_beta                 90.0
_cell_angle_gamma                 120.0
loop_
_atom_site_label
_atom_site_type_symbol
_atom_site_fract_x
_atom_site_fract_y
_atom_site_fract_z
S1     S     0.7808   0.9009   0.6852
S2     S     0.0991   0.8799   0.6852
S3     S     0.1201   0.2192   0.6852
Ce4     Ce     0.0   0.0   0.6498
Er5     Er     0.8043   0.1025   0.6329
Er6     Er     0.8623   0.2309   0.7005
Er7     Er     0.2982   0.1957   0.6329
Er8     Er     0.3685   0.1377   0.7005
S9     S     0.8859   0.4324   0.6481
S10     S     0.5466   0.1141   0.6481
S11     S     0.5676   0.4534   0.6481
Ce12     Ce     0.6667   0.3333   0.6835
Er13     Er     0.8975   0.7018   0.6329
Er14     Er     0.7691   0.6315   0.7005
Ti15     Ti     0.0   0.461   0.75
Ti16     Ti     0.461   0.0   0.75
H17     H     0.7305   0.0   0.75
H18     H     0.2695   0.2695   0.75
H19     H     0.0   0.7305   0.75
V20     V     0.0   0.0   0.75
Ti21     Ti     0.539   0.539   0.75
Er22     Er     0.1957   0.2982   0.8671
Er23     Er     0.1377   0.3685   0.7995
S24     S     0.4324   0.8859   0.8519
S25     S     0.4534   0.5676   0.8519
S26     S     0.1141   0.5466   0.8519
Ce27     Ce     0.3333   0.6667   0.8165
Er28     Er     0.7018   0.8975   0.8671
Er29     Er     0.6315   0.7691   0.7995
S30     S     0.8799   0.0991   0.8148
S31     S     0.9009   0.7808   0.8148
S32     S     0.2192   0.1201   0.8148
Ce33     Ce     0.0   0.0   0.8502
Er34     Er     0.1025   0.8043   0.8671
Er35     Er     0.2309   0.8623   0.7995
Er36     Er     0.1377   0.7691   0.2995
Er37     Er     0.1957   0.8975   0.3671
Er38     Er     0.2309   0.3685   0.2995
Er39     Er     0.1025   0.2982   0.3671
S40     S     0.8799   0.7808   0.3147
S41     S     0.9009   0.1201   0.3147
S42     S     0.2192   0.0991   0.3147
Ce43     Ce     0.0   0.0   0.3502
S44     S     0.4534   0.8859   0.3519
S45     S     0.1141   0.5676   0.3519
S46     S     0.4324   0.5466   0.3519
Ce47     Ce     0.3333   0.6667   0.3165
Er48     Er     0.6315   0.8623   0.2995
Er49     Er     0.7018   0.8043   0.3671
Ti50     Ti     0.7944   0.6667   0.4167
Ti51     Ti     0.3333   0.1277   0.4167
H52     H     0.0639   0.6667   0.4167
H53     H     0.3333   0.3972   0.4167
V54     V     0.3333   0.6667   0.4167
H55     H     0.6028   0.9361   0.4167
Ti56     Ti     0.8723   0.2056   0.4167
Ti57     Ti     0.2056   0.3333   0.5833
H58     H     0.9361   0.3333   0.5833
Ti59     Ti     0.1277   0.7944   0.5833
Ti60     Ti     0.6667   0.8723   0.5833
H61     H     0.6667   0.6028   0.5833
H62     H     0.3972   0.0639   0.5833
V63     V     0.6667   0.3333   0.5833
Er64     Er     0.0352   0.5642   0.5338
Er65     Er     0.9648   0.4358   0.4662
S66     S     0.5525   0.7867   0.4814
S67     S     0.2133   0.7658   0.4814
S68     S     0.2342   0.4475   0.4814
Ce69     Ce     0.3333   0.6667   0.5169
Er70     Er     0.5642   0.529   0.4662
Er71     Er     0.4358   0.471   0.5338
S72     S     0.4475   0.2133   0.5186
S73     S     0.7867   0.2342   0.5186
S74     S     0.7658   0.5525   0.5186
Ce75     Ce     0.6667   0.3333   0.4831
Er76     Er     0.529   0.9648   0.5338
Er77     Er     0.471   0.0352   0.4662
Ti78     Ti     0.3333   0.2056   0.9167
H79     H     0.3333   0.9361   0.9167
Ti80     Ti     0.8723   0.6667   0.9167
Ti81     Ti     0.7944   0.1277   0.9167
H82     H     0.6028   0.6667   0.9167
H83     H     0.0639   0.3972   0.9167
V84     V     0.3333   0.6667   0.9167
Ti85     Ti     0.2056   0.8723   0.0833
H86     H     0.9361   0.6028   0.0833
Ti87     Ti     0.6667   0.7944   0.0833
H88     H     0.6667   0.0639   0.0833
H89     H     0.3972   0.3333   0.0833
V90     V     0.6667   0.3333   0.0833
Ti91     Ti     0.1277   0.3333   0.0833
Er92     Er     0.9648   0.529   0.9662
Er93     Er     0.0352   0.471   0.0338
S94     S     0.2342   0.7867   0.9814
S95     S     0.5525   0.7658   0.9814
S96     S     0.2133   0.4475   0.9814
Ce97     Ce     0.3333   0.6667   0.0169
Er98     Er     0.471   0.4358   0.9662
Er99     Er     0.529   0.5642   0.0338
S100     S     0.7658   0.2133   0.0186
S101     S     0.7867   0.5525   0.0186
S102     S     0.4475   0.2342   0.0186
Ce103     Ce     0.6667   0.3333   0.9831
Er104     Er     0.5642   0.0352   0.9662
Er105     Er     0.4358   0.9648   0.0338
Ti106     Ti     0.461   0.461   0.25
Ti107     Ti     0.539   0.0   0.25
H108     H     0.7305   0.7305   0.25
H109     H     0.0   0.2695   0.25
H110     H     0.2695   0.0   0.25
V111     V     0.0   0.0   0.25
Ti112     Ti     0.0   0.539   0.25
Er113     Er     0.8975   0.1957   0.1329
Er114     Er     0.7691   0.1377   0.2005
S115     S     0.7808   0.8799   0.1852
S116     S     0.1201   0.9009   0.1852
S117     S     0.0991   0.2192   0.1852
Ce118     Ce     0.0   0.0   0.1498
Er119     Er     0.2982   0.1025   0.1329
Er120     Er     0.3685   0.2309   0.2005
S121     S     0.8859   0.4534   0.1481
S122     S     0.5466   0.4324   0.1481
S123     S     0.5676   0.1141   0.1481
Ce124     Ce     0.6667   0.3333   0.1835
Er125     Er     0.8043   0.7018   0.1329
Er126     Er     0.8623   0.6315   0.2005
loop_
_geom_bond_atom_site_label_1
_geom_bond_atom_site_label_2
_geom_bond_distance
_geom_bond_site_symmetry_2
_ccdc_geom_bond_type
S1     Er5    10.0   1_565     S
S1     Er14    10.0   .     S
S1     H17    10.0   1_565     S
S2     Er13    10.0   1_455     S
S2     Er8    10.0   1_565     S
S2     H19    10.0   .     S
S3     Er7    10.0   .     S
S3     Er6    10.0   1_455     S
S3     H18    10.0   .     S
Ce4     Er5    10.0   1_455     S
Ce4     Er13    10.0   1_445     S
Ce4     Er7    10.0   .     S
Er5     S1    10.0   1_545     S
Er5     Ce4    10.0   1_655     S
Er5     Er6    10.0   .     S
Er5     S10    10.0   .     S
Er5     H58    10.0   .     S
Er5     Ti60    10.0   1_545     S
Er6     S3    10.0   1_655     S
Er6     S9    10.0   .     S
Er6     Ce12    10.0   .     S
Er6     Ti15    10.0   1_655     S
Er6     H17    10.0   .     S
Er7     Er8    10.0   .     S
Er7     S11    10.0   .     S
Er7     Ti57    10.0   .     S
Er7     H62    10.0   .     S
Er8     S2    10.0   1_545     S
Er8     S10    10.0   .     S
Er8     Ce12    10.0   .     S
Er8     Ti16    10.0   .     S
Er8     H18    10.0   .     S
S9     Er13    10.0   .     S
S9     H58    10.0   .     S
S10     H62    10.0   .     S
S11     Er14    10.0   .     S
S11     H61    10.0   .     S
Ce12     Er14    10.0   .     S
Er13     S2    10.0   1_655     S
Er13     Ce4    10.0   1_665     S
Er13     Er14    10.0   .     S
Er13     Ti59    10.0   1_655     S
Er13     H61    10.0   .     S
Er14     H19    10.0   1_655     S
Er14     Ti21    10.0   .     S
Ti15     Er23    10.0   .     S
Ti15     Er6    10.0   1_455     S
Ti15     H19    10.0   .     S
Ti16     Er35    10.0   1_545     S
Ti16     H17    10.0   .     S
H17     Er29    10.0   1_545     S
H17     S30    10.0   .     S
H17     S1    10.0   1_545     S
H17     V20    10.0   1_655     S
H18     Er23    10.0   .     S
H18     S32    10.0   .     S
H18     V20    10.0   .     S
H18     Ti21    10.0   .     S
H19     Er35    10.0   .     S
H19     Er14    10.0   1_455     S
H19     S31    10.0   1_455     S
H19     V20    10.0   1_565     S
V20     H17    10.0   1_455     S
V20     H19    10.0   1_545     S
Ti21     Er29    10.0   .     S
Er22     Er23    10.0   .     S
Er22     S25    10.0   .     S
Er22     S32    10.0   .     S
Er22     Ce33    10.0   .     S
Er22     Ti78    10.0   .     S
Er22     H83    10.0   .     S
Er23     S30    10.0   1_455     S
Er23     S26    10.0   .     S
Er23     Ce27    10.0   .     S
S24     Er35    10.0   .     S
S24     Er28    10.0   .     S
S24     H79    10.0   .     S
S25     Er29    10.0   .     S
S25     H82    10.0   .     S
S26     Er34    10.0   .     S
S26     H83    10.0   .     S
Ce27     Er35    10.0   .     S
Ce27     Er29    10.0   .     S
Er28     Er29    10.0   .     S
Er28     S30    10.0   1_565     S
Er28     Ce33    10.0   1_665     S
Er28     Ti81    10.0   1_565     S
Er28     H82    10.0   .     S
Er29     H17    10.0   1_565     S
Er29     S31    10.0   .     S
S30     Er23    10.0   1_655     S
S30     Er28    10.0   1_545     S
S31     H19    10.0   1_655     S
S31     Er34    10.0   1_655     S
S32     Er35    10.0   1_545     S
Ce33     Er28    10.0   1_445     S
Ce33     Er34    10.0   1_545     S
Er34     S31    10.0   1_455     S
Er34     Ce33    10.0   1_565     S
Er34     Er35    10.0   .     S
Er34     H79    10.0   .     S
Er34     Ti80    10.0   1_455     S
Er35     Ti16    10.0   1_565     S
Er35     S32    10.0   1_565     S
Er36     Er37    10.0   .     S
Er36     S40    10.0   1_455     S
Er36     S45    10.0   .     S
Er36     Ce47    10.0   .     S
Er36     H110    10.0   1_565     S
Er36     Ti112    10.0   .     S
Er37     S44    10.0   .     S
Er37     S42    10.0   1_565     S
Er37     Ce43    10.0   1_565     S
Er37     Ti51    10.0   1_565     S
Er37     H52    10.0   .     S
Er38     Er39    10.0   .     S
Er38     S42    10.0   .     S
Er38     S46    10.0   .     S
Er38     Ce47    10.0   .     S
Er38     Ti106    10.0   .     S
Er38     H109    10.0   .     S
Er39     S45    10.0   .     S
Er39     S41    10.0   1_455     S
Er39     Ce43    10.0   .     S
Er39     H53    10.0   .     S
Er39     Ti56    10.0   1_455     S
S40     Er36    10.0   1_655     S
S40     Er49    10.0   .     S
S40     H108    10.0   .     S
S41     Er39    10.0   1_655     S
S41     Er48    10.0   1_545     S
S41     H109    10.0   1_655     S
S42     Er37    10.0   1_545     S
S42     H110    10.0   .     S
Ce43     Er49    10.0   1_445     S
Ce43     Er37    10.0   1_545     S
S44     Er48    10.0   .     S
S44     H55    10.0   .     S
S45     H52    10.0   .     S
S46     Er49    10.0   .     S
S46     H53    10.0   .     S
Ce47     Er48    10.0   .     S
Er48     Er49    10.0   .     S
Er48     S41    10.0   1_565     S
Er48     Ti107    10.0   1_565     S
Er48     H108    10.0   .     S
Er49     Ce43    10.0   1_665     S
Er49     Ti50    10.0   .     S
Er49     H55    10.0   .     S
Ti50     Er70    10.0   .     S
Ti50     H52    10.0   1_655     S
Ti51     Er77    10.0   .     S
Ti51     Er37    10.0   1_545     S
Ti51     H53    10.0   .     S
H52     Er65    10.0   1_455     S
H52     S67    10.0   .     S
H52     V54    10.0   .     S
H52     Ti50    10.0   1_455     S
H53     Er70    10.0   .     S
H53     S68    10.0   .     S
H53     V54    10.0   .     S
V54     H55    10.0   .     S
H55     Er77    10.0   1_565     S
H55     S66    10.0   .     S
H55     Ti56    10.0   1_565     S
Ti56     Er65    10.0   .     S
Ti56     Er39    10.0   1_655     S
Ti56     H55    10.0   1_545     S
Ti57     Er71    10.0   .     S
Ti57     H58    10.0   1_455     S
H58     Ti57    10.0   1_655     S
H58     Er64    10.0   1_655     S
H58     S73    10.0   .     S
H58     V63    10.0   .     S
Ti59     Er13    10.0   1_455     S
Ti59     Er64    10.0   .     S
Ti59     H62    10.0   1_565     S
Ti60     Er5    10.0   1_565     S
Ti60     Er76    10.0   .     S
Ti60     H61    10.0   .     S
H61     Er71    10.0   .     S
H61     S74    10.0   .     S
H61     V63    10.0   .     S
H62     Ti59    10.0   1_545     S
H62     Er76    10.0   1_545     S
H62     S72    10.0   .     S
H62     V63    10.0   .     S
Er64     H58    10.0   1_455     S
Er64     Er65    10.0   1_455     S
Er64     S74    10.0   1_455     S
Er64     S67    10.0   .     S
Er64     Ce69    10.0   .     S
Er65     H52    10.0   1_655     S
Er65     Er64    10.0   1_655     S
Er65     S68    10.0   1_655     S
Er65     S73    10.0   .     S
Er65     Ce75    10.0   .     S
S66     Er76    10.0   .     S
S66     Er70    10.0   .     S
S67     Er77    10.0   1_565     S
S68     Er65    10.0   1_455     S
S68     Er71    10.0   .     S
Ce69     Er76    10.0   .     S
Ce69     Er71    10.0   .     S
Er70     Er71    10.0   .     S
Er70     S74    10.0   .     S
Er70     Ce75    10.0   .     S
Er71     S72    10.0   .     S
S72     Er77    10.0   .     S
S73     Er76    10.0   1_545     S
S74     Er64    10.0   1_655     S
Ce75     Er77    10.0   .     S
Er76     H62    10.0   1_565     S
Er76     Er77    10.0   1_565     S
Er76     S73    10.0   1_565     S
Er77     H55    10.0   1_545     S
Er77     Er76    10.0   1_545     S
Er77     S67    10.0   1_545     S
Ti78     Er98    10.0   .     S
Ti78     H79    10.0   1_545     S
H79     Ti78    10.0   1_565     S
H79     Er104    10.0   1_565     S
H79     S94    10.0   .     S
H79     V84    10.0   .     S
Ti80     Er34    10.0   1_655     S
Ti80     Er92    10.0   .     S
Ti80     H82    10.0   .     S
Ti81     Er28    10.0   1_545     S
Ti81     Er104    10.0   .     S
Ti81     H83    10.0   1_655     S
H82     Er98    10.0   .     S
H82     S95    10.0   .     S
H82     V84    10.0   .     S
H83     Er92    10.0   1_455     S
H83     S96    10.0   .     S
H83     V84    10.0   .     S
H83     Ti81    10.0   1_455     S
Ti85     Er119    10.0   1_565     S
Ti85     Er105    10.0   .     S
Ti85     H86    10.0   1_455     S
H86     Er125    10.0   .     S
H86     Er93    10.0   1_655     S
H86     S121    10.0   .     S
H86     S101    10.0   .     S
H86     V90    10.0   .     S
H86     Ti85    10.0   1_655     S
Ti87     Er125    10.0   .     S
Ti87     Er99    10.0   .     S
Ti87     H88    10.0   1_565     S
H88     Ti87    10.0   1_545     S
H88     Er113    10.0   .     S
H88     Er105    10.0   1_545     S
H88     S100    10.0   .     S
H88     S123    10.0   .     S
H88     V90    10.0   .     S
H89     Er119    10.0   .     S
H89     Er99    10.0   .     S
H89     S122    10.0   .     S
H89     S102    10.0   .     S
H89     V90    10.0   .     S
H89     Ti91    10.0   .     S
Ti91     Er93    10.0   .     S
Ti91     Er113    10.0   1_455     S
Er92     H83    10.0   1_655     S
Er92     Er93    10.0   1_656     S
Er92     S94    10.0   1_655     S
Er92     S101    10.0   1_556     S
Er92     Ce103    10.0   .     S
Er93     H86    10.0   1_455     S
Er93     Er92    10.0   1_454     S
Er93     S100    10.0   1_455     S
Er93     S96    10.0   1_554     S
Er93     Ce97    10.0   .     S
S94     Er92    10.0   1_455     S
S94     Er105    10.0   1_556     S
S95     Er99    10.0   1_556     S
S95     Er104    10.0   1_565     S
S96     Er93    10.0   1_556     S
S96     Er98    10.0   .     S
Ce97     Er105    10.0   .     S
Ce97     Er99    10.0   .     S
Er98     Er99    10.0   1_556     S
Er98     S102    10.0   1_556     S
Er98     Ce103    10.0   .     S
Er99     S95    10.0   1_554     S
Er99     Er98    10.0   1_554     S
Er99     S101    10.0   .     S
S100     Er93    10.0   1_655     S
S100     Er104    10.0   1_554     S
S101     Er92    10.0   1_554     S
S102     Er98    10.0   1_554     S
S102     Er105    10.0   1_545     S
Ce103     Er104    10.0   .     S
Er104     H79    10.0   1_545     S
Er104     S100    10.0   1_556     S
Er104     Er105    10.0   1_546     S
Er104     S95    10.0   1_545     S
Er105     H88    10.0   1_565     S
Er105     S94    10.0   1_554     S
Er105     Er104    10.0   1_564     S
Er105     S102    10.0   1_565     S
Ti106     Er120    10.0   .     S
Ti106     H108    10.0   .     S
Ti107     Er48    10.0   1_545     S
Ti107     Er114    10.0   .     S
Ti107     H110    10.0   .     S
H108     Er126    10.0   .     S
H108     S115    10.0   .     S
H108     V111    10.0   1_665     S
H109     Er114    10.0   1_455     S
H109     S117    10.0   .     S
H109     S41    10.0   1_455     S
H109     V111    10.0   .     S
H109     Ti112    10.0   .     S
H110     Er36    10.0   1_545     S
H110     Er120    10.0   .     S
H110     S116    10.0   1_545     S
H110     V111    10.0   .     S
V111     H108    10.0   1_445     S
Ti112     Er126    10.0   1_455     S
Er113     Ti91    10.0   1_655     S
Er113     Er114    10.0   .     S
Er113     S121    10.0   .     S
Er113     S117    10.0   1_655     S
Er113     Ce118    10.0   1_655     S
Er114     H109    10.0   1_655     S
Er114     S115    10.0   1_545     S
Er114     S123    10.0   .     S
Er114     Ce124    10.0   .     S
S115     Er114    10.0   1_565     S
S115     Er125    10.0   .     S
S116     H110    10.0   1_565     S
S116     Er119    10.0   1_565     S
S116     Er126    10.0   1_455     S
S117     Er113    10.0   1_455     S
S117     Er120    10.0   .     S
Ce118     Er125    10.0   1_445     S
Ce118     Er119    10.0   .     S
Ce118     Er113    10.0   1_455     S
Er119     Ti85    10.0   1_545     S
Er119     S116    10.0   1_545     S
Er119     Er120    10.0   .     S
Er119     S123    10.0   .     S
Er120     S122    10.0   .     S
Er120     Ce124    10.0   .     S
S121     Er126    10.0   .     S
S122     Er125    10.0   .     S
Ce124     Er126    10.0   .     S
Er125     Ce118    10.0   1_665     S
Er125     Er126    10.0   .     S
Er126     Ti112    10.0   1_655     S
Er126     S116    10.0   1_655     S
