data_tps
_audit_creation_date              2020-02-02
_audit_creation_method            'Pymatgen'
_symmetry_space_group_name_H-M    'P1'
_symmetry_Int_Tables_number       1
loop_
_symmetry_equiv_pos_as_xyz
  x,y,z
_cell_length_a                    56.5757
_cell_length_b                    56.5757
_cell_length_c                    11.5441
_cell_angle_alpha                 90.0
_cell_angle_beta                 90.0
_cell_angle_gamma                 120.0
loop_
_atom_site_label
_atom_site_type_symbol
_atom_site_fract_x
_atom_site_fract_y
_atom_site_fract_z
Er1     Er     0.5   0.5   0.5
Er2     Er     0.0   0.5   0.5
Ti3     Ti     0.3333   0.6667   0.5
V4     V     0.1667   0.5833   0.0
V5     V     0.4167   0.5833   0.0
V6     V     0.4167   0.8333   0.0
Er7     Er     0.5   0.0   0.5
Ti8     Ti     0.6667   0.3333   0.5
V9     V     0.5833   0.4167   0.0
V10     V     0.5833   0.1667   0.0
V11     V     0.8333   0.4167   0.0
loop_
_geom_bond_atom_site_label_1
_geom_bond_atom_site_label_2
_geom_bond_distance
_geom_bond_site_symmetry_2
_ccdc_geom_bond_type
Er1     V9    10.001   .     S
Er1     V9    10.001   1_556     S
Er1     V5    10.001   .     S
Er1     V5    10.001   1_556     S
Er2     V11    10.001   1_455     S
Er2     V11    10.001   1_456     S
Er2     V4    10.001   .     S
Er2     V4    10.001   1_556     S
Ti3     V4    10.0   1_556     S
Ti3     V4    10.0   .     S
Ti3     V5    10.0   1_556     S
Ti3     V5    10.0   .     S
Ti3     V6    9.999   1_556     S
Ti3     V6    9.999   .     S
V4     Ti3    10.0   1_554     S
V4     Er2    10.001   1_554     S
V5     Er1    10.001   1_554     S
V5     Ti3    10.0   1_554     S
V6     Ti3    9.999   1_554     S
V6     Er7    10.001   1_565     S
V6     Er7    10.001   1_564     S
Er7     V6    10.001   1_545     S
Er7     V6    10.001   1_546     S
Er7     V10    10.001   .     S
Er7     V10    10.001   1_556     S
Ti8     V9    9.999   .     S
Ti8     V10    10.0   .     S
Ti8     V11    10.0   1_556     S
Ti8     V10    10.0   1_556     S
Ti8     V9    9.999   1_556     S
Ti8     V11    10.0   .     S
V9     Er1    10.001   1_554     S
V9     Ti8    9.999   1_554     S
V10     Ti8    10.0   1_554     S
V10     Er7    10.001   1_554     S
V11     Er2    10.001   1_655     S
V11     Er2    10.001   1_654     S
V11     Ti8    10.0   1_554     S
