data_tpsa
_audit_creation_date              2020-02-02
_audit_creation_method            'Pymatgen'
_symmetry_space_group_name_H-M    'P1'
_symmetry_Int_Tables_number       1
loop_
_symmetry_equiv_pos_as_xyz
  x,y,z
_cell_length_a                    130.8352
_cell_length_b                    130.8352
_cell_length_c                    30.876
_cell_angle_alpha                 90.0
_cell_angle_beta                 90.0
_cell_angle_gamma                 120.0
loop_
_atom_site_label
_atom_site_type_symbol
_atom_site_fract_x
_atom_site_fract_y
_atom_site_fract_z
V1     V     0.6041   0.2083   0.1596
V2     V     0.6041   0.2083   0.8404
Er3     Er     0.5597   0.1194   0.1604
Er4     Er     0.5597   0.1194   0.8396
Er5     Er     0.4403   0.8806   0.8396
Er6     Er     0.4403   0.8806   0.1604
V7     V     0.3959   0.7917   0.8404
V8     V     0.3959   0.7917   0.1596
Ti9     Ti     0.5222   0.0444   0.3404
Ti10     Ti     0.5222   0.0444   0.6596
Ti11     Ti     0.4778   0.9556   0.3404
Ti12     Ti     0.4778   0.9556   0.6596
V13     V     0.2083   0.6041   0.1596
V14     V     0.2083   0.6041   0.8404
Er15     Er     0.1194   0.5597   0.1604
Er16     Er     0.1194   0.5597   0.8396
Er17     Er     0.8806   0.4403   0.1604
Er18     Er     0.8806   0.4403   0.8396
V19     V     0.7917   0.3959   0.8404
V20     V     0.7917   0.3959   0.1596
Ti21     Ti     0.0444   0.5222   0.3404
Ti22     Ti     0.0444   0.5222   0.6596
Ti23     Ti     0.9556   0.4778   0.3404
Ti24     Ti     0.9556   0.4778   0.6596
Ce25     Ce     0.6416   0.2832   0.3398
Ce26     Ce     0.6416   0.3584   0.3398
Ce27     Ce     0.7168   0.3584   0.3398
Ce28     Ce     0.6416   0.2832   0.6602
Ce29     Ce     0.6416   0.3584   0.6602
Ce30     Ce     0.7168   0.3584   0.6602
Ce31     Ce     0.2832   0.6416   0.6602
Ce32     Ce     0.3584   0.6416   0.6602
Ce33     Ce     0.3584   0.7168   0.6602
Ce34     Ce     0.3584   0.7168   0.3398
Ce35     Ce     0.2832   0.6416   0.3398
Ce36     Ce     0.3584   0.6416   0.3398
V37     V     0.3959   0.6041   0.8404
V38     V     0.3959   0.6041   0.1596
Er39     Er     0.4403   0.5597   0.8396
Er40     Er     0.4403   0.5597   0.1604
V41     V     0.6041   0.3959   0.1596
V42     V     0.6041   0.3959   0.8404
Er43     Er     0.5597   0.4403   0.1604
Er44     Er     0.5597   0.4403   0.8396
Ti45     Ti     0.4778   0.5222   0.3404
Ti46     Ti     0.4778   0.5222   0.6596
Ti47     Ti     0.5222   0.4778   0.3404
Ti48     Ti     0.5222   0.4778   0.6596
loop_
_geom_bond_atom_site_label_1
_geom_bond_atom_site_label_2
_geom_bond_distance
_geom_bond_site_symmetry_2
_ccdc_geom_bond_type
V1     Er3    10.075   .     S
V1     V2    9.856   1_554     S
V1     Ce25    10.152   .     S
V2     Er4    10.075   .     S
V2     V1    9.856   1_556     S
V2     Ce28    10.152   .     S
Er3     Ti9    10.147   .     S
Er3     Er4    9.906   1_554     S
Er4     Ti10    10.147   .     S
Er4     Er3    9.906   1_556     S
Er5     V7    10.075   .     S
Er5     Ti12    10.147   .     S
Er5     Er6    9.906   1_556     S
Er6     V8    10.075   .     S
Er6     Ti11    10.147   .     S
Er6     Er5    9.906   1_554     S
V7     V8    9.856   1_556     S
V7     Ce33    10.152   .     S
V8     V7    9.856   1_554     S
V8     Ce34    10.152   .     S
Ti9     Ti11    10.066   1_545     S
Ti9     Ti10    9.856   .     S
Ti10     Ti12    10.066   1_545     S
Ti11     Ti9    10.066   1_565     S
Ti11     Ti12    9.856   .     S
Ti12     Ti10    10.066   1_565     S
V13     Er15    10.075   .     S
V13     V14    9.856   1_554     S
V13     Ce35    10.152   .     S
V14     Er16    10.075   .     S
V14     V13    9.856   1_556     S
V14     Ce31    10.152   .     S
Er15     Ti21    10.147   .     S
Er15     Er16    9.906   1_554     S
Er16     Ti22    10.147   .     S
Er16     Er15    9.906   1_556     S
Er17     V20    10.075   .     S
Er17     Ti23    10.147   .     S
Er17     Er18    9.906   1_554     S
Er18     V19    10.075   .     S
Er18     Ti24    10.147   .     S
Er18     Er17    9.906   1_556     S
V19     V20    9.856   1_556     S
V19     Ce30    10.152   .     S
V20     V19    9.856   1_554     S
V20     Ce27    10.152   .     S
Ti21     Ti23    10.066   1_455     S
Ti21     Ti22    9.856   .     S
Ti22     Ti24    10.066   1_455     S
Ti23     Ti21    10.066   1_655     S
Ti23     Ti24    9.856   .     S
Ti24     Ti22    10.066   1_655     S
Ce25     Ce26    9.839   .     S
Ce25     Ce27    9.839   .     S
Ce25     Ce28    9.89   .     S
Ce26     Ce27    9.839   .     S
Ce26     V41    10.152   .     S
Ce26     Ce29    9.89   .     S
Ce27     Ce30    9.89   .     S
Ce28     Ce29    9.839   .     S
Ce28     Ce30    9.839   .     S
Ce29     Ce30    9.839   .     S
Ce29     V42    10.152   .     S
Ce31     Ce32    9.839   .     S
Ce31     Ce33    9.839   .     S
Ce31     Ce35    9.89   .     S
Ce32     Ce33    9.839   .     S
Ce32     V37    10.152   .     S
Ce32     Ce36    9.89   .     S
Ce33     Ce34    9.89   .     S
Ce34     Ce35    9.839   .     S
Ce34     Ce36    9.839   .     S
Ce35     Ce36    9.839   .     S
Ce36     V38    10.152   .     S
V37     Er39    10.075   .     S
V37     V38    9.856   1_556     S
V38     Er40    10.075   .     S
V38     V37    9.856   1_554     S
Er39     Ti46    10.147   .     S
Er39     Er40    9.906   1_556     S
Er40     Ti45    10.147   .     S
Er40     Er39    9.906   1_554     S
V41     Er43    10.075   .     S
V41     V42    9.856   1_554     S
V42     Er44    10.075   .     S
V42     V41    9.856   1_556     S
Er43     Ti47    10.147   .     S
Er43     Er44    9.906   1_554     S
Er44     Ti48    10.147   .     S
Er44     Er43    9.906   1_556     S
Ti45     Ti47    10.066   .     S
Ti45     Ti46    9.856   .     S
Ti46     Ti48    10.066   .     S
Ti47     Ti48    9.856   .     S
