data_tpt
_audit_creation_date              2020-02-02
_audit_creation_method            'Pymatgen'
_symmetry_space_group_name_H-M    'P1'
_symmetry_Int_Tables_number       1
loop_
_symmetry_equiv_pos_as_xyz
  x,y,z
_cell_length_a                    10.6908
_cell_length_b                    10.6908
_cell_length_c                    23.0926
_cell_angle_alpha                 90.0
_cell_angle_beta                 90.0
_cell_angle_gamma                 120.0
loop_
_atom_site_label
_atom_site_type_symbol
_atom_site_fract_x
_atom_site_fract_y
_atom_site_fract_z
Er1     Er     0.0   0.5   0.75
Er2     Er     0.0   0.5   0.25
V3     V     0.3333   0.6667   0.5
Er4     Er     0.5   0.0   0.75
V5     V     0.6667   0.3333   0.0
V6     V     0.3333   0.6667   0.0
Er7     Er     0.5   0.0   0.25
Er8     Er     0.5   0.5   0.75
V9     V     0.6667   0.3333   0.5
Er10     Er     0.5   0.5   0.25
loop_
_geom_bond_atom_site_label_1
_geom_bond_atom_site_label_2
_geom_bond_distance
_geom_bond_site_symmetry_2
_ccdc_geom_bond_type
Er1     V6    10.0   1_446     S
Er1     V5    10.0   1_566     S
Er1     V3    10.0   1_455     S
Er1     V9    10.0   .     S
Er2     V5    10.0   1_565     S
Er2     V6    10.0   1_445     S
Er2     V9    10.0   .     S
Er2     V3    10.0   1_455     S
V3     Er4    10.0   1_455     S
V3     Er7    10.0   1_455     S
V3     Er8    10.0   1_565     S
V3     Er10    10.0   1_565     S
V3     Er1    10.0   1_655     S
V3     Er2    10.0   1_655     S
Er4     V3    10.0   1_655     S
Er4     V9    10.0   1_445     S
Er4     V5    10.0   1_546     S
Er4     V6    10.0   1_556     S
V5     Er8    10.0   1_654     S
V5     Er10    10.0   1_655     S
V5     Er1    10.0   1_544     S
V5     Er2    10.0   1_545     S
V5     Er4    10.0   1_564     S
V5     Er7    10.0   1_565     S
V6     Er8    10.0   1_454     S
V6     Er10    10.0   1_455     S
V6     Er1    10.0   1_664     S
V6     Er2    10.0   1_665     S
V6     Er4    10.0   1_554     S
V6     Er7    10.0   .     S
Er7     V9    10.0   1_445     S
Er7     V3    10.0   1_655     S
Er7     V5    10.0   1_545     S
Er8     V6    10.0   1_656     S
Er8     V5    10.0   1_456     S
Er8     V9    10.0   1_565     S
Er8     V3    10.0   1_545     S
V9     Er4    10.0   1_665     S
V9     Er7    10.0   1_665     S
V9     Er8    10.0   1_545     S
V9     Er10    10.0   1_545     S
Er10     V5    10.0   1_455     S
Er10     V6    10.0   1_655     S
Er10     V3    10.0   1_545     S
Er10     V9    10.0   1_565     S
