data_tpz
_audit_creation_date              2020-02-02
_audit_creation_method            'Pymatgen'
_symmetry_space_group_name_H-M    'P1'
_symmetry_Int_Tables_number       1
loop_
_symmetry_equiv_pos_as_xyz
  x,y,z
_cell_length_a                    71.4298
_cell_length_b                    71.4298
_cell_length_c                    12.5955
_cell_angle_alpha                 90.0
_cell_angle_beta                 90.0
_cell_angle_gamma                 120.0
loop_
_atom_site_label
_atom_site_type_symbol
_atom_site_fract_x
_atom_site_fract_y
_atom_site_fract_z
V1     V     0.4577   0.9153   0.0
V2     V     0.4577   0.5423   0.0
Er3     Er     0.3955   0.791   0.5
Ti4     Ti     0.3333   0.6667   0.0
Er5     Er     0.3955   0.6045   0.5
Er6     Er     0.209   0.6045   0.5
V7     V     0.0847   0.5423   0.0
V8     V     0.9153   0.4577   0.0
V9     V     0.5423   0.4577   0.0
Er10     Er     0.791   0.3955   0.5
Er11     Er     0.6045   0.3955   0.5
Ti12     Ti     0.6667   0.3333   0.0
Er13     Er     0.6045   0.209   0.5
V14     V     0.5423   0.0847   0.0
loop_
_geom_bond_atom_site_label_1
_geom_bond_atom_site_label_2
_geom_bond_distance
_geom_bond_site_symmetry_2
_ccdc_geom_bond_type
V1     V14    10.475   1_565     S
V1     Er3    9.941   .     S
V1     Er3    9.941   1_554     S
V2     V9    10.475   .     S
V2     Er5    9.941   .     S
V2     Er5    9.941   1_554     S
Er3     V1    9.941   1_556     S
Er3     Ti4    9.94   1_556     S
Er3     Ti4    9.94   .     S
Ti4     Er3    9.94   1_554     S
Ti4     Er6    9.94   .     S
Ti4     Er5    9.94   .     S
Ti4     Er5    9.94   1_554     S
Ti4     Er6    9.94   1_554     S
Er5     Ti4    9.94   1_556     S
Er5     V2    9.941   1_556     S
Er6     Ti4    9.94   1_556     S
Er6     V7    9.941   .     S
Er6     V7    9.941   1_556     S
V7     V8    10.475   1_455     S
V7     Er6    9.941   1_554     S
V8     V7    10.475   1_655     S
V8     Er10    9.941   1_554     S
V8     Er10    9.941   .     S
V9     Er11    9.941   1_554     S
V9     Er11    9.941   .     S
Er10     V8    9.941   1_556     S
Er10     Ti12    9.94   .     S
Er10     Ti12    9.94   1_556     S
Er11     Ti12    9.94   1_556     S
Er11     Ti12    9.94   .     S
Er11     V9    9.941   1_556     S
Ti12     Er10    9.94   1_554     S
Ti12     Er11    9.94   1_554     S
Ti12     Er13    9.94   .     S
Ti12     Er13    9.94   1_554     S
Er13     Ti12    9.94   1_556     S
Er13     V14    9.941   .     S
Er13     V14    9.941   1_556     S
V14     V1    10.475   1_545     S
V14     Er13    9.941   1_554     S
