data_tpza
_audit_creation_date              2020-02-02
_audit_creation_method            'Pymatgen'
_symmetry_space_group_name_H-M    'P1'
_symmetry_Int_Tables_number       1
loop_
_symmetry_equiv_pos_as_xyz
  x,y,z
_cell_length_a                    159.3609
_cell_length_b                    159.3609
_cell_length_c                    31.6373
_cell_angle_alpha                 90.0
_cell_angle_beta                 90.0
_cell_angle_gamma                 120.0
loop_
_atom_site_label
_atom_site_type_symbol
_atom_site_fract_x
_atom_site_fract_y
_atom_site_fract_z
Er1     Er     0.5506   0.4494   0.1543
Er2     Er     0.5506   0.4494   0.8457
V3     V     0.5187   0.4813   0.0
Er4     Er     0.5506   0.1011   0.1543
Er5     Er     0.5506   0.1011   0.8457
V6     V     0.5187   0.0373   0.0
Er7     Er     0.8989   0.4494   0.1543
Er8     Er     0.8989   0.4494   0.8457
V9     V     0.9627   0.4813   0.0
Ce10     Ce     0.6163   0.2326   0.343
Ce11     Ce     0.6163   0.2326   0.6569
Ti12     Ti     0.58   0.16   0.343
Ti13     Ti     0.58   0.16   0.657
Ti14     Ti     0.58   0.42   0.657
Ti15     Ti     0.58   0.42   0.343
Ce16     Ce     0.6163   0.3837   0.343
Ce17     Ce     0.6163   0.3837   0.6569
S18     S     0.646   0.354   0.843
S19     S     0.708   0.354   0.843
S20     S     0.646   0.292   0.843
S21     S     0.646   0.292   0.157
S22     S     0.708   0.354   0.157
S23     S     0.646   0.354   0.157
Ti24     Ti     0.84   0.42   0.343
Ti25     Ti     0.84   0.42   0.657
Ce26     Ce     0.7674   0.3837   0.343
Ce27     Ce     0.7674   0.3837   0.6569
Er28     Er     0.4494   0.5506   0.1543
Er29     Er     0.4494   0.5506   0.8457
V30     V     0.4813   0.5187   0.0
Er31     Er     0.4494   0.8989   0.1543
Er32     Er     0.4494   0.8989   0.8457
V33     V     0.4813   0.9627   0.0
Er34     Er     0.1011   0.5506   0.1543
Er35     Er     0.1011   0.5506   0.8457
V36     V     0.0373   0.5187   0.0
Ti37     Ti     0.42   0.84   0.343
Ti38     Ti     0.42   0.84   0.657
Ce39     Ce     0.3837   0.7674   0.343
Ce40     Ce     0.3837   0.7674   0.6569
Ti41     Ti     0.16   0.58   0.343
Ti42     Ti     0.16   0.58   0.657
Ce43     Ce     0.2326   0.6163   0.343
Ce44     Ce     0.2326   0.6163   0.6569
Ti45     Ti     0.42   0.58   0.657
Ti46     Ti     0.42   0.58   0.343
Ce47     Ce     0.3837   0.6163   0.343
Ce48     Ce     0.3837   0.6163   0.6569
S49     S     0.354   0.646   0.843
S50     S     0.354   0.708   0.843
S51     S     0.292   0.646   0.843
S52     S     0.354   0.646   0.157
S53     S     0.354   0.708   0.157
S54     S     0.292   0.646   0.157
loop_
_geom_bond_atom_site_label_1
_geom_bond_atom_site_label_2
_geom_bond_distance
_geom_bond_site_symmetry_2
_ccdc_geom_bond_type
Er1     Ti15    10.09   .     S
Er1     V3    10.062   .     S
Er1     Er2    9.761   1_554     S
Er2     Ti14    10.09   .     S
Er2     V3    10.062   1_556     S
Er2     Er1    9.761   1_556     S
V3     Er2    10.062   1_554     S
V3     V30    10.307   .     S
Er4     Ti12    10.09   .     S
Er4     V6    10.062   .     S
Er4     Er5    9.761   1_554     S
Er5     Ti13    10.09   .     S
Er5     V6    10.062   1_556     S
Er5     Er4    9.761   1_556     S
V6     Er5    10.062   1_554     S
V6     V33    10.307   1_545     S
Er7     Ti24    10.09   .     S
Er7     V9    10.062   .     S
Er7     Er8    9.761   1_554     S
Er8     Ti25    10.09   .     S
Er8     V9    10.062   1_556     S
Er8     Er7    9.761   1_556     S
V9     Er8    10.062   1_554     S
V9     V36    10.307   1_655     S
Ce10     Ce11    9.931   .     S
Ce10     S21    10.088   .     S
Ce10     Ti12    10.017   .     S
Ce11     S20    10.088   .     S
Ce11     Ti13    10.017   .     S
Ti12     Ti13    9.932   .     S
Ti14     Ti15    9.932   .     S
Ti14     Ce17    10.017   .     S
Ti15     Ce16    10.017   .     S
Ce16     Ce17    9.931   .     S
Ce16     S23    10.088   .     S
Ce17     S18    10.088   .     S
S18     S23    9.933   1_556     S
S18     S19    9.888   .     S
S18     S20    9.888   .     S
S19     S22    9.933   1_556     S
S19     Ce27    10.088   .     S
S19     S20    9.888   .     S
S20     S21    9.933   1_556     S
S21     S20    9.933   1_554     S
S21     S22    9.888   .     S
S21     S23    9.888   .     S
S22     S19    9.933   1_554     S
S22     Ce26    10.088   .     S
S22     S23    9.888   .     S
S23     S18    9.933   1_554     S
Ti24     Ti25    9.932   .     S
Ti24     Ce26    10.017   .     S
Ti25     Ce27    10.017   .     S
Ce26     Ce27    9.931   .     S
Er28     Ti46    10.09   .     S
Er28     V30    10.062   .     S
Er28     Er29    9.761   1_554     S
Er29     Ti45    10.09   .     S
Er29     V30    10.062   1_556     S
Er29     Er28    9.761   1_556     S
V30     Er29    10.062   1_554     S
Er31     Ti37    10.09   .     S
Er31     V33    10.062   .     S
Er31     Er32    9.761   1_554     S
Er32     Ti38    10.09   .     S
Er32     V33    10.062   1_556     S
Er32     Er31    9.761   1_556     S
V33     Er32    10.062   1_554     S
V33     V6    10.307   1_565     S
Er34     Ti41    10.09   .     S
Er34     V36    10.062   .     S
Er34     Er35    9.761   1_554     S
Er35     Ti42    10.09   .     S
Er35     V36    10.062   1_556     S
Er35     Er34    9.761   1_556     S
V36     Er35    10.062   1_554     S
V36     V9    10.307   1_455     S
Ti37     Ti38    9.932   .     S
Ti37     Ce39    10.017   .     S
Ti38     Ce40    10.017   .     S
Ce39     Ce40    9.931   .     S
Ce39     S53    10.088   .     S
Ce40     S50    10.088   .     S
Ti41     Ti42    9.932   .     S
Ti41     Ce43    10.017   .     S
Ti42     Ce44    10.017   .     S
Ce43     Ce44    9.931   .     S
Ce43     S54    10.088   .     S
Ce44     S51    10.088   .     S
Ti45     Ti46    9.932   .     S
Ti45     Ce48    10.017   .     S
Ti46     Ce47    10.017   .     S
Ce47     Ce48    9.931   .     S
Ce47     S52    10.088   .     S
Ce48     S49    10.088   .     S
S49     S52    9.933   1_556     S
S49     S50    9.888   .     S
S49     S51    9.888   .     S
S50     S53    9.933   1_556     S
S50     S51    9.888   .     S
S51     S54    9.933   1_556     S
S52     S49    9.933   1_554     S
S52     S53    9.888   .     S
S52     S54    9.888   .     S
S53     S50    9.933   1_554     S
S53     S54    9.888   .     S
S54     S51    9.933   1_554     S
