data_tru
_audit_creation_date              2020-02-02
_audit_creation_method            'Pymatgen'
_symmetry_space_group_name_H-M    'P1'
_symmetry_Int_Tables_number       1
loop_
_symmetry_equiv_pos_as_xyz
  x,y,z
_cell_length_a                    53.0153
_cell_length_b                    53.0153
_cell_length_c                    53.0153
_cell_angle_alpha                 90.0
_cell_angle_beta                 90.0
_cell_angle_gamma                 90.0
loop_
_atom_site_label
_atom_site_type_symbol
_atom_site_fract_x
_atom_site_fract_y
_atom_site_fract_z
V1     V     0.1783   0.5   0.1783
V2     V     0.5   0.1783   0.1783
V3     V     0.1783   0.1783   0.5
V4     V     0.5   0.1783   0.8217
V5     V     0.1783   0.5   0.8217
V6     V     0.5   0.8217   0.1783
V7     V     0.8217   0.5   0.1783
V8     V     0.1783   0.8217   0.5
Ti9     Ti     0.5   0.5   0.6886
Ti10     Ti     0.5   0.5   0.3114
Ti11     Ti     0.5   0.3114   0.5
Ti12     Ti     0.6886   0.5   0.5
Ti13     Ti     0.5   0.6886   0.5
Ti14     Ti     0.3114   0.5   0.5
Er15     Er     0.3116   0.3116   0.5
Er16     Er     0.3116   0.6884   0.5
Er17     Er     0.3116   0.5   0.3116
Er18     Er     0.3116   0.5   0.6884
Er19     Er     0.6884   0.6884   0.5
Er20     Er     0.5   0.6884   0.3116
Er21     Er     0.5   0.6884   0.6884
Er22     Er     0.6884   0.3116   0.5
Er23     Er     0.6884   0.5   0.3116
Er24     Er     0.6884   0.5   0.6884
Er25     Er     0.5   0.3116   0.3116
Er26     Er     0.5   0.3116   0.6884
V27     V     0.8217   0.8217   0.5
V28     V     0.5   0.8217   0.8217
V29     V     0.8217   0.5   0.8217
V30     V     0.8217   0.1783   0.5
S31     S     0.7716   0.7716   0.0
Ce32     Ce     0.6789   0.8641   0.8641
S33     S     0.7716   0.0   0.7716
Ce34     Ce     0.8641   0.6789   0.8641
S35     S     0.0   0.7716   0.7716
Ce36     Ce     0.8641   0.8641   0.6789
S37     S     0.2284   0.7716   0.0
Ce38     Ce     0.1359   0.6789   0.8641
Ce39     Ce     0.1359   0.6789   0.1359
S40     S     0.0   0.7716   0.2284
Ce41     Ce     0.8641   0.6789   0.1359
Ce42     Ce     0.8641   0.8641   0.3211
S43     S     0.7716   0.0   0.2284
Ce44     Ce     0.6789   0.8641   0.1359
Ce45     Ce     0.6789   0.1359   0.1359
S46     S     0.7716   0.2284   0.0
Ce47     Ce     0.6789   0.1359   0.8641
Ce48     Ce     0.8641   0.3211   0.8641
Ce49     Ce     0.3211   0.8641   0.8641
S50     S     0.0   0.2284   0.7716
Ce51     Ce     0.8641   0.1359   0.6789
Ce52     Ce     0.1359   0.1359   0.6789
S53     S     0.2284   0.0   0.7716
Ce54     Ce     0.1359   0.8641   0.6789
Ce55     Ce     0.3211   0.8641   0.1359
S56     S     0.2284   0.0   0.2284
Ce57     Ce     0.1359   0.8641   0.3211
Ce58     Ce     0.3211   0.1359   0.1359
Ce59     Ce     0.3211   0.1359   0.8641
S60     S     0.2284   0.2284   0.0
Ce61     Ce     0.1359   0.3211   0.8641
Ce62     Ce     0.1359   0.3211   0.1359
Ce63     Ce     0.1359   0.1359   0.3211
Ce64     Ce     0.8641   0.3211   0.1359
S65     S     0.0   0.2284   0.2284
Ce66     Ce     0.8641   0.1359   0.3211
loop_
_geom_bond_atom_site_label_1
_geom_bond_atom_site_label_2
_geom_bond_distance
_geom_bond_site_symmetry_2
_ccdc_geom_bond_type
V1     Er17    9.994   .     S
V1     Ce39    10.005   .     S
V1     Ce62    10.005   .     S
V2     Er25    9.994   .     S
V2     Ce45    10.005   .     S
V2     Ce58    10.005   .     S
V3     Er15    9.994   .     S
V3     Ce52    10.005   .     S
V3     Ce63    10.005   .     S
V4     Er26    9.994   .     S
V4     Ce47    10.005   .     S
V4     Ce59    10.005   .     S
V5     Er18    9.994   .     S
V5     Ce38    10.005   .     S
V5     Ce61    10.005   .     S
V6     Er20    9.994   .     S
V6     Ce44    10.005   .     S
V6     Ce55    10.005   .     S
V7     Er23    9.994   .     S
V7     Ce41    10.005   .     S
V7     Ce64    10.005   .     S
V8     Er16    9.994   .     S
V8     Ce54    10.005   .     S
V8     Ce57    10.005   .     S
Ti9     Er18    9.99   .     S
Ti9     Er26    9.99   .     S
Ti9     Er24    9.99   .     S
Ti9     Er21    9.99   .     S
Ti10     Er17    9.99   .     S
Ti10     Er23    9.99   .     S
Ti10     Er20    9.99   .     S
Ti10     Er25    9.99   .     S
Ti11     Er22    9.99   .     S
Ti11     Er15    9.99   .     S
Ti11     Er25    9.99   .     S
Ti11     Er26    9.99   .     S
Ti12     Er19    9.99   .     S
Ti12     Er22    9.99   .     S
Ti12     Er23    9.99   .     S
Ti12     Er24    9.99   .     S
Ti13     Er16    9.99   .     S
Ti13     Er19    9.99   .     S
Ti13     Er20    9.99   .     S
Ti13     Er21    9.99   .     S
Ti14     Er15    9.99   .     S
Ti14     Er16    9.99   .     S
Ti14     Er17    9.99   .     S
Ti14     Er18    9.99   .     S
Er19     V27    9.994   .     S
Er21     V28    9.994   .     S
Er22     V30    9.994   .     S
Er24     V29    9.994   .     S
V27     Ce36    10.005   .     S
V27     Ce42    10.005   .     S
V28     Ce32    10.005   .     S
V28     Ce49    10.005   .     S
V29     Ce34    10.005   .     S
V29     Ce48    10.005   .     S
V30     Ce51    10.005   .     S
V30     Ce66    10.005   .     S
S31     Ce41    10.004   .     S
S31     Ce44    10.004   .     S
S31     Ce32    10.004   1_554     S
S31     Ce34    10.004   1_554     S
Ce32     S31    10.004   1_556     S
Ce32     S33    10.004   1_565     S
S33     Ce47    10.004   .     S
S33     Ce51    10.004   .     S
S33     Ce36    10.004   1_545     S
S33     Ce32    10.004   1_545     S
Ce34     S31    10.004   1_556     S
Ce34     S35    10.004   1_655     S
S35     Ce54    10.004   .     S
S35     Ce38    10.004   .     S
S35     Ce36    10.004   1_455     S
S35     Ce34    10.004   1_455     S
Ce36     S33    10.004   1_565     S
Ce36     S35    10.004   1_655     S
S37     Ce55    10.004   .     S
S37     Ce49    10.004   1_554     S
S37     Ce39    10.004   .     S
S37     Ce38    10.004   1_554     S
Ce38     S37    10.004   1_556     S
Ce39     S40    10.004   .     S
S40     Ce57    10.004   .     S
S40     Ce42    10.004   1_455     S
S40     Ce41    10.004   1_455     S
Ce41     S40    10.004   1_655     S
Ce42     S40    10.004   1_655     S
Ce42     S43    10.004   1_565     S
S43     Ce66    10.004   .     S
S43     Ce42    10.004   1_545     S
S43     Ce45    10.004   .     S
S43     Ce44    10.004   1_545     S
Ce44     S43    10.004   1_565     S
Ce45     S46    10.004   .     S
S46     Ce64    10.004   .     S
S46     Ce48    10.004   1_554     S
S46     Ce47    10.004   1_554     S
Ce47     S46    10.004   1_556     S
Ce48     S46    10.004   1_556     S
Ce48     S50    10.004   1_655     S
Ce49     S37    10.004   1_556     S
Ce49     S53    10.004   1_565     S
S50     Ce61    10.004   .     S
S50     Ce48    10.004   1_455     S
S50     Ce52    10.004   .     S
S50     Ce51    10.004   1_455     S
Ce51     S50    10.004   1_655     S
Ce52     S53    10.004   .     S
S53     Ce59    10.004   .     S
S53     Ce49    10.004   1_545     S
S53     Ce54    10.004   1_545     S
Ce54     S53    10.004   1_565     S
Ce55     S56    10.004   1_565     S
S56     Ce58    10.004   .     S
S56     Ce63    10.004   .     S
S56     Ce57    10.004   1_545     S
S56     Ce55    10.004   1_545     S
Ce57     S56    10.004   1_565     S
Ce58     S60    10.004   .     S
Ce59     S60    10.004   1_556     S
S60     Ce62    10.004   .     S
S60     Ce59    10.004   1_554     S
S60     Ce61    10.004   1_554     S
Ce61     S60    10.004   1_556     S
Ce62     S65    10.004   .     S
Ce63     S65    10.004   .     S
Ce64     S65    10.004   1_655     S
S65     Ce66    10.004   1_455     S
S65     Ce64    10.004   1_455     S
Ce66     S65    10.004   1_655     S
