data_tsa
_audit_creation_date              2020-02-02
_audit_creation_method            'Pymatgen'
_symmetry_space_group_name_H-M    'P1'
_symmetry_Int_Tables_number       1
loop_
_symmetry_equiv_pos_as_xyz
  x,y,z
_cell_length_a                    28.8693
_cell_length_b                    28.8693
_cell_length_c                    29.8105
_cell_angle_alpha                 90.0
_cell_angle_beta                 90.0
_cell_angle_gamma                 120.0
loop_
_atom_site_label
_atom_site_type_symbol
_atom_site_fract_x
_atom_site_fract_y
_atom_site_fract_z
Er1     Er     0.1333   0.2667   0.75
Er2     Er     0.1333   0.8667   0.75
V3     V     0.3333   0.6667   0.75
Er4     Er     0.7333   0.8666   0.75
Ti5     Ti     0.0   0.0   0.0
Ti6     Ti     0.0   0.0   0.5
Er7     Er     0.2667   0.1333   0.25
Er8     Er     0.8667   0.1333   0.25
V9     V     0.6667   0.3333   0.25
Er10     Er     0.8667   0.7333   0.25
loop_
_geom_bond_atom_site_label_1
_geom_bond_atom_site_label_2
_geom_bond_distance
_geom_bond_site_symmetry_2
_ccdc_geom_bond_type
Er1     V3    10.0   .     S
Er1     Ti5    10.0   1_556     S
Er1     Ti6    10.0   .     S
Er2     V3    10.0   .     S
Er2     Ti5    10.0   1_566     S
Er2     Ti6    10.0   1_565     S
V3     Er4    10.0   .     S
Er4     Ti5    10.0   1_666     S
Er4     Ti6    10.0   1_665     S
Ti5     Er2    10.0   1_544     S
Ti5     Er1    10.0   1_554     S
Ti5     Er4    10.0   1_444     S
Ti5     Er7    10.0   .     S
Ti5     Er8    10.0   1_455     S
Ti5     Er10    10.0   1_445     S
Ti6     Er8    10.0   1_455     S
Ti6     Er7    10.0   .     S
Ti6     Er10    10.0   1_445     S
Ti6     Er2    10.0   1_545     S
Ti6     Er4    10.0   1_445     S
Er7     V9    10.0   .     S
Er8     Ti5    10.0   1_655     S
Er8     Ti6    10.0   1_655     S
Er8     V9    10.0   .     S
V9     Er10    10.0   .     S
Er10     Ti5    10.0   1_665     S
Er10     Ti6    10.0   1_665     S
