data_tsb
_audit_creation_date              2020-02-02
_audit_creation_method            'Pymatgen'
_symmetry_space_group_name_H-M    'P1'
_symmetry_Int_Tables_number       1
loop_
_symmetry_equiv_pos_as_xyz
  x,y,z
_cell_length_a                    24.9889
_cell_length_b                    24.9889
_cell_length_c                    25.8428
_cell_angle_alpha                 90.0
_cell_angle_beta                 90.0
_cell_angle_gamma                 120.0
loop_
_atom_site_label
_atom_site_type_symbol
_atom_site_fract_x
_atom_site_fract_y
_atom_site_fract_z
Ti1     Ti     0.6667   0.3333   0.75
V2     V     0.0   0.0   0.0
Er3     Er     0.5998   0.0   0.0
Er4     Er     0.4002   0.4002   0.0
Er5     Er     0.0   0.5998   0.0
Ti6     Ti     0.3333   0.6667   0.25
V7     V     0.0   0.0   0.5
Er8     Er     0.4002   0.0   0.5
Er9     Er     0.0   0.4002   0.5
Er10     Er     0.5998   0.5998   0.5
loop_
_geom_bond_atom_site_label_1
_geom_bond_atom_site_label_2
_geom_bond_distance
_geom_bond_site_symmetry_2
_ccdc_geom_bond_type
Ti1     Er4    10.0   1_556     S
Ti1     Er10    10.0   .     S
Ti1     Er8    10.0   .     S
Ti1     Er5    10.0   1_656     S
Ti1     Er3    10.0   1_556     S
Ti1     Er9    10.0   1_655     S
V2     Er3    10.0   1_455     S
V2     Er5    10.0   1_545     S
V2     Er4    10.0   .     S
Er3     Ti1    10.0   1_554     S
Er3     V2    10.0   1_655     S
Er3     Ti6    10.0   1_545     S
Er4     Ti1    10.0   1_554     S
Er4     Ti6    10.0   .     S
Er5     Ti1    10.0   1_454     S
Er5     V2    10.0   1_565     S
Er5     Ti6    10.0   .     S
Ti6     Er10    10.0   .     S
Ti6     Er3    10.0   1_565     S
Ti6     Er8    10.0   1_565     S
Ti6     Er9    10.0   .     S
V7     Er10    10.0   1_445     S
V7     Er8    10.0   .     S
V7     Er9    10.0   .     S
Er8     Ti6    10.0   1_545     S
Er9     Ti1    10.0   1_455     S
Er10     V7    10.0   1_665     S
