data_tsba
_audit_creation_date              2020-02-02
_audit_creation_method            'Pymatgen'
_symmetry_space_group_name_H-M    'P1'
_symmetry_Int_Tables_number       1
loop_
_symmetry_equiv_pos_as_xyz
  x,y,z
_cell_length_a                    57.4418
_cell_length_b                    57.4418
_cell_length_c                    53.8323
_cell_angle_alpha                 90.0
_cell_angle_beta                 90.0
_cell_angle_gamma                 120.0
loop_
_atom_site_label
_atom_site_type_symbol
_atom_site_fract_x
_atom_site_fract_y
_atom_site_fract_z
V1     V     0.8995   0.8995   0.5
V2     V     0.0   0.1005   0.5
V3     V     0.1005   0.0   0.5
V4     V     0.8995   0.0   0.0
V5     V     0.1005   0.1005   0.0
V6     V     0.0   0.8995   0.0
Ti7     Ti     0.6667   0.4338   0.6742
Ce8     Ce     0.614   0.5353   0.5578
Ti9     Ti     0.7672   0.4338   0.8258
Ce10     Ce     0.9213   0.5353   0.9422
Ti11     Ti     0.5662   0.3333   0.8258
Ce12     Ce     0.4647   0.386   0.9422
Ti13     Ti     0.5662   0.2328   0.6742
Ce14     Ce     0.4647   0.0787   0.5578
Ti15     Ti     0.6667   0.2328   0.8258
Ce16     Ce     0.614   0.0787   0.9422
Ti17     Ti     0.7672   0.3333   0.6742
Ce18     Ce     0.9213   0.386   0.5578
Ti19     Ti     0.2328   0.5662   0.3258
Ce20     Ce     0.0787   0.4647   0.4422
Ti21     Ti     0.3333   0.5662   0.1742
Ce22     Ce     0.386   0.4647   0.0578
Ti23     Ti     0.4338   0.6667   0.3258
Ce24     Ce     0.5353   0.614   0.4422
Ti25     Ti     0.4338   0.7672   0.1742
Ce26     Ce     0.5353   0.9213   0.0578
Ti27     Ti     0.3333   0.7672   0.3258
Ce28     Ce     0.386   0.9213   0.4422
Ti29     Ti     0.2328   0.6667   0.1742
Ce30     Ce     0.0787   0.614   0.0578
Er31     Er     0.7254   0.0   0.0
Er32     Er     0.0   0.2746   0.5
Er33     Er     0.0   0.7254   0.0
Er34     Er     0.2746   0.0   0.5
Er35     Er     0.7254   0.7254   0.5
Er36     Er     0.2746   0.2746   0.0
loop_
_geom_bond_atom_site_label_1
_geom_bond_atom_site_label_2
_geom_bond_distance
_geom_bond_site_symmetry_2
_ccdc_geom_bond_type
V1     Er35    10.0   .     S
V1     V2    10.0   1_665     S
V1     V3    10.0   1_665     S
V2     Er32    10.0   .     S
V2     V1    10.0   1_445     S
V2     V3    10.0   .     S
V3     V1    10.0   1_445     S
V3     Er34    10.0   .     S
V4     Er31    10.0   .     S
V4     V6    10.0   1_645     S
V4     V5    10.0   1_655     S
V5     Er36    10.0   .     S
V5     V6    10.0   1_545     S
V5     V4    10.0   1_455     S
V6     V5    10.0   1_565     S
V6     V4    10.0   1_465     S
V6     Er33    10.0   .     S
Ti7     Ti17    9.999   .     S
Ti7     Ce8    10.0   .     S
Ti7     Ti9    10.0   .     S
Ti7     Ti13    9.999   .     S
Ti7     Ti11    10.0   .     S
Ce8     Er35    10.0   .     S
Ce8     Ce24    10.001   .     S
Ti9     Ti11    9.999   .     S
Ti9     Ce10    10.0   .     S
Ti9     Ti17    10.0   .     S
Ti9     Ti15    9.999   .     S
Ce10     Er33    10.0   1_656     S
Ce10     Ce30    10.001   1_656     S
Ti11     Ti15    9.999   .     S
Ti11     Ce12    10.0   .     S
Ti11     Ti13    10.0   .     S
Ce12     Er36    10.0   1_556     S
Ce12     Ce22    10.001   1_556     S
Ti13     Ce14    10.0   .     S
Ti13     Ti17    9.999   .     S
Ti13     Ti15    10.0   .     S
Ce14     Er34    10.0   .     S
Ce14     Ce28    10.001   1_545     S
Ti15     Ce16    10.0   .     S
Ti15     Ti17    10.0   .     S
Ce16     Er31    10.0   1_556     S
Ce16     Ce26    10.001   1_546     S
Ti17     Ce18    10.0   .     S
Ce18     Er32    10.0   1_655     S
Ce18     Ce20    10.001   1_655     S
Ti19     Ti23    9.999   .     S
Ti19     Ce20    10.0   .     S
Ti19     Ti21    10.0   .     S
Ti19     Ti27    9.999   .     S
Ti19     Ti29    10.0   .     S
Ce20     Er32    10.0   .     S
Ce20     Ce18    10.001   1_455     S
Ti21     Ti29    9.999   .     S
Ti21     Ce22    10.0   .     S
Ti21     Ti23    10.0   .     S
Ti21     Ti25    9.999   .     S
Ce22     Er36    10.0   .     S
Ce22     Ce12    10.001   1_554     S
Ti23     Ti27    9.999   .     S
Ti23     Ce24    10.0   .     S
Ti23     Ti25    10.0   .     S
Ce24     Er35    10.0   .     S
Ti25     Ce26    10.0   .     S
Ti25     Ti29    9.999   .     S
Ti25     Ti27    10.0   .     S
Ce26     Er31    10.0   1_565     S
Ce26     Ce16    10.001   1_564     S
Ti27     Ce28    10.0   .     S
Ti27     Ti29    10.0   .     S
Ce28     Er34    10.0   1_565     S
Ce28     Ce14    10.001   1_565     S
Ti29     Ce30    10.0   .     S
Ce30     Er33    10.0   .     S
Ce30     Ce10    10.001   1_454     S
Er31     Ce26    10.0   1_545     S
Er31     Ce16    10.0   1_554     S
Er32     Ce18    10.0   1_455     S
Er33     Ce10    10.0   1_454     S
Er34     Ce28    10.0   1_545     S
Er36     Ce12    10.0   1_554     S
