data_tsf
_audit_creation_date              2020-02-02
_audit_creation_method            'Pymatgen'
_symmetry_space_group_name_H-M    'P1'
_symmetry_Int_Tables_number       1
loop_
_symmetry_equiv_pos_as_xyz
  x,y,z
_cell_length_a                    15.3096
_cell_length_b                    25.7379
_cell_length_c                    15.3099
_cell_angle_alpha                 90.0
_cell_angle_beta                 90.0
_cell_angle_gamma                 90.0
loop_
_atom_site_label
_atom_site_type_symbol
_atom_site_fract_x
_atom_site_fract_y
_atom_site_fract_z
Ti1     Ti     0.0   0.5   0.0
Ce2     Ce     0.0   0.25   0.5
Er3     Er     0.5   0.0   0.5
Ce4     Ce     0.0   0.75   0.5
V5     V     0.0   0.0   0.0
loop_
_geom_bond_atom_site_label_1
_geom_bond_atom_site_label_2
_geom_bond_distance
_geom_bond_site_symmetry_2
_ccdc_geom_bond_type
Ti1     Ce4    10.0   1_554     S
Ti1     Ce2    10.0   1_554     S
Ti1     Ce2    10.0   .     S
Ti1     Ce4    10.0   .     S
Ce2     Ti1    10.0   1_556     S
Ce2     Er3    10.0   .     S
Ce2     Er3    10.0   1_455     S
Ce2     V5    10.0   1_556     S
Ce2     V5    10.0   .     S
Er3     Ce4    10.0   1_645     S
Er3     Ce4    10.0   1_545     S
Er3     Ce2    10.0   1_655     S
Ce4     Ti1    10.0   1_556     S
Ce4     Er3    10.0   1_465     S
Ce4     Er3    10.0   1_565     S
Ce4     V5    10.0   1_566     S
Ce4     V5    10.0   1_565     S
V5     Ce4    10.0   1_544     S
V5     Ce2    10.0   1_554     S
V5     Ce4    10.0   1_545     S
