data_tsga
_audit_creation_date              2020-02-02
_audit_creation_method            'Pymatgen'
_symmetry_space_group_name_H-M    'P1'
_symmetry_Int_Tables_number       1
loop_
_symmetry_equiv_pos_as_xyz
  x,y,z
_cell_length_a                    64.0968
_cell_length_b                    64.0968
_cell_length_c                    34.6659
_cell_angle_alpha                 90.0
_cell_angle_beta                 90.0
_cell_angle_gamma                 120.0
loop_
_atom_site_label
_atom_site_type_symbol
_atom_site_fract_x
_atom_site_fract_y
_atom_site_fract_z
V1     V     0.2813   0.7187   0.1442
V2     V     0.2813   0.5627   0.1442
V3     V     0.4373   0.7187   0.1442
V4     V     0.2813   0.7187   0.8558
V5     V     0.2813   0.5627   0.8558
V6     V     0.4373   0.7187   0.8558
Ce7     Ce     0.1421   0.2842   0.5
Er8     Er     0.2201   0.4402   0.6442
Er9     Er     0.2201   0.4402   0.3558
Ce10     Ce     0.7158   0.8579   0.5
Er11     Er     0.5598   0.7799   0.3558
Er12     Er     0.5598   0.7799   0.6442
Ti13     Ti     0.896   0.948   0.5
Ti14     Ti     0.052   0.104   0.5
Ti15     Ti     0.052   0.948   0.5
Ce16     Ce     0.1421   0.8579   0.5
Er17     Er     0.2201   0.7799   0.6442
Er18     Er     0.2201   0.7799   0.3558
loop_
_geom_bond_atom_site_label_1
_geom_bond_atom_site_label_2
_geom_bond_distance
_geom_bond_site_symmetry_2
_ccdc_geom_bond_type
V1     V2    10.0   .     S
V1     V3    10.0   .     S
V1     V4    10.0   1_554     S
V1     Er18    10.0   .     S
V2     V3    10.0   .     S
V2     V5    10.0   1_554     S
V2     Er9    10.0   .     S
V3     V6    10.0   1_554     S
V3     Er11    10.0   .     S
V4     V5    10.0   .     S
V4     V6    10.0   .     S
V4     V1    10.0   1_556     S
V4     Er17    10.0   .     S
V5     V6    10.0   .     S
V5     V2    10.0   1_556     S
V5     Er8    10.0   .     S
V6     V3    10.0   1_556     S
V6     Er12    10.0   .     S
Ce7     Er8    10.0   .     S
Ce7     Er9    10.0   .     S
Ce7     Ti14    10.0   .     S
Er8     Er9    10.0   .     S
Ce10     Er12    10.0   .     S
Ce10     Er11    10.0   .     S
Ce10     Ti13    10.0   .     S
Er11     Er12    10.0   .     S
Ti13     Ti15    10.0   1_655     S
Ti13     Ti14    10.0   1_665     S
Ti14     Ti15    10.0   1_545     S
Ti14     Ti13    10.0   1_445     S
Ti15     Ti14    10.0   1_565     S
Ti15     Ti13    10.0   1_455     S
Ti15     Ce16    10.0   .     S
Ce16     Er17    10.0   .     S
Ce16     Er18    10.0   .     S
Er17     Er18    10.0   .     S
