data_tsl
_audit_creation_date              2020-02-02
_audit_creation_method            'Pymatgen'
_symmetry_space_group_name_H-M    'P1'
_symmetry_Int_Tables_number       1
loop_
_symmetry_equiv_pos_as_xyz
  x,y,z
_cell_length_a                    25.6508
_cell_length_b                    25.6508
_cell_length_c                    43.6864
_cell_angle_alpha                 90.0
_cell_angle_beta                 90.0
_cell_angle_gamma                 90.0
loop_
_atom_site_label
_atom_site_type_symbol
_atom_site_fract_x
_atom_site_fract_y
_atom_site_fract_z
V1     V     0.0   0.125   0.9573
V2     V     0.0   0.625   0.9573
V3     V     0.5   0.125   0.9573
V4     V     0.5   0.625   0.9573
V5     V     0.0   0.125   0.7927
V6     V     0.0   0.625   0.7927
V7     V     0.5   0.125   0.7927
V8     V     0.5   0.625   0.7927
V9     V     0.25   0.375   0.4573
V10     V     0.25   0.875   0.4573
V11     V     0.75   0.375   0.4573
V12     V     0.75   0.875   0.4573
V13     V     0.25   0.375   0.2927
V14     V     0.25   0.875   0.2927
V15     V     0.75   0.375   0.2927
V16     V     0.75   0.875   0.2927
V17     V     0.0   0.375   0.2073
V18     V     0.0   0.875   0.2073
V19     V     0.5   0.375   0.2073
V20     V     0.5   0.875   0.2073
V21     V     0.0   0.375   0.0427
V22     V     0.0   0.875   0.0427
V23     V     0.5   0.375   0.0427
V24     V     0.5   0.875   0.0427
V25     V     0.25   0.125   0.5427
V26     V     0.25   0.625   0.5427
V27     V     0.75   0.125   0.5427
V28     V     0.75   0.625   0.5427
V29     V     0.25   0.125   0.7073
V30     V     0.25   0.625   0.7073
V31     V     0.75   0.125   0.7073
V32     V     0.75   0.625   0.7073
Er33     Er     0.0   0.125   0.375
Er34     Er     0.0   0.625   0.375
Er35     Er     0.5   0.125   0.375
Er36     Er     0.5   0.625   0.375
Er37     Er     0.25   0.125   0.125
Er38     Er     0.25   0.625   0.125
Er39     Er     0.75   0.125   0.125
Er40     Er     0.75   0.625   0.125
Er41     Er     0.0   0.375   0.625
Er42     Er     0.0   0.875   0.625
Er43     Er     0.5   0.375   0.625
Er44     Er     0.5   0.875   0.625
Er45     Er     0.25   0.375   0.875
Er46     Er     0.25   0.875   0.875
Er47     Er     0.75   0.375   0.875
Er48     Er     0.75   0.875   0.875
loop_
_geom_bond_atom_site_label_1
_geom_bond_atom_site_label_2
_geom_bond_distance
_geom_bond_site_symmetry_2
_ccdc_geom_bond_type
V1     V21    7.419   1_556     S
V1     V22    7.419   1_546     S
V1     V5    7.19   .     S
V1     Er37    9.737   1_556     S
V1     Er39    9.737   1_456     S
V1     Er47    9.755   1_455     S
V1     Er45    9.755   .     S
V1     Er46    9.755   1_545     S
V1     Er48    9.755   1_445     S
V2     V22    7.419   1_556     S
V2     V21    7.419   1_556     S
V2     V6    7.19   .     S
V2     Er38    9.737   1_556     S
V2     Er40    9.737   1_456     S
V2     Er48    9.755   1_455     S
V2     Er46    9.755   .     S
V2     Er45    9.755   .     S
V2     Er47    9.755   1_455     S
V3     V23    7.419   1_556     S
V3     V24    7.419   1_546     S
V3     V7    7.19   .     S
V3     Er39    9.737   1_556     S
V3     Er37    9.737   1_556     S
V3     Er45    9.755   .     S
V3     Er47    9.755   .     S
V3     Er48    9.755   1_545     S
V3     Er46    9.755   1_545     S
V4     V24    7.419   1_556     S
V4     V23    7.419   1_556     S
V4     V8    7.19   .     S
V4     Er40    9.737   1_556     S
V4     Er38    9.737   1_556     S
V4     Er46    9.755   .     S
V4     Er48    9.755   .     S
V4     Er47    9.755   .     S
V4     Er45    9.755   .     S
V5     V31    7.419   1_455     S
V5     V29    7.419   .     S
V5     Er47    9.755   1_455     S
V5     Er45    9.755   .     S
V5     Er46    9.755   1_545     S
V5     Er48    9.755   1_445     S
V5     Er42    9.737   1_545     S
V5     Er41    9.737   .     S
V6     V32    7.419   1_455     S
V6     V30    7.419   .     S
V6     Er48    9.755   1_455     S
V6     Er46    9.755   .     S
V6     Er45    9.755   .     S
V6     Er47    9.755   1_455     S
V6     Er41    9.737   .     S
V6     Er42    9.737   .     S
V7     V29    7.419   .     S
V7     V31    7.419   .     S
V7     Er45    9.755   .     S
V7     Er47    9.755   .     S
V7     Er48    9.755   1_545     S
V7     Er46    9.755   1_545     S
V7     Er44    9.737   1_545     S
V7     Er43    9.737   .     S
V8     V30    7.419   .     S
V8     V32    7.419   .     S
V8     Er46    9.755   .     S
V8     Er48    9.755   .     S
V8     Er47    9.755   .     S
V8     Er45    9.755   .     S
V8     Er43    9.737   .     S
V8     Er44    9.737   .     S
V9     V25    7.419   .     S
V9     V26    7.419   .     S
V9     V13    7.19   .     S
V9     Er41    9.737   .     S
V9     Er43    9.737   .     S
V9     Er33    9.755   .     S
V9     Er35    9.755   .     S
V9     Er36    9.755   .     S
V9     Er34    9.755   .     S
V10     V26    7.419   .     S
V10     V25    7.419   1_565     S
V10     V14    7.19   .     S
V10     Er42    9.737   .     S
V10     Er44    9.737   .     S
V10     Er34    9.755   .     S
V10     Er36    9.755   .     S
V10     Er35    9.755   1_565     S
V10     Er33    9.755   1_565     S
V11     V27    7.419   .     S
V11     V28    7.419   .     S
V11     V15    7.19   .     S
V11     Er43    9.737   .     S
V11     Er41    9.737   1_655     S
V11     Er35    9.755   .     S
V11     Er33    9.755   1_655     S
V11     Er34    9.755   1_655     S
V11     Er36    9.755   .     S
V12     V28    7.419   .     S
V12     V27    7.419   1_565     S
V12     V16    7.19   .     S
V12     Er44    9.737   .     S
V12     Er42    9.737   1_655     S
V12     Er36    9.755   .     S
V12     Er34    9.755   1_655     S
V12     Er33    9.755   1_665     S
V12     Er35    9.755   1_565     S
V13     V19    7.419   .     S
V13     V17    7.419   .     S
V13     Er37    9.737   .     S
V13     Er38    9.737   .     S
V13     Er33    9.755   .     S
V13     Er35    9.755   .     S
V13     Er36    9.755   .     S
V13     Er34    9.755   .     S
V14     V20    7.419   .     S
V14     V18    7.419   .     S
V14     Er38    9.737   .     S
V14     Er37    9.737   1_565     S
V14     Er34    9.755   .     S
V14     Er36    9.755   .     S
V14     Er35    9.755   1_565     S
V14     Er33    9.755   1_565     S
V15     V17    7.419   1_655     S
V15     V19    7.419   .     S
V15     Er39    9.737   .     S
V15     Er40    9.737   .     S
V15     Er35    9.755   .     S
V15     Er33    9.755   1_655     S
V15     Er34    9.755   1_655     S
V15     Er36    9.755   .     S
V16     V18    7.419   1_655     S
V16     V20    7.419   .     S
V16     Er40    9.737   .     S
V16     Er39    9.737   1_565     S
V16     Er36    9.755   .     S
V16     Er34    9.755   1_655     S
V16     Er33    9.755   1_665     S
V16     Er35    9.755   1_565     S
V17     V15    7.419   1_455     S
V17     V21    7.19   .     S
V17     Er37    9.755   .     S
V17     Er39    9.755   1_455     S
V17     Er40    9.755   1_455     S
V17     Er38    9.755   .     S
V17     Er33    9.737   .     S
V17     Er34    9.737   .     S
V18     V16    7.419   1_455     S
V18     V22    7.19   .     S
V18     Er38    9.755   .     S
V18     Er40    9.755   1_455     S
V18     Er39    9.755   1_465     S
V18     Er37    9.755   1_565     S
V18     Er34    9.737   .     S
V18     Er33    9.737   1_565     S
V19     V23    7.19   .     S
V19     Er39    9.755   .     S
V19     Er37    9.755   .     S
V19     Er38    9.755   .     S
V19     Er40    9.755   .     S
V19     Er35    9.737   .     S
V19     Er36    9.737   .     S
V20     V24    7.19   .     S
V20     Er40    9.755   .     S
V20     Er38    9.755   .     S
V20     Er37    9.755   1_565     S
V20     Er39    9.755   1_565     S
V20     Er36    9.737   .     S
V20     Er35    9.737   1_565     S
V21     V1    7.419   1_554     S
V21     V2    7.419   1_554     S
V21     Er37    9.755   .     S
V21     Er39    9.755   1_455     S
V21     Er40    9.755   1_455     S
V21     Er38    9.755   .     S
V21     Er47    9.737   1_454     S
V21     Er45    9.737   1_554     S
V22     V2    7.419   1_554     S
V22     V1    7.419   1_564     S
V22     Er38    9.755   .     S
V22     Er40    9.755   1_455     S
V22     Er39    9.755   1_465     S
V22     Er37    9.755   1_565     S
V22     Er48    9.737   1_454     S
V22     Er46    9.737   1_554     S
V23     V3    7.419   1_554     S
V23     V4    7.419   1_554     S
V23     Er39    9.755   .     S
V23     Er37    9.755   .     S
V23     Er38    9.755   .     S
V23     Er40    9.755   .     S
V23     Er45    9.737   1_554     S
V23     Er47    9.737   1_554     S
V24     V4    7.419   1_554     S
V24     V3    7.419   1_564     S
V24     Er40    9.755   .     S
V24     Er38    9.755   .     S
V24     Er37    9.755   1_565     S
V24     Er39    9.755   1_565     S
V24     Er46    9.737   1_554     S
V24     Er48    9.737   1_554     S
V25     V10    7.419   1_545     S
V25     V29    7.19   .     S
V25     Er42    9.755   1_545     S
V25     Er41    9.755   .     S
V25     Er44    9.755   1_545     S
V25     Er43    9.755   .     S
V25     Er35    9.737   .     S
V25     Er33    9.737   .     S
V26     V30    7.19   .     S
V26     Er41    9.755   .     S
V26     Er42    9.755   .     S
V26     Er43    9.755   .     S
V26     Er44    9.755   .     S
V26     Er36    9.737   .     S
V26     Er34    9.737   .     S
V27     V12    7.419   1_545     S
V27     V31    7.19   .     S
V27     Er44    9.755   1_545     S
V27     Er43    9.755   .     S
V27     Er42    9.755   1_645     S
V27     Er41    9.755   1_655     S
V27     Er33    9.737   1_655     S
V27     Er35    9.737   .     S
V28     V32    7.19   .     S
V28     Er43    9.755   .     S
V28     Er44    9.755   .     S
V28     Er41    9.755   1_655     S
V28     Er42    9.755   1_655     S
V28     Er34    9.737   1_655     S
V28     Er36    9.737   .     S
V29     Er45    9.737   .     S
V29     Er46    9.737   1_545     S
V29     Er42    9.755   1_545     S
V29     Er41    9.755   .     S
V29     Er44    9.755   1_545     S
V29     Er43    9.755   .     S
V30     Er46    9.737   .     S
V30     Er45    9.737   .     S
V30     Er41    9.755   .     S
V30     Er42    9.755   .     S
V30     Er43    9.755   .     S
V30     Er44    9.755   .     S
V31     V5    7.419   1_655     S
V31     Er47    9.737   .     S
V31     Er48    9.737   1_545     S
V31     Er44    9.755   1_545     S
V31     Er43    9.755   .     S
V31     Er42    9.755   1_645     S
V31     Er41    9.755   1_655     S
V32     V6    7.419   1_655     S
V32     Er48    9.737   .     S
V32     Er47    9.737   .     S
V32     Er43    9.755   .     S
V32     Er44    9.755   .     S
V32     Er41    9.755   1_655     S
V32     Er42    9.755   1_655     S
Er33     Er39    12.665   1_455     S
Er33     Er37    12.665   .     S
Er33     Er41    12.665   .     S
Er33     Er42    12.665   1_545     S
Er33     Er35    12.825   .     S
Er33     Er35    12.825   1_455     S
Er33     Er34    12.825   .     S
Er33     Er34    12.825   1_545     S
Er33     V15    9.755   1_455     S
Er33     V11    9.755   1_455     S
Er33     V12    9.755   1_445     S
Er33     V16    9.755   1_445     S
Er33     V27    9.737   1_455     S
Er33     V14    9.755   1_545     S
Er33     V10    9.755   1_545     S
Er33     V18    9.737   1_545     S
Er34     Er40    12.665   1_455     S
Er34     Er38    12.665   .     S
Er34     Er42    12.665   .     S
Er34     Er41    12.665   .     S
Er34     Er36    12.825   .     S
Er34     Er36    12.825   1_455     S
Er34     Er33    12.825   1_565     S
Er34     V16    9.755   1_455     S
Er34     V12    9.755   1_455     S
Er34     V11    9.755   1_455     S
Er34     V15    9.755   1_455     S
Er34     V28    9.737   1_455     S
Er35     Er37    12.665   .     S
Er35     Er39    12.665   .     S
Er35     Er43    12.665   .     S
Er35     Er44    12.665   1_545     S
Er35     Er33    12.825   1_655     S
Er35     Er36    12.825   .     S
Er35     Er36    12.825   1_545     S
Er35     V10    9.755   1_545     S
Er35     V14    9.755   1_545     S
Er35     V16    9.755   1_545     S
Er35     V12    9.755   1_545     S
Er35     V20    9.737   1_545     S
Er36     Er38    12.665   .     S
Er36     Er40    12.665   .     S
Er36     Er44    12.665   .     S
Er36     Er43    12.665   .     S
Er36     Er34    12.825   1_655     S
Er36     Er35    12.825   1_565     S
Er37     Er45    12.665   1_554     S
Er37     Er46    12.665   1_544     S
Er37     Er39    12.825   1_455     S
Er37     Er39    12.825   .     S
Er37     Er38    12.825   .     S
Er37     Er38    12.825   1_545     S
Er37     V1    9.737   1_554     S
Er37     V20    9.755   1_545     S
Er37     V24    9.755   1_545     S
Er37     V22    9.755   1_545     S
Er37     V18    9.755   1_545     S
Er37     V14    9.737   1_545     S
Er37     V3    9.737   1_554     S
Er38     Er46    12.665   1_554     S
Er38     Er45    12.665   1_554     S
Er38     Er40    12.825   1_455     S
Er38     Er40    12.825   .     S
Er38     Er37    12.825   1_565     S
Er38     V2    9.737   1_554     S
Er38     V4    9.737   1_554     S
Er39     Er47    12.665   1_554     S
Er39     Er33    12.665   1_655     S
Er39     Er48    12.665   1_544     S
Er39     Er37    12.825   1_655     S
Er39     Er40    12.825   .     S
Er39     Er40    12.825   1_545     S
Er39     V21    9.755   1_655     S
Er39     V17    9.755   1_655     S
Er39     V3    9.737   1_554     S
Er39     V18    9.755   1_645     S
Er39     V22    9.755   1_645     S
Er39     V24    9.755   1_545     S
Er39     V20    9.755   1_545     S
Er39     V16    9.737   1_545     S
Er39     V1    9.737   1_654     S
Er40     Er48    12.665   1_554     S
Er40     Er34    12.665   1_655     S
Er40     Er47    12.665   1_554     S
Er40     Er38    12.825   1_655     S
Er40     Er39    12.825   1_565     S
Er40     V22    9.755   1_655     S
Er40     V18    9.755   1_655     S
Er40     V4    9.737   1_554     S
Er40     V17    9.755   1_655     S
Er40     V21    9.755   1_655     S
Er40     V2    9.737   1_654     S
Er41     Er47    12.665   1_455     S
Er41     Er45    12.665   .     S
Er41     Er43    12.825   .     S
Er41     Er43    12.825   1_455     S
Er41     Er42    12.825   1_545     S
Er41     Er42    12.825   .     S
Er41     V32    9.755   1_455     S
Er41     V28    9.755   1_455     S
Er41     V27    9.755   1_455     S
Er41     V31    9.755   1_455     S
Er41     V11    9.737   1_455     S
Er42     Er48    12.665   1_455     S
Er42     Er46    12.665   .     S
Er42     Er33    12.665   1_565     S
Er42     Er44    12.825   .     S
Er42     Er44    12.825   1_455     S
Er42     Er41    12.825   1_565     S
Er42     V25    9.755   1_565     S
Er42     V29    9.755   1_565     S
Er42     V5    9.737   1_565     S
Er42     V31    9.755   1_465     S
Er42     V27    9.755   1_465     S
Er42     V28    9.755   1_455     S
Er42     V32    9.755   1_455     S
Er42     V12    9.737   1_455     S
Er43     Er45    12.665   .     S
Er43     Er47    12.665   .     S
Er43     Er41    12.825   1_655     S
Er43     Er44    12.825   1_545     S
Er43     Er44    12.825   .     S
Er44     Er46    12.665   .     S
Er44     Er48    12.665   .     S
Er44     Er35    12.665   1_565     S
Er44     Er42    12.825   1_655     S
Er44     Er43    12.825   1_565     S
Er44     V27    9.755   1_565     S
Er44     V31    9.755   1_565     S
Er44     V7    9.737   1_565     S
Er44     V29    9.755   1_565     S
Er44     V25    9.755   1_565     S
Er45     Er37    12.665   1_556     S
Er45     Er38    12.665   1_556     S
Er45     Er46    12.825   1_545     S
Er45     Er46    12.825   .     S
Er45     Er47    12.825   1_455     S
Er45     Er47    12.825   .     S
Er45     V23    9.737   1_556     S
Er45     V21    9.737   1_556     S
Er46     Er38    12.665   1_556     S
Er46     Er37    12.665   1_566     S
Er46     Er45    12.825   1_565     S
Er46     Er48    12.825   1_455     S
Er46     Er48    12.825   .     S
Er46     V24    9.737   1_556     S
Er46     V22    9.737   1_556     S
Er46     V5    9.755   1_565     S
Er46     V1    9.755   1_565     S
Er46     V3    9.755   1_565     S
Er46     V7    9.755   1_565     S
Er46     V29    9.737   1_565     S
Er47     Er39    12.665   1_556     S
Er47     Er40    12.665   1_556     S
Er47     Er41    12.665   1_655     S
Er47     Er48    12.825   1_545     S
Er47     Er48    12.825   .     S
Er47     Er45    12.825   1_655     S
Er47     V5    9.755   1_655     S
Er47     V1    9.755   1_655     S
Er47     V21    9.737   1_656     S
Er47     V23    9.737   1_556     S
Er47     V2    9.755   1_655     S
Er47     V6    9.755   1_655     S
Er48     Er40    12.665   1_556     S
Er48     Er39    12.665   1_566     S
Er48     Er42    12.665   1_655     S
Er48     Er47    12.825   1_565     S
Er48     Er46    12.825   1_655     S
Er48     V6    9.755   1_655     S
Er48     V2    9.755   1_655     S
Er48     V22    9.737   1_656     S
Er48     V24    9.737   1_556     S
Er48     V7    9.755   1_565     S
Er48     V3    9.755   1_565     S
Er48     V1    9.755   1_665     S
Er48     V5    9.755   1_665     S
Er48     V31    9.737   1_565     S
