data_tsq
_audit_creation_date              2020-02-02
_audit_creation_method            'Pymatgen'
_symmetry_space_group_name_H-M    'P1'
_symmetry_Int_Tables_number       1
loop_
_symmetry_equiv_pos_as_xyz
  x,y,z
_cell_length_a                    16.3299
_cell_length_b                    16.3299
_cell_length_c                    46.188
_cell_angle_alpha                 90.0
_cell_angle_beta                 90.0
_cell_angle_gamma                 90.0
loop_
_atom_site_label
_atom_site_type_symbol
_atom_site_fract_x
_atom_site_fract_y
_atom_site_fract_z
Ti1     Ti     0.5   0.0   0.25
Er2     Er     0.0   0.5   0.0
Ti3     Ti     0.5   0.0   0.75
Ti4     Ti     0.0   0.5   0.75
Er5     Er     0.5   0.0   0.0
V6     V     0.5   0.5   0.875
V7     V     0.5   0.5   0.125
V8     V     0.0   0.0   0.625
V9     V     0.0   0.0   0.375
Er10     Er     0.0   0.5   0.5
Er11     Er     0.5   0.0   0.5
Ti12     Ti     0.0   0.5   0.25
loop_
_geom_bond_atom_site_label_1
_geom_bond_atom_site_label_2
_geom_bond_distance
_geom_bond_site_symmetry_2
_ccdc_geom_bond_type
Ti1     V7    10.0   1_545     S
Ti1     V9    10.0   .     S
Ti1     V7    10.0   .     S
Ti1     V9    10.0   1_655     S
Er2     V6    10.0   1_454     S
Er2     V6    10.0   1_554     S
Er2     V7    10.0   1_455     S
Er2     V7    10.0   .     S
Ti3     V6    10.0   1_545     S
Ti3     V6    10.0   .     S
Ti3     V8    10.0   .     S
Ti3     V8    10.0   1_655     S
Ti4     V6    10.0   1_455     S
Ti4     V6    10.0   .     S
Ti4     V8    10.0   1_565     S
Ti4     V8    10.0   .     S
Er5     V6    10.0   1_544     S
Er5     V6    10.0   1_554     S
Er5     V7    10.0   1_545     S
Er5     V7    10.0   .     S
V6     Er2    10.0   1_656     S
V6     Ti3    10.0   1_565     S
V6     Ti4    10.0   1_655     S
V6     Er5    10.0   1_566     S
V6     Er5    10.0   1_556     S
V6     Er2    10.0   1_556     S
V7     Ti1    10.0   1_565     S
V7     Er2    10.0   1_655     S
V7     Er5    10.0   1_565     S
V7     Ti12    10.0   1_655     S
V7     Ti12    10.0   .     S
V8     Er10    10.0   1_545     S
V8     Er11    10.0   1_455     S
V8     Er11    10.0   .     S
V8     Er10    10.0   .     S
V8     Ti4    10.0   1_545     S
V8     Ti3    10.0   1_455     S
V9     Ti1    10.0   1_455     S
V9     Er11    10.0   1_455     S
V9     Er10    10.0   1_545     S
V9     Er10    10.0   .     S
V9     Er11    10.0   .     S
V9     Ti12    10.0   .     S
V9     Ti12    10.0   1_545     S
Er10     V8    10.0   1_565     S
Er10     V9    10.0   1_565     S
Er11     V8    10.0   1_655     S
Er11     V9    10.0   1_655     S
Ti12     V7    10.0   1_455     S
Ti12     V9    10.0   1_565     S
