data_tsy
_audit_creation_date              2020-02-02
_audit_creation_method            'Pymatgen'
_symmetry_space_group_name_H-M    'P1'
_symmetry_Int_Tables_number       1
loop_
_symmetry_equiv_pos_as_xyz
  x,y,z
_cell_length_a                    27.0557
_cell_length_b                    49.4614
_cell_length_c                    24.7307
_cell_angle_alpha                 90.0
_cell_angle_beta                 90.0
_cell_angle_gamma                 90.0
loop_
_atom_site_label
_atom_site_type_symbol
_atom_site_fract_x
_atom_site_fract_y
_atom_site_fract_z
Er1     Er     0.0   0.6011   0.0
Er2     Er     0.0   0.3989   0.0
V3     V     0.75   0.75   0.0
Ti4     Ti     0.5   0.7508   0.7022
V5     V     0.25   0.75   0.0
Ti6     Ti     0.0   0.7492   0.7022
Ti7     Ti     0.5   0.7508   0.2978
Ti8     Ti     0.0   0.7492   0.2978
V9     V     0.75   0.25   0.0
Ti10     Ti     0.5   0.2492   0.7022
V11     V     0.25   0.25   0.0
Ti12     Ti     0.0   0.2507   0.7022
Ti13     Ti     0.5   0.2492   0.2978
Ti14     Ti     0.0   0.2507   0.2978
Er15     Er     0.5   0.8989   0.0
Er16     Er     0.5   0.1011   0.0
loop_
_geom_bond_atom_site_label_1
_geom_bond_atom_site_label_2
_geom_bond_distance
_geom_bond_site_symmetry_2
_ccdc_geom_bond_type
Er1     V3    10.0   1_455     S
Er1     V5    10.0   .     S
Er1     Er2    10.0   .     S
Er2     V11    10.0   .     S
Er2     V9    10.0   1_455     S
V3     Er1    10.0   1_655     S
V3     Ti4    10.0   1_554     S
V3     Ti6    10.0   1_654     S
V3     Ti8    10.0   1_655     S
V3     Ti7    10.0   .     S
V3     Er15    10.0   .     S
Ti4     V3    10.0   1_556     S
Ti4     V5    10.0   1_556     S
Ti4     Ti7    10.0   .     S
V5     Ti4    10.0   1_554     S
V5     Ti6    10.0   1_554     S
V5     Ti8    10.0   .     S
V5     Ti7    10.0   .     S
V5     Er15    10.0   .     S
Ti6     V3    10.0   1_456     S
Ti6     V5    10.0   1_556     S
Ti6     Ti8    10.0   .     S
Ti8     V3    10.0   1_455     S
V9     Er2    10.0   1_655     S
V9     Ti10    10.0   1_554     S
V9     Ti12    10.0   1_654     S
V9     Ti14    10.0   1_655     S
V9     Ti13    10.0   .     S
V9     Er16    10.0   .     S
Ti10     V9    10.0   1_556     S
Ti10     V11    10.0   1_556     S
Ti10     Ti13    10.0   .     S
V11     Ti10    10.0   1_554     S
V11     Ti14    10.0   .     S
V11     Ti12    10.0   1_554     S
V11     Ti13    10.0   .     S
V11     Er16    10.0   .     S
Ti12     V9    10.0   1_456     S
Ti12     V11    10.0   1_556     S
Ti12     Ti14    10.0   .     S
Ti14     V9    10.0   1_455     S
Er15     Er16    10.0   1_565     S
Er16     Er15    10.0   1_545     S
