data_ttc
_audit_creation_date              2020-02-02
_audit_creation_method            'Pymatgen'
_symmetry_space_group_name_H-M    'P1'
_symmetry_Int_Tables_number       1
loop_
_symmetry_equiv_pos_as_xyz
  x,y,z
_cell_length_a                    47.6107
_cell_length_b                    47.6107
_cell_length_c                    48.8546
_cell_angle_alpha                 90.0
_cell_angle_beta                 90.0
_cell_angle_gamma                 90.0
loop_
_atom_site_label
_atom_site_type_symbol
_atom_site_fract_x
_atom_site_fract_y
_atom_site_fract_z
Er1     Er     0.6889   0.3111   0.8081
Er2     Er     0.3111   0.3111   0.8081
Er3     Er     0.3111   0.6889   0.8081
Er4     Er     0.6889   0.6889   0.8081
V5     V     0.5   0.6889   0.8976
V6     V     0.3111   0.5   0.8976
V7     V     0.5   0.3111   0.8976
V8     V     0.6889   0.5   0.8976
V9     V     0.8111   0.0   0.6023
Er10     Er     0.8111   0.1889   0.6919
V11     V     0.1889   0.0   0.6023
V12     V     0.0   0.1889   0.6023
Er13     Er     0.1889   0.1889   0.6919
V14     V     0.0   0.8111   0.6023
Er15     Er     0.1889   0.8111   0.6919
Er16     Er     0.8111   0.8111   0.6919
Er17     Er     0.6889   0.3111   0.1919
Er18     Er     0.3111   0.3111   0.1919
Er19     Er     0.3111   0.6889   0.1919
Er20     Er     0.6889   0.6889   0.1919
V21     V     0.6889   0.5   0.1024
V22     V     0.5   0.6889   0.1024
V23     V     0.3111   0.5   0.1024
V24     V     0.5   0.3111   0.1024
V25     V     0.0   0.8111   0.3976
Er26     Er     0.1889   0.8111   0.3081
V27     V     0.1889   0.0   0.3976
V28     V     0.0   0.1889   0.3976
Er29     Er     0.1889   0.1889   0.3081
V30     V     0.8111   0.0   0.3976
Er31     Er     0.8111   0.1889   0.3081
Er32     Er     0.8111   0.8111   0.3081
loop_
_geom_bond_atom_site_label_1
_geom_bond_atom_site_label_2
_geom_bond_distance
_geom_bond_site_symmetry_2
_ccdc_geom_bond_type
Er1     V8    10.0   .     S
Er1     V7    10.0   .     S
Er1     Er10    10.0   .     S
Er2     V6    10.0   .     S
Er2     V7    10.0   .     S
Er2     Er13    10.0   .     S
Er3     V5    10.0   .     S
Er3     V6    10.0   .     S
Er3     Er15    10.0   .     S
Er4     V5    10.0   .     S
Er4     V8    10.0   .     S
Er4     Er16    10.0   .     S
V5     V22    10.001   1_556     S
V6     V23    10.001   1_556     S
V7     V24    10.001   1_556     S
V8     V21    10.001   1_556     S
V9     Er16    10.0   1_545     S
V9     Er10    10.0   .     S
V9     V30    10.001   .     S
Er10     V12    10.0   1_655     S
V11     Er15    10.0   1_545     S
V11     Er13    10.0   .     S
V11     V27    10.001   .     S
V12     Er10    10.0   1_455     S
V12     Er13    10.0   .     S
V12     V28    10.001   .     S
V14     Er16    10.0   1_455     S
V14     Er15    10.0   .     S
V14     V25    10.001   .     S
Er15     V11    10.0   1_565     S
Er16     V9    10.0   1_565     S
Er16     V14    10.0   1_655     S
Er17     V21    10.0   .     S
Er17     V24    10.0   .     S
Er17     Er31    10.0   .     S
Er18     V23    10.0   .     S
Er18     V24    10.0   .     S
Er18     Er29    10.0   .     S
Er19     V22    10.0   .     S
Er19     V23    10.0   .     S
Er19     Er26    10.0   .     S
Er20     V21    10.0   .     S
Er20     V22    10.0   .     S
Er20     Er32    10.0   .     S
V21     V8    10.001   1_554     S
V22     V5    10.001   1_554     S
V23     V6    10.001   1_554     S
V24     V7    10.001   1_554     S
V25     Er32    10.0   1_455     S
V25     Er26    10.0   .     S
Er26     V27    10.0   1_565     S
V27     Er26    10.0   1_545     S
V27     Er29    10.0   .     S
V28     Er31    10.0   1_455     S
V28     Er29    10.0   .     S
V30     Er32    10.0   1_545     S
V30     Er31    10.0   .     S
Er31     V28    10.0   1_655     S
Er32     V25    10.0   1_655     S
Er32     V30    10.0   1_565     S
