data_ttra
_audit_creation_date              2020-02-02
_audit_creation_method            'Pymatgen'
_symmetry_space_group_name_H-M    'P1'
_symmetry_Int_Tables_number       1
loop_
_symmetry_equiv_pos_as_xyz
  x,y,z
_cell_length_a                    77.9152
_cell_length_b                    77.9152
_cell_length_c                    77.9152
_cell_angle_alpha                 90.0
_cell_angle_beta                 90.0
_cell_angle_gamma                 90.0
loop_
_atom_site_label
_atom_site_type_symbol
_atom_site_fract_x
_atom_site_fract_y
_atom_site_fract_z
V1     V     0.5455   0.0455   0.6362
V2     V     0.6362   0.0455   0.5455
V3     V     0.5455   0.1362   0.5455
V4     V     0.0455   0.5455   0.6362
V5     V     0.0455   0.6362   0.5455
V6     V     0.1362   0.5455   0.5455
V7     V     0.0455   0.0455   0.1362
V8     V     0.0455   0.1362   0.0455
V9     V     0.1362   0.0455   0.0455
V10     V     0.6362   0.5455   0.0455
V11     V     0.5455   0.6362   0.0455
V12     V     0.5455   0.5455   0.1362
V13     V     0.4545   0.4545   0.1362
V14     V     0.3638   0.4545   0.0455
V15     V     0.4545   0.3638   0.0455
V16     V     0.4545   0.1362   0.4545
V17     V     0.4545   0.0455   0.3638
V18     V     0.3638   0.0455   0.4545
V19     V     0.1362   0.4545   0.4545
V20     V     0.0455   0.4545   0.3638
V21     V     0.0455   0.3638   0.4545
V22     V     0.0455   0.9545   0.8638
V23     V     0.0455   0.8638   0.9545
V24     V     0.1362   0.9545   0.9545
V25     V     0.9545   0.0455   0.8638
V26     V     0.8638   0.0455   0.9545
V27     V     0.9545   0.1362   0.9545
V28     V     0.8638   0.9545   0.0455
V29     V     0.9545   0.8638   0.0455
V30     V     0.9545   0.9545   0.1362
V31     V     0.4545   0.5455   0.8638
V32     V     0.4545   0.6362   0.9545
V33     V     0.3638   0.5455   0.9545
V34     V     0.5455   0.4545   0.8638
V35     V     0.6362   0.4545   0.9545
V36     V     0.5455   0.3638   0.9545
V37     V     0.4545   0.9545   0.6362
V38     V     0.4545   0.8638   0.5455
V39     V     0.3638   0.9545   0.5455
V40     V     0.6362   0.9545   0.4545
V41     V     0.5455   0.8638   0.4545
V42     V     0.5455   0.9545   0.3638
V43     V     0.9545   0.4545   0.6362
V44     V     0.8638   0.4545   0.5455
V45     V     0.9545   0.3638   0.5455
V46     V     0.8638   0.5455   0.4545
V47     V     0.9545   0.6362   0.4545
V48     V     0.9545   0.5455   0.3638
Ce49     Ce     0.0454   0.4546   0.1361
Ce50     Ce     0.1361   0.4546   0.0454
Ce51     Ce     0.0454   0.3639   0.0454
Ce52     Ce     0.4546   0.0454   0.1361
Ce53     Ce     0.4546   0.1361   0.0454
Ce54     Ce     0.3639   0.0454   0.0454
Ce55     Ce     0.0454   0.1361   0.4546
Ce56     Ce     0.1361   0.0454   0.4546
Ce57     Ce     0.0454   0.0454   0.3639
Ce58     Ce     0.3639   0.4546   0.4546
Ce59     Ce     0.4546   0.3639   0.4546
Ce60     Ce     0.4546   0.4546   0.3639
Ti61     Ti     0.2954   0.386   0.2954
Ti62     Ti     0.2954   0.2954   0.386
Ti63     Ti     0.386   0.2954   0.2954
Ti64     Ti     0.2046   0.386   0.2046
Ti65     Ti     0.114   0.2954   0.2046
Ti66     Ti     0.2046   0.2954   0.114
Ti67     Ti     0.2046   0.2046   0.386
Ti68     Ti     0.2046   0.114   0.2954
Ti69     Ti     0.114   0.2046   0.2954
Ti70     Ti     0.386   0.2046   0.2046
Ti71     Ti     0.2954   0.114   0.2046
Ti72     Ti     0.2954   0.2046   0.114
Er73     Er     0.2502   0.0875   0.0875
Er74     Er     0.0875   0.0875   0.2502
Er75     Er     0.0875   0.2502   0.0875
Er76     Er     0.0875   0.4125   0.2498
Er77     Er     0.0875   0.2498   0.4125
Er78     Er     0.4125   0.0875   0.2498
Er79     Er     0.2498   0.0875   0.4125
Er80     Er     0.2498   0.4125   0.0875
Er81     Er     0.4125   0.2498   0.0875
Er82     Er     0.2502   0.4125   0.4125
Er83     Er     0.4125   0.2502   0.4125
Er84     Er     0.4125   0.4125   0.2502
Ce85     Ce     0.3639   0.5454   0.5454
Ce86     Ce     0.4546   0.6361   0.5454
Ce87     Ce     0.4546   0.5454   0.6361
Ce88     Ce     0.1361   0.9546   0.5454
Ce89     Ce     0.0454   0.9546   0.6361
Ce90     Ce     0.0454   0.8639   0.5454
Ce91     Ce     0.1361   0.5454   0.9546
Ce92     Ce     0.0454   0.6361   0.9546
Ce93     Ce     0.0454   0.5454   0.8639
Ce94     Ce     0.3639   0.9546   0.9546
Ce95     Ce     0.4546   0.9546   0.8639
Ce96     Ce     0.4546   0.8639   0.9546
Ti97     Ti     0.386   0.7954   0.7954
Ti98     Ti     0.2954   0.886   0.7954
Ti99     Ti     0.2954   0.7954   0.886
Ti100     Ti     0.114   0.7954   0.7046
Ti101     Ti     0.2046   0.886   0.7046
Ti102     Ti     0.2046   0.7954   0.614
Ti103     Ti     0.114   0.7046   0.7954
Ti104     Ti     0.2046   0.7046   0.886
Ti105     Ti     0.2046   0.614   0.7954
Ti106     Ti     0.386   0.7046   0.7046
Ti107     Ti     0.2954   0.614   0.7046
Ti108     Ti     0.2954   0.7046   0.614
Er109     Er     0.0875   0.5875   0.7502
Er110     Er     0.0875   0.7502   0.5875
Er111     Er     0.0875   0.9125   0.7498
Er112     Er     0.0875   0.7498   0.9125
Er113     Er     0.4125   0.9125   0.7502
Er114     Er     0.4125   0.7502   0.9125
Er115     Er     0.2502   0.5875   0.5875
Er116     Er     0.4125   0.7498   0.5875
Er117     Er     0.4125   0.5875   0.7498
Er118     Er     0.2498   0.9125   0.5875
Er119     Er     0.2498   0.5875   0.9125
Er120     Er     0.2502   0.9125   0.9125
Ce121     Ce     0.5454   0.3639   0.5454
Ce122     Ce     0.6361   0.4546   0.5454
Ce123     Ce     0.5454   0.4546   0.6361
Ce124     Ce     0.9546   0.1361   0.5454
Ce125     Ce     0.9546   0.0454   0.6361
Ce126     Ce     0.8639   0.0454   0.5454
Ce127     Ce     0.5454   0.1361   0.9546
Ce128     Ce     0.6361   0.0454   0.9546
Ce129     Ce     0.5454   0.0454   0.8639
Ce130     Ce     0.9546   0.3639   0.9546
Ce131     Ce     0.9546   0.4546   0.8639
Ce132     Ce     0.8639   0.4546   0.9546
Ti133     Ti     0.7954   0.114   0.7046
Ti134     Ti     0.886   0.2046   0.7046
Ti135     Ti     0.7954   0.2046   0.614
Ti136     Ti     0.7954   0.386   0.7954
Ti137     Ti     0.886   0.2954   0.7954
Ti138     Ti     0.7954   0.2954   0.886
Ti139     Ti     0.7046   0.114   0.7954
Ti140     Ti     0.7046   0.2046   0.886
Ti141     Ti     0.614   0.2046   0.7954
Ti142     Ti     0.7046   0.386   0.7046
Ti143     Ti     0.7046   0.2954   0.614
Ti144     Ti     0.614   0.2954   0.7046
Er145     Er     0.5875   0.0875   0.7502
Er146     Er     0.7502   0.0875   0.5875
Er147     Er     0.9125   0.0875   0.7498
Er148     Er     0.7498   0.0875   0.9125
Er149     Er     0.9125   0.4125   0.7502
Er150     Er     0.7502   0.4125   0.9125
Er151     Er     0.5875   0.2502   0.5875
Er152     Er     0.7498   0.4125   0.5875
Er153     Er     0.5875   0.4125   0.7498
Er154     Er     0.9125   0.2498   0.5875
Er155     Er     0.5875   0.2498   0.9125
Er156     Er     0.9125   0.2502   0.9125
Ce157     Ce     0.5454   0.5454   0.3639
Ce158     Ce     0.6361   0.5454   0.4546
Ce159     Ce     0.5454   0.6361   0.4546
Ce160     Ce     0.5454   0.9546   0.1361
Ce161     Ce     0.6361   0.9546   0.0454
Ce162     Ce     0.5454   0.8639   0.0454
Ce163     Ce     0.9546   0.5454   0.1361
Ce164     Ce     0.9546   0.6361   0.0454
Ce165     Ce     0.8639   0.5454   0.0454
Ce166     Ce     0.9546   0.9546   0.3639
Ce167     Ce     0.9546   0.8639   0.4546
Ce168     Ce     0.8639   0.9546   0.4546
Ti169     Ti     0.7046   0.7954   0.114
Ti170     Ti     0.7046   0.886   0.2046
Ti171     Ti     0.614   0.7954   0.2046
Ti172     Ti     0.7046   0.7046   0.386
Ti173     Ti     0.7046   0.614   0.2954
Ti174     Ti     0.614   0.7046   0.2954
Ti175     Ti     0.7954   0.7954   0.386
Ti176     Ti     0.886   0.7954   0.2954
Ti177     Ti     0.7954   0.886   0.2954
Ti178     Ti     0.7954   0.7046   0.114
Ti179     Ti     0.886   0.7046   0.2046
Ti180     Ti     0.7954   0.614   0.2046
Er181     Er     0.7502   0.5875   0.0875
Er182     Er     0.5875   0.7502   0.0875
Er183     Er     0.7498   0.9125   0.0875
Er184     Er     0.9125   0.7498   0.0875
Er185     Er     0.9125   0.7502   0.4125
Er186     Er     0.7502   0.9125   0.4125
Er187     Er     0.7498   0.5875   0.4125
Er188     Er     0.5875   0.7498   0.4125
Er189     Er     0.5875   0.5875   0.2502
Er190     Er     0.9125   0.5875   0.2498
Er191     Er     0.5875   0.9125   0.2498
Er192     Er     0.9125   0.9125   0.2502
loop_
_geom_bond_atom_site_label_1
_geom_bond_atom_site_label_2
_geom_bond_distance
_geom_bond_site_symmetry_2
_ccdc_geom_bond_type
V1     V2    10.001   .     S
V1     V3    10.001   .     S
V1     Er145    10.014   .     S
V1     V37    10.021   1_545     S
V2     V3    10.001   .     S
V2     Er146    10.014   .     S
V2     V40    10.021   1_545     S
V3     Er151    10.014   .     S
V3     V16    10.021   .     S
V4     V5    10.001   .     S
V4     V6    10.001   .     S
V4     Er109    10.014   .     S
V4     V43    10.021   1_455     S
V5     V6    10.001   .     S
V5     Er110    10.014   .     S
V5     V47    10.021   1_455     S
V6     Er115    10.014   .     S
V6     V19    10.021   .     S
V7     V8    10.001   .     S
V7     V9    10.001   .     S
V7     Er74    10.014   .     S
V7     V30    10.021   1_445     S
V8     V9    10.001   .     S
V8     Er75    10.014   .     S
V8     V27    10.021   1_454     S
V9     Er73    10.014   .     S
V9     V24    10.021   1_544     S
V10     V11    10.001   .     S
V10     V12    10.001   .     S
V10     Er181    10.014   .     S
V10     V35    10.021   1_554     S
V11     V12    10.001   .     S
V11     Er182    10.014   .     S
V11     V32    10.021   1_554     S
V12     Er189    10.014   .     S
V12     V13    10.021   .     S
V13     V15    10.001   .     S
V13     V14    10.001   .     S
V13     Er84    10.014   .     S
V14     V15    10.001   .     S
V14     Er80    10.014   .     S
V14     V33    10.021   1_554     S
V15     Er81    10.014   .     S
V15     V36    10.021   1_554     S
V16     V17    10.001   .     S
V16     V18    10.001   .     S
V16     Er83    10.014   .     S
V17     V18    10.001   .     S
V17     Er78    10.014   .     S
V17     V42    10.021   1_545     S
V18     Er79    10.014   .     S
V18     V39    10.021   1_545     S
V19     V20    10.001   .     S
V19     V21    10.001   .     S
V19     Er82    10.014   .     S
V20     V21    10.001   .     S
V20     Er76    10.014   .     S
V20     V48    10.021   1_455     S
V21     Er77    10.014   .     S
V21     V45    10.021   1_455     S
V22     V23    10.001   .     S
V22     V24    10.001   .     S
V22     Er111    10.014   .     S
V22     V25    10.021   1_465     S
V23     V24    10.001   .     S
V23     Er112    10.014   .     S
V23     V29    10.021   1_456     S
V24     Er120    10.014   .     S
V24     V9    10.021   1_566     S
V25     V26    10.001   .     S
V25     V27    10.001   .     S
V25     Er147    10.014   .     S
V25     V22    10.021   1_645     S
V26     V27    10.001   .     S
V26     Er148    10.014   .     S
V26     V28    10.021   1_546     S
V27     Er156    10.014   .     S
V27     V8    10.021   1_656     S
V28     V29    10.001   .     S
V28     V30    10.001   .     S
V28     Er183    10.014   .     S
V28     V26    10.021   1_564     S
V29     V30    10.001   .     S
V29     Er184    10.014   .     S
V29     V23    10.021   1_654     S
V30     Er192    10.014   .     S
V30     V7    10.021   1_665     S
V31     V33    10.001   .     S
V31     V32    10.001   .     S
V31     Er117    10.014   .     S
V31     V34    10.021   .     S
V32     V33    10.001   .     S
V32     Er114    10.014   .     S
V32     V11    10.021   1_556     S
V33     Er119    10.014   .     S
V33     V14    10.021   1_556     S
V34     V36    10.001   .     S
V34     V35    10.001   .     S
V34     Er153    10.014   .     S
V35     V36    10.001   .     S
V35     Er150    10.014   .     S
V35     V10    10.021   1_556     S
V36     Er155    10.014   .     S
V36     V15    10.021   1_556     S
V37     V39    10.001   .     S
V37     V38    10.001   .     S
V37     Er113    10.014   .     S
V37     V1    10.021   1_565     S
V38     V39    10.001   .     S
V38     Er116    10.014   .     S
V38     V41    10.021   .     S
V39     Er118    10.014   .     S
V39     V18    10.021   1_565     S
V40     V42    10.001   .     S
V40     V41    10.001   .     S
V40     Er186    10.014   .     S
V40     V2    10.021   1_565     S
V41     V42    10.001   .     S
V41     Er188    10.014   .     S
V42     Er191    10.014   .     S
V42     V17    10.021   1_565     S
V43     V45    10.001   .     S
V43     V44    10.001   .     S
V43     Er149    10.014   .     S
V43     V4    10.021   1_655     S
V44     V45    10.001   .     S
V44     Er152    10.014   .     S
V44     V46    10.021   .     S
V45     Er154    10.014   .     S
V45     V21    10.021   1_655     S
V46     V48    10.001   .     S
V46     V47    10.001   .     S
V46     Er187    10.014   .     S
V47     V48    10.001   .     S
V47     Er185    10.014   .     S
V47     V5    10.021   1_655     S
V48     Er190    10.014   .     S
V48     V20    10.021   1_655     S
Ce49     Er76    10.002   .     S
Ce49     Ce163    10.007   1_455     S
Ce49     Ce51    9.995   .     S
Ce49     Ce50    9.995   .     S
Ce50     Er80    10.002   .     S
Ce50     Ce91    10.007   1_554     S
Ce50     Ce51    9.995   .     S
Ce51     Er75    10.002   .     S
Ce51     Ce130    10.007   1_454     S
Ce52     Er78    10.002   .     S
Ce52     Ce160    10.007   1_545     S
Ce52     Ce54    9.995   .     S
Ce52     Ce53    9.995   .     S
Ce53     Er81    10.002   .     S
Ce53     Ce127    10.007   1_554     S
Ce53     Ce54    9.995   .     S
Ce54     Er73    10.002   .     S
Ce54     Ce94    10.007   1_544     S
Ce55     Er77    10.002   .     S
Ce55     Ce124    10.007   1_455     S
Ce55     Ce57    9.995   .     S
Ce55     Ce56    9.995   .     S
Ce56     Er79    10.002   .     S
Ce56     Ce88    10.007   1_545     S
Ce56     Ce57    9.995   .     S
Ce57     Er74    10.002   .     S
Ce57     Ce166    10.007   1_445     S
Ce58     Er82    10.002   .     S
Ce58     Ce85    10.007   .     S
Ce58     Ce60    9.995   .     S
Ce58     Ce59    9.995   .     S
Ce59     Er83    10.002   .     S
Ce59     Ce121    10.007   .     S
Ce59     Ce60    9.995   .     S
Ce60     Er84    10.002   .     S
Ce60     Ce157    10.007   .     S
Ti61     Er84    9.996   .     S
Ti61     Er82    9.996   .     S
Ti61     Ti64    9.996   .     S
Ti61     Ti62    9.984   .     S
Ti61     Ti63    9.984   .     S
Ti62     Er83    9.996   .     S
Ti62     Er82    9.996   .     S
Ti62     Ti67    9.996   .     S
Ti62     Ti63    9.984   .     S
Ti63     Er84    9.996   .     S
Ti63     Er83    9.996   .     S
Ti63     Ti70    9.996   .     S
Ti64     Er80    9.996   .     S
Ti64     Er76    9.996   .     S
Ti64     Ti65    9.984   .     S
Ti64     Ti66    9.984   .     S
Ti65     Er75    9.996   .     S
Ti65     Er76    9.996   .     S
Ti65     Ti69    9.996   .     S
Ti65     Ti66    9.984   .     S
Ti66     Er75    9.996   .     S
Ti66     Er80    9.996   .     S
Ti66     Ti72    9.996   .     S
Ti67     Er79    9.996   .     S
Ti67     Er77    9.996   .     S
Ti67     Ti69    9.984   .     S
Ti67     Ti68    9.984   .     S
Ti68     Er74    9.996   .     S
Ti68     Er79    9.996   .     S
Ti68     Ti71    9.996   .     S
Ti68     Ti69    9.984   .     S
Ti69     Er74    9.996   .     S
Ti69     Er77    9.996   .     S
Ti70     Er81    9.996   .     S
Ti70     Er78    9.996   .     S
Ti70     Ti71    9.984   .     S
Ti70     Ti72    9.984   .     S
Ti71     Er73    9.996   .     S
Ti71     Er78    9.996   .     S
Ti71     Ti72    9.984   .     S
Ti72     Er73    9.996   .     S
Ti72     Er81    9.996   .     S
Ce85     Er115    10.002   .     S
Ce85     Ce87    9.995   .     S
Ce85     Ce86    9.995   .     S
Ce86     Er116    10.002   .     S
Ce86     Ce159    10.007   .     S
Ce86     Ce87    9.995   .     S
Ce87     Er117    10.002   .     S
Ce87     Ce123    10.007   .     S
Ce88     Er118    10.002   .     S
Ce88     Ce56    10.007   1_565     S
Ce88     Ce89    9.995   .     S
Ce88     Ce90    9.995   .     S
Ce89     Er111    10.002   .     S
Ce89     Ce125    10.007   1_465     S
Ce89     Ce90    9.995   .     S
Ce90     Er110    10.002   .     S
Ce90     Ce167    10.007   1_455     S
Ce91     Er119    10.002   .     S
Ce91     Ce50    10.007   1_556     S
Ce91     Ce92    9.995   .     S
Ce91     Ce93    9.995   .     S
Ce92     Er112    10.002   .     S
Ce92     Ce164    10.007   1_456     S
Ce92     Ce93    9.995   .     S
Ce93     Er109    10.002   .     S
Ce93     Ce131    10.007   1_455     S
Ce94     Ce54    10.007   1_566     S
Ce94     Er120    10.002   .     S
Ce94     Ce95    9.995   .     S
Ce94     Ce96    9.995   .     S
Ce95     Er113    10.002   .     S
Ce95     Ce129    10.007   1_565     S
Ce95     Ce96    9.995   .     S
Ce96     Er114    10.002   .     S
Ce96     Ce162    10.007   1_556     S
Ti97     Er114    9.996   .     S
Ti97     Er113    9.996   .     S
Ti97     Ti106    9.996   .     S
Ti97     Ti98    9.984   .     S
Ti97     Ti99    9.984   .     S
Ti98     Er113    9.996   .     S
Ti98     Er120    9.996   .     S
Ti98     Ti101    9.996   .     S
Ti98     Ti99    9.984   .     S
Ti99     Er114    9.996   .     S
Ti99     Er120    9.996   .     S
Ti99     Ti104    9.996   .     S
Ti100     Er110    9.996   .     S
Ti100     Er111    9.996   .     S
Ti100     Ti103    9.996   .     S
Ti100     Ti101    9.984   .     S
Ti100     Ti102    9.984   .     S
Ti101     Er118    9.996   .     S
Ti101     Er111    9.996   .     S
Ti101     Ti102    9.984   .     S
Ti102     Er110    9.996   .     S
Ti102     Er118    9.996   .     S
Ti102     Ti108    9.996   .     S
Ti103     Er109    9.996   .     S
Ti103     Er112    9.996   .     S
Ti103     Ti104    9.984   .     S
Ti103     Ti105    9.984   .     S
Ti104     Er119    9.996   .     S
Ti104     Er112    9.996   .     S
Ti104     Ti105    9.984   .     S
Ti105     Er109    9.996   .     S
Ti105     Er119    9.996   .     S
Ti105     Ti107    9.996   .     S
Ti106     Er116    9.996   .     S
Ti106     Er117    9.996   .     S
Ti106     Ti108    9.984   .     S
Ti106     Ti107    9.984   .     S
Ti107     Er115    9.996   .     S
Ti107     Er117    9.996   .     S
Ti107     Ti108    9.984   .     S
Ti108     Er115    9.996   .     S
Ti108     Er116    9.996   .     S
Ce121     Er151    10.002   .     S
Ce121     Ce122    9.995   .     S
Ce121     Ce123    9.995   .     S
Ce122     Er152    10.002   .     S
Ce122     Ce158    10.007   .     S
Ce122     Ce123    9.995   .     S
Ce123     Er153    10.002   .     S
Ce124     Er154    10.002   .     S
Ce124     Ce55    10.007   1_655     S
Ce124     Ce125    9.995   .     S
Ce124     Ce126    9.995   .     S
Ce125     Er147    10.002   .     S
Ce125     Ce89    10.007   1_645     S
Ce125     Ce126    9.995   .     S
Ce126     Er146    10.002   .     S
Ce126     Ce168    10.007   1_545     S
Ce127     Er155    10.002   .     S
Ce127     Ce53    10.007   1_556     S
Ce127     Ce128    9.995   .     S
Ce127     Ce129    9.995   .     S
Ce128     Er148    10.002   .     S
Ce128     Ce161    10.007   1_546     S
Ce128     Ce129    9.995   .     S
Ce129     Er145    10.002   .     S
Ce129     Ce95    10.007   1_545     S
Ce130     Ce51    10.007   1_656     S
Ce130     Er156    10.002   .     S
Ce130     Ce131    9.995   .     S
Ce130     Ce132    9.995   .     S
Ce131     Ce93    10.007   1_655     S
Ce131     Er149    10.002   .     S
Ce131     Ce132    9.995   .     S
Ce132     Er150    10.002   .     S
Ce132     Ce165    10.007   1_556     S
Ti133     Er146    9.996   .     S
Ti133     Er147    9.996   .     S
Ti133     Ti139    9.996   .     S
Ti133     Ti134    9.984   .     S
Ti133     Ti135    9.984   .     S
Ti134     Er147    9.996   .     S
Ti134     Er154    9.996   .     S
Ti134     Ti137    9.996   .     S
Ti134     Ti135    9.984   .     S
Ti135     Er146    9.996   .     S
Ti135     Er154    9.996   .     S
Ti135     Ti143    9.996   .     S
Ti136     Er150    9.996   .     S
Ti136     Er149    9.996   .     S
Ti136     Ti142    9.996   .     S
Ti136     Ti137    9.984   .     S
Ti136     Ti138    9.984   .     S
Ti137     Er149    9.996   .     S
Ti137     Er156    9.996   .     S
Ti137     Ti138    9.984   .     S
Ti138     Er150    9.996   .     S
Ti138     Er156    9.996   .     S
Ti138     Ti140    9.996   .     S
Ti139     Er145    9.996   .     S
Ti139     Er148    9.996   .     S
Ti139     Ti140    9.984   .     S
Ti139     Ti141    9.984   .     S
Ti140     Er155    9.996   .     S
Ti140     Er148    9.996   .     S
Ti140     Ti141    9.984   .     S
Ti141     Er145    9.996   .     S
Ti141     Er155    9.996   .     S
Ti141     Ti144    9.996   .     S
Ti142     Er152    9.996   .     S
Ti142     Er153    9.996   .     S
Ti142     Ti143    9.984   .     S
Ti142     Ti144    9.984   .     S
Ti143     Er152    9.996   .     S
Ti143     Er151    9.996   .     S
Ti143     Ti144    9.984   .     S
Ti144     Er151    9.996   .     S
Ti144     Er153    9.996   .     S
Ce157     Er189    10.002   .     S
Ce157     Ce158    9.995   .     S
Ce157     Ce159    9.995   .     S
Ce158     Er187    10.002   .     S
Ce158     Ce159    9.995   .     S
Ce159     Er188    10.002   .     S
Ce160     Er191    10.002   .     S
Ce160     Ce52    10.007   1_565     S
Ce160     Ce161    9.995   .     S
Ce160     Ce162    9.995   .     S
Ce161     Er183    10.002   .     S
Ce161     Ce128    10.007   1_564     S
Ce161     Ce162    9.995   .     S
Ce162     Er182    10.002   .     S
Ce162     Ce96    10.007   1_554     S
Ce163     Er190    10.002   .     S
Ce163     Ce49    10.007   1_655     S
Ce163     Ce164    9.995   .     S
Ce163     Ce165    9.995   .     S
Ce164     Er184    10.002   .     S
Ce164     Ce92    10.007   1_654     S
Ce164     Ce165    9.995   .     S
Ce165     Er181    10.002   .     S
Ce165     Ce132    10.007   1_554     S
Ce166     Ce57    10.007   1_665     S
Ce166     Er192    10.002   .     S
Ce166     Ce167    9.995   .     S
Ce166     Ce168    9.995   .     S
Ce167     Ce90    10.007   1_655     S
Ce167     Er185    10.002   .     S
Ce167     Ce168    9.995   .     S
Ce168     Ce126    10.007   1_565     S
Ce168     Er186    10.002   .     S
Ti169     Er182    9.996   .     S
Ti169     Er183    9.996   .     S
Ti169     Ti178    9.996   .     S
Ti169     Ti170    9.984   .     S
Ti169     Ti171    9.984   .     S
Ti170     Er183    9.996   .     S
Ti170     Er191    9.996   .     S
Ti170     Ti177    9.996   .     S
Ti170     Ti171    9.984   .     S
Ti171     Er182    9.996   .     S
Ti171     Er191    9.996   .     S
Ti171     Ti174    9.996   .     S
Ti172     Er187    9.996   .     S
Ti172     Er188    9.996   .     S
Ti172     Ti175    9.996   .     S
Ti172     Ti173    9.984   .     S
Ti172     Ti174    9.984   .     S
Ti173     Er187    9.996   .     S
Ti173     Er189    9.996   .     S
Ti173     Ti180    9.996   .     S
Ti173     Ti174    9.984   .     S
Ti174     Er189    9.996   .     S
Ti174     Er188    9.996   .     S
Ti175     Er186    9.996   .     S
Ti175     Er185    9.996   .     S
Ti175     Ti176    9.984   .     S
Ti175     Ti177    9.984   .     S
Ti176     Er185    9.996   .     S
Ti176     Er192    9.996   .     S
Ti176     Ti179    9.996   .     S
Ti176     Ti177    9.984   .     S
Ti177     Er186    9.996   .     S
Ti177     Er192    9.996   .     S
Ti178     Er181    9.996   .     S
Ti178     Er184    9.996   .     S
Ti178     Ti179    9.984   .     S
Ti178     Ti180    9.984   .     S
Ti179     Er184    9.996   .     S
Ti179     Er190    9.996   .     S
Ti179     Ti180    9.984   .     S
Ti180     Er181    9.996   .     S
Ti180     Er190    9.996   .     S
