data_tub
_audit_creation_date              2020-02-02
_audit_creation_method            'Pymatgen'
_symmetry_space_group_name_H-M    'P1'
_symmetry_Int_Tables_number       1
loop_
_symmetry_equiv_pos_as_xyz
  x,y,z
_cell_length_a                    28.4227
_cell_length_b                    28.4227
_cell_length_c                    47.6573
_cell_angle_alpha                 90.0
_cell_angle_beta                 90.0
_cell_angle_gamma                 120.0
loop_
_atom_site_label
_atom_site_type_symbol
_atom_site_fract_x
_atom_site_fract_y
_atom_site_fract_z
Ce1     Ce     0.3333   0.6667   0.3869
Ti2     Ti     0.4934   0.5066   0.2581
Ti3     Ti     0.4934   0.9868   0.2581
Ti4     Ti     0.0132   0.5066   0.2581
S5     S     0.6779   0.839   0.5
S6     S     0.161   0.839   0.5
V7     V     0.8836   0.1164   0.2061
V8     V     0.8836   0.7673   0.2061
V9     V     0.2327   0.1164   0.2061
Er10     Er     0.0   0.0   0.374
S11     S     0.161   0.3221   0.5
Er12     Er     0.0   0.0   0.874
V13     V     0.1164   0.8836   0.7061
V14     V     0.1164   0.2327   0.7061
V15     V     0.7673   0.8836   0.7061
S16     S     0.3221   0.161   0.0
S17     S     0.839   0.6779   0.0
S18     S     0.839   0.161   0.0
Ce19     Ce     0.6667   0.3333   0.8869
Ti20     Ti     0.5066   0.0132   0.7581
Ti21     Ti     0.9868   0.4934   0.7581
Ti22     Ti     0.5066   0.4934   0.7581
loop_
_geom_bond_atom_site_label_1
_geom_bond_atom_site_label_2
_geom_bond_distance
_geom_bond_site_symmetry_2
_ccdc_geom_bond_type
Ce1     Ti4    9.989   .     S
Ce1     Ti2    9.989   .     S
Ce1     Ti3    9.989   .     S
Ce1     S5    10.049   .     S
Ce1     S6    10.049   .     S
Ce1     S11    10.049   .     S
Ti2     V8    10.094   .     S
Ti2     V9    10.094   .     S
Ti3     V9    10.094   1_565     S
Ti3     V7    10.094   1_565     S
Ti4     V8    10.094   1_455     S
Ti4     V7    10.094   1_455     S
S5     V15    10.065   .     S
S5     Er10    9.944   1_665     S
S6     V13    10.065   .     S
S6     Er10    9.944   1_565     S
V7     Ti4    10.094   1_655     S
V7     Ti3    10.094   1_545     S
V7     S18    10.065   .     S
V7     V8    9.923   1_545     S
V7     V9    9.923   1_655     S
V7     Er10    9.843   1_655     S
V8     Ti4    10.094   1_655     S
V8     S17    10.065   .     S
V8     V7    9.923   1_565     S
V8     V9    9.923   1_665     S
V8     Er10    9.843   1_665     S
V9     Ti3    10.094   1_545     S
V9     S16    10.065   .     S
V9     V8    9.923   1_445     S
V9     V7    9.923   1_455     S
V9     Er10    9.843   .     S
Er10     S5    9.944   1_445     S
Er10     S6    9.944   1_545     S
Er10     S11    9.944   .     S
Er10     V7    9.843   1_455     S
Er10     V8    9.843   1_445     S
S11     V14    10.065   .     S
Er12     S17    9.944   1_446     S
Er12     S18    9.944   1_456     S
Er12     S16    9.944   1_556     S
Er12     V14    9.843   .     S
Er12     V13    9.843   1_545     S
Er12     V15    9.843   1_445     S
V13     Ti21    10.094   1_455     S
V13     Ti20    10.094   1_565     S
V13     V14    9.923   1_565     S
V13     V15    9.923   1_455     S
V13     Er12    9.843   1_565     S
V14     Ti21    10.094   1_455     S
V14     Ti22    10.094   .     S
V14     V15    9.923   1_445     S
V14     V13    9.923   1_545     S
V15     Ti20    10.094   1_565     S
V15     Ti22    10.094   .     S
V15     V14    9.923   1_665     S
V15     V13    9.923   1_655     S
V15     Er12    9.843   1_665     S
S16     Ce19    10.049   1_554     S
S16     Er12    9.944   1_554     S
S17     Ce19    10.049   1_554     S
S17     Er12    9.944   1_664     S
S18     Ce19    10.049   1_554     S
S18     Er12    9.944   1_654     S
Ce19     Ti21    9.989   .     S
Ce19     Ti22    9.989   .     S
Ce19     Ti20    9.989   .     S
Ce19     S18    10.049   1_556     S
Ce19     S16    10.049   1_556     S
Ce19     S17    10.049   1_556     S
Ti20     V15    10.094   1_545     S
Ti20     V13    10.094   1_545     S
Ti21     V14    10.094   1_655     S
Ti21     V13    10.094   1_655     S
