data_twf
_audit_creation_date              2020-02-02
_audit_creation_method            'Pymatgen'
_symmetry_space_group_name_H-M    'P1'
_symmetry_Int_Tables_number       1
loop_
_symmetry_equiv_pos_as_xyz
  x,y,z
_cell_length_a                    17.8885
_cell_length_b                    17.8885
_cell_length_c                    17.8885
_cell_angle_alpha                 90.0
_cell_angle_beta                 90.0
_cell_angle_gamma                 90.0
loop_
_atom_site_label
_atom_site_type_symbol
_atom_site_fract_x
_atom_site_fract_y
_atom_site_fract_z
V1     V     0.0   0.25   0.5
V2     V     0.25   0.0   0.5
V3     V     0.5   0.0   0.25
V4     V     0.0   0.5   0.25
V5     V     0.25   0.5   0.0
V6     V     0.5   0.25   0.0
Er7     Er     0.0   0.0   0.0
Er8     Er     0.5   0.5   0.5
V9     V     0.75   0.0   0.5
V10     V     0.0   0.75   0.5
V11     V     0.5   0.0   0.75
V12     V     0.0   0.5   0.75
V13     V     0.75   0.5   0.0
V14     V     0.5   0.75   0.0
loop_
_geom_bond_atom_site_label_1
_geom_bond_atom_site_label_2
_geom_bond_distance
_geom_bond_site_symmetry_2
_ccdc_geom_bond_type
V1     Er8    10.0   1_455     S
V1     Er8    10.0   .     S
V1     Er7    10.0   1_556     S
V1     Er7    10.0   .     S
V2     Er8    10.0   1_545     S
V2     Er8    10.0   .     S
V2     Er7    10.0   1_556     S
V2     Er7    10.0   .     S
V3     Er8    10.0   1_545     S
V3     Er8    10.0   .     S
V3     Er7    10.0   1_655     S
V3     Er7    10.0   .     S
V4     Er8    10.0   1_455     S
V4     Er8    10.0   .     S
V4     Er7    10.0   1_565     S
V4     Er7    10.0   .     S
V5     Er8    10.0   1_554     S
V5     Er8    10.0   .     S
V5     Er7    10.0   1_565     S
V5     Er7    10.0   .     S
V6     Er8    10.0   1_554     S
V6     Er8    10.0   .     S
V6     Er7    10.0   1_655     S
V6     Er7    10.0   .     S
Er7     V12    10.0   1_544     S
Er7     V13    10.0   1_445     S
Er7     V4    10.0   1_545     S
Er7     V5    10.0   1_545     S
Er7     V11    10.0   1_454     S
Er7     V14    10.0   1_445     S
Er7     V3    10.0   1_455     S
Er7     V6    10.0   1_455     S
Er7     V10    10.0   1_544     S
Er7     V9    10.0   1_454     S
Er7     V2    10.0   1_554     S
Er7     V1    10.0   1_554     S
Er7     V12    10.0   1_554     S
Er7     V13    10.0   1_455     S
Er7     V9    10.0   1_455     S
Er7     V10    10.0   1_545     S
Er7     V11    10.0   1_554     S
Er7     V14    10.0   1_545     S
Er8     V11    10.0   1_565     S
Er8     V9    10.0   1_565     S
Er8     V3    10.0   1_565     S
Er8     V2    10.0   1_565     S
Er8     V12    10.0   1_655     S
Er8     V10    10.0   1_655     S
Er8     V4    10.0   1_655     S
Er8     V1    10.0   1_655     S
Er8     V14    10.0   1_556     S
Er8     V13    10.0   1_556     S
Er8     V5    10.0   1_556     S
Er8     V6    10.0   1_556     S
Er8     V11    10.0   .     S
Er8     V9    10.0   .     S
Er8     V12    10.0   .     S
Er8     V10    10.0   .     S
Er8     V13    10.0   .     S
Er8     V14    10.0   .     S
V9     Er8    10.0   1_545     S
V9     Er7    10.0   1_656     S
V9     Er7    10.0   1_655     S
V10     Er8    10.0   1_455     S
V10     Er7    10.0   1_566     S
V10     Er7    10.0   1_565     S
V11     Er8    10.0   1_545     S
V11     Er7    10.0   1_656     S
V11     Er7    10.0   1_556     S
V12     Er8    10.0   1_455     S
V12     Er7    10.0   1_566     S
V12     Er7    10.0   1_556     S
V13     Er8    10.0   1_554     S
V13     Er7    10.0   1_665     S
V13     Er7    10.0   1_655     S
V14     Er8    10.0   1_554     S
V14     Er7    10.0   1_665     S
V14     Er7    10.0   1_565     S
