data_twfa
_audit_creation_date              2020-02-02
_audit_creation_method            'Pymatgen'
_symmetry_space_group_name_H-M    'P1'
_symmetry_Int_Tables_number       1
loop_
_symmetry_equiv_pos_as_xyz
  x,y,z
_cell_length_a                    56.9243
_cell_length_b                    56.9243
_cell_length_c                    56.9243
_cell_angle_alpha                 90.0
_cell_angle_beta                 90.0
_cell_angle_gamma                 90.0
loop_
_atom_site_label
_atom_site_type_symbol
_atom_site_fract_x
_atom_site_fract_y
_atom_site_fract_z
V1     V     0.3758   0.7484   0.5
Er2     Er     0.3121   0.9122   0.5
V3     V     0.5   0.7484   0.6242
Er4     Er     0.5   0.9122   0.6879
V5     V     0.6242   0.7484   0.5
Er6     Er     0.6879   0.9122   0.5
V7     V     0.5   0.7484   0.3758
Er8     Er     0.5   0.9122   0.3121
V9     V     0.7484   0.5   0.6242
Er10     Er     0.9122   0.5   0.6879
V11     V     0.7484   0.6242   0.5
Er12     Er     0.9122   0.6879   0.5
V13     V     0.7484   0.3758   0.5
Er14     Er     0.9122   0.3121   0.5
V15     V     0.7484   0.5   0.3758
Er16     Er     0.9122   0.5   0.3121
V17     V     0.5   0.3758   0.7484
Er18     Er     0.5   0.3121   0.9122
V19     V     0.6242   0.5   0.7484
Er20     Er     0.6879   0.5   0.9122
V21     V     0.5   0.6242   0.7484
Er22     Er     0.5   0.6879   0.9122
V23     V     0.3758   0.5   0.7484
Er24     Er     0.3121   0.5   0.9122
V25     V     0.5   0.2516   0.6242
Er26     Er     0.5   0.0878   0.6879
V27     V     0.6242   0.2516   0.5
Er28     Er     0.6879   0.0878   0.5
V29     V     0.5   0.2516   0.3758
Er30     Er     0.5   0.0878   0.3121
V31     V     0.5   0.3758   0.2516
Er32     Er     0.5   0.3121   0.0878
V33     V     0.6242   0.5   0.2516
Er34     Er     0.6879   0.5   0.0878
V35     V     0.5   0.6242   0.2516
Er36     Er     0.5   0.6879   0.0878
V37     V     0.3758   0.5   0.2516
Er38     Er     0.3121   0.5   0.0878
V39     V     0.2516   0.5   0.3758
Er40     Er     0.0878   0.5   0.3121
V41     V     0.2516   0.3758   0.5
Er42     Er     0.0878   0.3121   0.5
V43     V     0.3758   0.2516   0.5
Er44     Er     0.3121   0.0878   0.5
V45     V     0.2516   0.6242   0.5
Er46     Er     0.0878   0.6879   0.5
V47     V     0.2516   0.5   0.6242
Er48     Er     0.0878   0.5   0.6879
V49     V     0.8758   0.7516   0.0
Er50     Er     0.8121   0.5878   0.0
V51     V     0.0   0.7516   0.8758
Er52     Er     0.0   0.5878   0.8121
V53     V     0.1242   0.7516   0.0
Er54     Er     0.1879   0.5878   0.0
V55     V     0.0   0.7516   0.1242
Er56     Er     0.0   0.5878   0.1879
V57     V     0.7516   0.0   0.8758
Er58     Er     0.5878   0.0   0.8121
V59     V     0.7516   0.8758   0.0
Er60     Er     0.5878   0.8121   0.0
V61     V     0.7516   0.1242   0.0
Er62     Er     0.5878   0.1879   0.0
V63     V     0.7516   0.0   0.1242
Er64     Er     0.5878   0.0   0.1879
V65     V     0.2484   0.8758   0.0
Er66     Er     0.4122   0.8121   0.0
V67     V     0.2484   0.0   0.8758
Er68     Er     0.4122   0.0   0.8121
V69     V     0.0   0.2484   0.8758
Er70     Er     0.0   0.4122   0.8121
V71     V     0.8758   0.2484   0.0
Er72     Er     0.8121   0.4122   0.0
V73     V     0.2484   0.1242   0.0
Er74     Er     0.4122   0.1879   0.0
V75     V     0.2484   0.0   0.1242
Er76     Er     0.4122   0.0   0.1879
V77     V     0.1242   0.2484   0.0
Er78     Er     0.1879   0.4122   0.0
V79     V     0.0   0.2484   0.1242
Er80     Er     0.0   0.4122   0.1879
V81     V     0.1242   0.0   0.2484
Er82     Er     0.1879   0.0   0.4122
V83     V     0.0   0.1242   0.2484
Er84     Er     0.0   0.1879   0.4122
V85     V     0.0   0.8758   0.2484
Er86     Er     0.0   0.8121   0.4122
V87     V     0.8758   0.0   0.2484
Er88     Er     0.8121   0.0   0.4122
V89     V     0.8758   0.0   0.7516
Er90     Er     0.8121   0.0   0.5878
V91     V     0.0   0.8758   0.7516
Er92     Er     0.0   0.8121   0.5878
V93     V     0.0   0.1242   0.7516
Er94     Er     0.0   0.1879   0.5878
V95     V     0.1242   0.0   0.7516
Er96     Er     0.1879   0.0   0.5878
loop_
_geom_bond_atom_site_label_1
_geom_bond_atom_site_label_2
_geom_bond_distance
_geom_bond_site_symmetry_2
_ccdc_geom_bond_type
V1     Er2    10.0   .     S
V1     V3    10.0   .     S
V1     V7    10.0   .     S
V1     V45    10.0   .     S
Er2     Er44    10.0   1_565     S
Er2     Er96    10.0   1_565     S
Er2     Er82    10.0   1_565     S
V3     Er4    10.0   .     S
V3     V5    10.0   .     S
V3     V21    10.0   .     S
Er4     Er26    10.0   1_565     S
Er4     Er58    10.0   1_565     S
Er4     Er68    10.0   1_565     S
V5     Er6    10.0   .     S
V5     V7    10.0   .     S
V5     V11    10.0   .     S
Er6     Er28    10.0   1_565     S
Er6     Er90    10.0   1_565     S
Er6     Er88    10.0   1_565     S
V7     Er8    10.0   .     S
V7     V35    10.0   .     S
Er8     Er30    10.0   1_565     S
Er8     Er64    10.0   1_565     S
Er8     Er76    10.0   1_565     S
V9     Er10    10.0   .     S
V9     V11    10.0   .     S
V9     V13    10.0   .     S
V9     V19    10.0   .     S
Er10     Er48    10.0   1_655     S
Er10     Er52    10.0   1_655     S
Er10     Er70    10.0   1_655     S
V11     Er12    10.0   .     S
V11     V15    10.0   .     S
Er12     Er46    10.0   1_655     S
Er12     Er92    10.0   1_655     S
Er12     Er86    10.0   1_655     S
V13     Er14    10.0   .     S
V13     V15    10.0   .     S
V13     V27    10.0   .     S
Er14     Er42    10.0   1_655     S
Er14     Er94    10.0   1_655     S
Er14     Er84    10.0   1_655     S
V15     Er16    10.0   .     S
V15     V33    10.0   .     S
Er16     Er40    10.0   1_655     S
Er16     Er56    10.0   1_655     S
Er16     Er80    10.0   1_655     S
V17     Er18    10.0   .     S
V17     V19    10.0   .     S
V17     V23    10.0   .     S
V17     V25    10.0   .     S
Er18     Er32    10.0   1_556     S
Er18     Er62    10.0   1_556     S
Er18     Er74    10.0   1_556     S
V19     Er20    10.0   .     S
V19     V21    10.0   .     S
Er20     Er34    10.0   1_556     S
Er20     Er50    10.0   1_556     S
Er20     Er72    10.0   1_556     S
V21     Er22    10.0   .     S
V21     V23    10.0   .     S
Er22     Er36    10.0   1_556     S
Er22     Er60    10.0   1_556     S
Er22     Er66    10.0   1_556     S
V23     Er24    10.0   .     S
V23     V47    10.0   .     S
Er24     Er38    10.0   1_556     S
Er24     Er54    10.0   1_556     S
Er24     Er78    10.0   1_556     S
V25     Er26    10.0   .     S
V25     V27    10.0   .     S
V25     V43    10.0   .     S
Er26     Er58    10.0   .     S
Er26     Er4    10.0   1_545     S
Er26     Er68    10.0   .     S
V27     Er28    10.0   .     S
V27     V29    10.0   .     S
Er28     Er90    10.0   .     S
Er28     Er6    10.0   1_545     S
Er28     Er88    10.0   .     S
V29     Er30    10.0   .     S
V29     V31    10.0   .     S
V29     V43    10.0   .     S
Er30     Er64    10.0   .     S
Er30     Er8    10.0   1_545     S
Er30     Er76    10.0   .     S
V31     Er32    10.0   .     S
V31     V33    10.0   .     S
V31     V37    10.0   .     S
Er32     Er62    10.0   .     S
Er32     Er18    10.0   1_554     S
Er32     Er74    10.0   .     S
V33     Er34    10.0   .     S
V33     V35    10.0   .     S
Er34     Er50    10.0   .     S
Er34     Er20    10.0   1_554     S
Er34     Er72    10.0   .     S
V35     Er36    10.0   .     S
V35     V37    10.0   .     S
Er36     Er60    10.0   .     S
Er36     Er22    10.0   1_554     S
Er36     Er66    10.0   .     S
V37     Er38    10.0   .     S
V37     V39    10.0   .     S
Er38     Er54    10.0   .     S
Er38     Er24    10.0   1_554     S
Er38     Er78    10.0   .     S
V39     Er40    10.0   .     S
V39     V45    10.0   .     S
V39     V41    10.0   .     S
Er40     Er56    10.0   .     S
Er40     Er16    10.0   1_455     S
Er40     Er80    10.0   .     S
V41     Er42    10.0   .     S
V41     V43    10.0   .     S
V41     V47    10.0   .     S
Er42     Er94    10.0   .     S
Er42     Er14    10.0   1_455     S
Er42     Er84    10.0   .     S
V43     Er44    10.0   .     S
Er44     Er96    10.0   .     S
Er44     Er2    10.0   1_545     S
Er44     Er82    10.0   .     S
V45     Er46    10.0   .     S
V45     V47    10.0   .     S
Er46     Er92    10.0   .     S
Er46     Er12    10.0   1_455     S
Er46     Er86    10.0   .     S
V47     Er48    10.0   .     S
Er48     Er52    10.0   .     S
Er48     Er10    10.0   1_455     S
Er48     Er70    10.0   .     S
V49     Er50    10.0   .     S
V49     V55    10.0   1_655     S
V49     V51    10.0   1_654     S
V49     V59    10.0   .     S
Er50     Er20    10.0   1_554     S
Er50     Er72    10.0   .     S
V51     Er52    10.0   .     S
V51     V53    10.0   1_556     S
V51     V49    10.0   1_456     S
V51     V91    10.0   .     S
Er52     Er10    10.0   1_455     S
Er52     Er70    10.0   .     S
V53     V51    10.0   1_554     S
V53     Er54    10.0   .     S
V53     V55    10.0   .     S
V53     V65    10.0   .     S
Er54     Er78    10.0   .     S
Er54     Er24    10.0   1_554     S
V55     V49    10.0   1_455     S
V55     Er56    10.0   .     S
V55     V85    10.0   .     S
Er56     Er80    10.0   .     S
Er56     Er16    10.0   1_455     S
V57     Er58    10.0   .     S
V57     V61    10.0   1_556     S
V57     V59    10.0   1_546     S
V57     V89    10.0   .     S
Er58     Er4    10.0   1_545     S
Er58     Er68    10.0   .     S
V59     Er60    10.0   .     S
V59     V63    10.0   1_565     S
V59     V57    10.0   1_564     S
Er60     Er22    10.0   1_554     S
Er60     Er66    10.0   .     S
V61     V57    10.0   1_554     S
V61     Er62    10.0   .     S
V61     V63    10.0   .     S
V61     V71    10.0   .     S
Er62     Er74    10.0   .     S
Er62     Er18    10.0   1_554     S
V63     V59    10.0   1_545     S
V63     Er64    10.0   .     S
V63     V87    10.0   .     S
Er64     Er76    10.0   .     S
Er64     Er8    10.0   1_545     S
V65     Er66    10.0   .     S
V65     V75    10.0   1_565     S
V65     V67    10.0   1_564     S
Er66     Er22    10.0   1_554     S
V67     Er68    10.0   .     S
V67     V73    10.0   1_556     S
V67     V65    10.0   1_546     S
V67     V95    10.0   .     S
Er68     Er4    10.0   1_545     S
V69     Er70    10.0   .     S
V69     V77    10.0   1_556     S
V69     V71    10.0   1_456     S
V69     V93    10.0   .     S
Er70     Er10    10.0   1_455     S
V71     Er72    10.0   .     S
V71     V79    10.0   1_655     S
V71     V69    10.0   1_654     S
Er72     Er20    10.0   1_554     S
V73     V67    10.0   1_554     S
V73     Er74    10.0   .     S
V73     V75    10.0   .     S
V73     V77    10.0   .     S
Er74     Er18    10.0   1_554     S
V75     V65    10.0   1_545     S
V75     Er76    10.0   .     S
V75     V81    10.0   .     S
Er76     Er8    10.0   1_545     S
V77     V69    10.0   1_554     S
V77     Er78    10.0   .     S
V77     V79    10.0   .     S
Er78     Er24    10.0   1_554     S
V79     V71    10.0   1_455     S
V79     Er80    10.0   .     S
V79     V83    10.0   .     S
Er80     Er16    10.0   1_455     S
V81     Er82    10.0   .     S
V81     V83    10.0   .     S
V81     V85    10.0   1_545     S
Er82     Er96    10.0   .     S
Er82     Er2    10.0   1_545     S
V83     Er84    10.0   .     S
V83     V87    10.0   1_455     S
Er84     Er94    10.0   .     S
Er84     Er14    10.0   1_455     S
V85     Er86    10.0   .     S
V85     V81    10.0   1_565     S
V85     V87    10.0   1_465     S
Er86     Er12    10.0   1_455     S
Er86     Er92    10.0   .     S
V87     Er88    10.0   .     S
V87     V83    10.0   1_655     S
V87     V85    10.0   1_645     S
Er88     Er6    10.0   1_545     S
Er88     Er90    10.0   .     S
V89     Er90    10.0   .     S
V89     V93    10.0   1_655     S
V89     V91    10.0   1_645     S
Er90     Er6    10.0   1_545     S
V91     Er92    10.0   .     S
V91     V95    10.0   1_565     S
V91     V89    10.0   1_465     S
Er92     Er12    10.0   1_455     S
V93     V89    10.0   1_455     S
V93     Er94    10.0   .     S
V93     V95    10.0   .     S
Er94     Er14    10.0   1_455     S
V95     V91    10.0   1_545     S
V95     Er96    10.0   .     S
Er96     Er2    10.0   1_545     S
