data_twfda
_audit_creation_date              2020-02-02
_audit_creation_method            'Pymatgen'
_symmetry_space_group_name_H-M    'P1'
_symmetry_Int_Tables_number       1
loop_
_symmetry_equiv_pos_as_xyz
  x,y,z
_cell_length_a                    93.1697
_cell_length_b                    93.1697
_cell_length_c                    93.1697
_cell_angle_alpha                 90.0
_cell_angle_beta                 90.0
_cell_angle_gamma                 90.0
loop_
_atom_site_label
_atom_site_type_symbol
_atom_site_fract_x
_atom_site_fract_y
_atom_site_fract_z
Ce1     Ce     0.5537   0.5537   0.0
Ti2     Ti     0.6296   0.6296   0.0
Ce3     Ce     0.5537   0.4463   0.0
Ti4     Ti     0.6296   0.3704   0.0
Ce5     Ce     0.4463   0.4463   0.0
Ti6     Ti     0.3704   0.3704   0.0
Ce7     Ce     0.4463   0.5537   0.0
Ti8     Ti     0.3704   0.6296   0.0
Ce9     Ce     0.5537   0.0   0.5537
Ti10     Ti     0.6296   0.0   0.6296
Ce11     Ce     0.5537   0.0   0.4463
Ti12     Ti     0.6296   0.0   0.3704
Ce13     Ce     0.4463   0.0   0.5537
Ti14     Ti     0.3704   0.0   0.6296
Ce15     Ce     0.4463   0.0   0.4463
Ti16     Ti     0.3704   0.0   0.3704
Ce17     Ce     0.0   0.4463   0.5537
Ti18     Ti     0.0   0.3704   0.6296
Ce19     Ce     0.0   0.4463   0.4463
Ti20     Ti     0.0   0.3704   0.3704
Ce21     Ce     0.0   0.5537   0.5537
Ti22     Ti     0.0   0.6296   0.6296
Ce23     Ce     0.0   0.5537   0.4463
Ti24     Ti     0.0   0.6296   0.3704
Ce25     Ce     0.0537   0.0537   0.5
Ti26     Ti     0.1296   0.1296   0.5
Ce27     Ce     0.0537   0.9463   0.5
Ti28     Ti     0.1296   0.8704   0.5
Ce29     Ce     0.9463   0.9463   0.5
Ti30     Ti     0.8704   0.8704   0.5
Ce31     Ce     0.9463   0.0537   0.5
Ti32     Ti     0.8704   0.1296   0.5
Ce33     Ce     0.0537   0.5   0.0537
Ti34     Ti     0.1296   0.5   0.1296
Ce35     Ce     0.0537   0.5   0.9463
Ti36     Ti     0.1296   0.5   0.8704
Ce37     Ce     0.9463   0.5   0.9463
Ti38     Ti     0.8704   0.5   0.8704
Ce39     Ce     0.9463   0.5   0.0537
Ti40     Ti     0.8704   0.5   0.1296
V41     V     0.8419   0.2873   0.7127
V42     V     0.7873   0.2127   0.6581
V43     V     0.7873   0.3419   0.7873
V44     V     0.7127   0.1581   0.7127
V45     V     0.7127   0.2873   0.8419
V46     V     0.6581   0.2127   0.7873
Er47     Er     0.9463   0.3047   0.6953
Er48     Er     0.6953   0.3047   0.9463
Er49     Er     0.6953   0.0537   0.6953
Er50     Er     0.5537   0.1953   0.8047
Er51     Er     0.8047   0.1953   0.5537
Er52     Er     0.8047   0.4463   0.8047
V53     V     0.3419   0.2127   0.7873
V54     V     0.2873   0.2873   0.8419
V55     V     0.2127   0.3419   0.7873
V56     V     0.1581   0.2873   0.7127
V57     V     0.2873   0.1581   0.7127
V58     V     0.2127   0.2127   0.6581
Er59     Er     0.3047   0.3047   0.9463
Er60     Er     0.3047   0.0537   0.6953
Er61     Er     0.0537   0.3047   0.6953
Er62     Er     0.1953   0.1953   0.5537
Er63     Er     0.1953   0.4463   0.8047
Er64     Er     0.4463   0.1953   0.8047
V65     V     0.2873   0.7127   0.8419
V66     V     0.2127   0.6581   0.7873
V67     V     0.1581   0.7127   0.7127
V68     V     0.3419   0.7873   0.7873
V69     V     0.2873   0.8419   0.7127
V70     V     0.2127   0.7873   0.6581
Er71     Er     0.3047   0.9463   0.6953
Er72     Er     0.3047   0.6953   0.9463
Er73     Er     0.0537   0.6953   0.6953
Er74     Er     0.1953   0.5537   0.8047
Er75     Er     0.1953   0.8047   0.5537
Er76     Er     0.4463   0.8047   0.8047
V77     V     0.7127   0.7127   0.8419
V78     V     0.6581   0.7873   0.7873
V79     V     0.7873   0.6581   0.7873
V80     V     0.8419   0.7127   0.7127
V81     V     0.7127   0.8419   0.7127
V82     V     0.7873   0.7873   0.6581
Er83     Er     0.6953   0.9463   0.6953
Er84     Er     0.9463   0.6953   0.6953
Er85     Er     0.6953   0.6953   0.9463
Er86     Er     0.5537   0.8047   0.8047
Er87     Er     0.8047   0.5537   0.8047
Er88     Er     0.8047   0.8047   0.5537
V89     V     0.2127   0.7873   0.3419
V90     V     0.2873   0.8419   0.2873
V91     V     0.3419   0.7873   0.2127
V92     V     0.2873   0.7127   0.1581
V93     V     0.1581   0.7127   0.2873
V94     V     0.2127   0.6581   0.2127
Er95     Er     0.3047   0.9463   0.3047
Er96     Er     0.0537   0.6953   0.3047
Er97     Er     0.3047   0.6953   0.0537
Er98     Er     0.1953   0.5537   0.1953
Er99     Er     0.4463   0.8047   0.1953
Er100     Er     0.1953   0.8047   0.4463
V101     V     0.7127   0.7127   0.1581
V102     V     0.7127   0.8419   0.2873
V103     V     0.6581   0.7873   0.2127
V104     V     0.7873   0.7873   0.3419
V105     V     0.8419   0.7127   0.2873
V106     V     0.7873   0.6581   0.2127
Er107     Er     0.9463   0.6953   0.3047
Er108     Er     0.6953   0.9463   0.3047
Er109     Er     0.6953   0.6953   0.0537
Er110     Er     0.8047   0.5537   0.1953
Er111     Er     0.5537   0.8047   0.1953
Er112     Er     0.8047   0.8047   0.4463
V113     V     0.7127   0.2873   0.1581
V114     V     0.7127   0.1581   0.2873
V115     V     0.6581   0.2127   0.2127
V116     V     0.7873   0.3419   0.2127
V117     V     0.8419   0.2873   0.2873
V118     V     0.7873   0.2127   0.3419
Er119     Er     0.9463   0.3047   0.3047
Er120     Er     0.6953   0.0537   0.3047
Er121     Er     0.6953   0.3047   0.0537
Er122     Er     0.5537   0.1953   0.1953
Er123     Er     0.8047   0.4463   0.1953
Er124     Er     0.8047   0.1953   0.4463
V125     V     0.2127   0.3419   0.2127
V126     V     0.2873   0.2873   0.1581
V127     V     0.3419   0.2127   0.2127
V128     V     0.2873   0.1581   0.2873
V129     V     0.1581   0.2873   0.2873
V130     V     0.2127   0.2127   0.3419
Er131     Er     0.0537   0.3047   0.3047
Er132     Er     0.3047   0.0537   0.3047
Er133     Er     0.3047   0.3047   0.0537
Er134     Er     0.1953   0.4463   0.1953
Er135     Er     0.4463   0.1953   0.1953
Er136     Er     0.1953   0.1953   0.4463
Ce137     Ce     0.5   0.0537   0.0537
Ti138     Ti     0.5   0.1296   0.1296
Ce139     Ce     0.5   0.0537   0.9463
Ti140     Ti     0.5   0.1296   0.8704
Ce141     Ce     0.5   0.9463   0.9463
Ti142     Ti     0.5   0.8704   0.8704
Ce143     Ce     0.5   0.9463   0.0537
Ti144     Ti     0.5   0.8704   0.1296
loop_
_geom_bond_atom_site_label_1
_geom_bond_atom_site_label_2
_geom_bond_distance
_geom_bond_site_symmetry_2
_ccdc_geom_bond_type
Ce1     Ti2    9.999   .     S
Ce1     Ce3    10.001   .     S
Ce1     Ce7    10.001   .     S
Ti2     Er85    10.001   1_554     S
Ti2     Er109    10.001   .     S
Ce3     Ti4    9.999   .     S
Ce3     Ce5    10.001   .     S
Ti4     Er48    10.001   1_554     S
Ti4     Er121    10.001   .     S
Ce5     Ti6    9.999   .     S
Ce5     Ce7    10.001   .     S
Ti6     Er133    10.001   .     S
Ti6     Er59    10.001   1_554     S
Ce7     Ti8    9.999   .     S
Ti8     Er72    10.001   1_554     S
Ti8     Er97    10.001   .     S
Ce9     Ti10    9.999   .     S
Ce9     Ce11    10.001   .     S
Ce9     Ce13    10.001   .     S
Ti10     Er83    10.001   1_545     S
Ti10     Er49    10.001   .     S
Ce11     Ti12    9.999   .     S
Ce11     Ce15    10.001   .     S
Ti12     Er120    10.001   .     S
Ti12     Er108    10.001   1_545     S
Ce13     Ti14    9.999   .     S
Ce13     Ce15    10.001   .     S
Ti14     Er60    10.001   .     S
Ti14     Er71    10.001   1_545     S
Ce15     Ti16    9.999   .     S
Ti16     Er95    10.001   1_545     S
Ti16     Er132    10.001   .     S
Ce17     Ti18    9.999   .     S
Ce17     Ce19    10.001   .     S
Ce17     Ce21    10.001   .     S
Ti18     Er47    10.001   1_455     S
Ti18     Er61    10.001   .     S
Ce19     Ti20    9.999   .     S
Ce19     Ce23    10.001   .     S
Ti20     Er131    10.001   .     S
Ti20     Er119    10.001   1_455     S
Ce21     Ti22    9.999   .     S
Ce21     Ce23    10.001   .     S
Ti22     Er73    10.001   .     S
Ti22     Er84    10.001   1_455     S
Ce23     Ti24    9.999   .     S
Ti24     Er107    10.001   1_455     S
Ti24     Er96    10.001   .     S
Ce25     Ti26    9.999   .     S
Ce25     Ce27    10.001   1_545     S
Ce25     Ce31    10.001   1_455     S
Ti26     Er136    10.001   .     S
Ti26     Er62    10.001   .     S
Ce27     Ce25    10.001   1_565     S
Ce27     Ti28    9.999   .     S
Ce27     Ce29    10.001   1_455     S
Ti28     Er100    10.001   .     S
Ti28     Er75    10.001   .     S
Ce29     Ce27    10.001   1_655     S
Ce29     Ti30    9.999   .     S
Ce29     Ce31    10.001   1_565     S
Ti30     Er88    10.001   .     S
Ti30     Er112    10.001   .     S
Ce31     Ce25    10.001   1_655     S
Ce31     Ti32    9.999   .     S
Ce31     Ce29    10.001   1_545     S
Ti32     Er124    10.001   .     S
Ti32     Er51    10.001   .     S
Ce33     Ti34    9.999   .     S
Ce33     Ce35    10.001   1_554     S
Ce33     Ce39    10.001   1_455     S
Ti34     Er134    10.001   .     S
Ti34     Er98    10.001   .     S
Ce35     Ce33    10.001   1_556     S
Ce35     Ti36    9.999   .     S
Ce35     Ce37    10.001   1_455     S
Ti36     Er74    10.001   .     S
Ti36     Er63    10.001   .     S
Ce37     Ce35    10.001   1_655     S
Ce37     Ti38    9.999   .     S
Ce37     Ce39    10.001   1_556     S
Ti38     Er52    10.001   .     S
Ti38     Er87    10.001   .     S
Ce39     Ce33    10.001   1_655     S
Ce39     Ti40    9.999   .     S
Ce39     Ce37    10.001   1_554     S
Ti40     Er110    10.001   .     S
Ti40     Er123    10.001   .     S
V41     Er47    10.0   .     S
V41     V42    10.0   .     S
V41     V43    10.0   .     S
V42     Er51    10.0   .     S
V42     V44    10.0   .     S
V43     Er52    10.0   .     S
V43     V45    10.0   .     S
V44     Er49    10.0   .     S
V44     V46    10.0   .     S
V45     Er48    10.0   .     S
V45     V46    10.0   .     S
V46     Er50    10.0   .     S
Er47     Ti18    10.001   1_655     S
Er47     Er61    10.001   1_655     S
Er48     Ti4    10.001   1_556     S
Er48     Er121    10.001   1_556     S
Er49     Er83    10.001   1_545     S
Er50     Er64    10.001   .     S
Er50     Ti140    10.001   .     S
Er51     Er124    10.001   .     S
Er52     Er87    10.001   .     S
V53     Er64    10.0   .     S
V53     V57    10.0   .     S
V53     V54    10.0   .     S
V54     Er59    10.0   .     S
V54     V55    10.0   .     S
V55     Er63    10.0   .     S
V55     V56    10.0   .     S
V56     Er61    10.0   .     S
V56     V58    10.0   .     S
V57     Er60    10.0   .     S
V57     V58    10.0   .     S
V58     Er62    10.0   .     S
Er59     Ti6    10.001   1_556     S
Er59     Er133    10.001   1_556     S
Er60     Er71    10.001   1_545     S
Er61     Er47    10.001   1_455     S
Er62     Er136    10.001   .     S
Er63     Er74    10.001   .     S
Er64     Ti140    10.001   .     S
V65     Er72    10.0   .     S
V65     V66    10.0   .     S
V65     V68    10.0   .     S
V66     Er74    10.0   .     S
V66     V67    10.0   .     S
V67     Er73    10.0   .     S
V67     V70    10.0   .     S
V68     Er76    10.0   .     S
V68     V69    10.0   .     S
V69     Er71    10.0   .     S
V69     V70    10.0   .     S
V70     Er75    10.0   .     S
Er71     Ti14    10.001   1_565     S
Er71     Er60    10.001   1_565     S
Er72     Ti8    10.001   1_556     S
Er72     Er97    10.001   1_556     S
Er73     Er84    10.001   1_455     S
Er75     Er100    10.001   .     S
Er76     Er86    10.001   .     S
Er76     Ti142    10.001   .     S
V77     Er85    10.0   .     S
V77     V78    10.0   .     S
V77     V79    10.0   .     S
V78     Er86    10.0   .     S
V78     V81    10.0   .     S
V79     Er87    10.0   .     S
V79     V80    10.0   .     S
V80     Er84    10.0   .     S
V80     V82    10.0   .     S
V81     Er83    10.0   .     S
V81     V82    10.0   .     S
V82     Er88    10.0   .     S
Er83     Ti10    10.001   1_565     S
Er83     Er49    10.001   1_565     S
Er84     Ti22    10.001   1_655     S
Er84     Er73    10.001   1_655     S
Er85     Ti2    10.001   1_556     S
Er85     Er109    10.001   1_556     S
Er86     Ti142    10.001   .     S
Er88     Er112    10.001   .     S
V89     Er100    10.0   .     S
V89     V93    10.0   .     S
V89     V90    10.0   .     S
V90     Er95    10.0   .     S
V90     V91    10.0   .     S
V91     Er99    10.0   .     S
V91     V92    10.0   .     S
V92     Er97    10.0   .     S
V92     V94    10.0   .     S
V93     Er96    10.0   .     S
V93     V94    10.0   .     S
V94     Er98    10.0   .     S
Er95     Ti16    10.001   1_565     S
Er95     Er132    10.001   1_565     S
Er96     Er107    10.001   1_455     S
Er97     Er72    10.001   1_554     S
Er98     Er134    10.001   .     S
Er99     Er111    10.001   .     S
Er99     Ti144    10.001   .     S
V101     Er109    10.0   .     S
V101     V103    10.0   .     S
V101     V106    10.0   .     S
V102     Er108    10.0   .     S
V102     V103    10.0   .     S
V102     V104    10.0   .     S
V103     Er111    10.0   .     S
V104     Er112    10.0   .     S
V104     V105    10.0   .     S
V105     Er107    10.0   .     S
V105     V106    10.0   .     S
V106     Er110    10.0   .     S
Er107     Ti24    10.001   1_655     S
Er107     Er96    10.001   1_655     S
Er108     Ti12    10.001   1_565     S
Er108     Er120    10.001   1_565     S
Er109     Er85    10.001   1_554     S
Er110     Er123    10.001   .     S
Er111     Ti144    10.001   .     S
V113     Er121    10.0   .     S
V113     V115    10.0   .     S
V113     V116    10.0   .     S
V114     Er120    10.0   .     S
V114     V115    10.0   .     S
V114     V118    10.0   .     S
V115     Er122    10.0   .     S
V116     Er123    10.0   .     S
V116     V117    10.0   .     S
V117     Er119    10.0   .     S
V117     V118    10.0   .     S
V118     Er124    10.0   .     S
Er119     Ti20    10.001   1_655     S
Er119     Er131    10.001   1_655     S
Er120     Er108    10.001   1_545     S
Er121     Er48    10.001   1_554     S
Er122     Er135    10.001   .     S
Er122     Ti138    10.001   .     S
V125     Er134    10.0   .     S
V125     V126    10.0   .     S
V125     V129    10.0   .     S
V126     Er133    10.0   .     S
V126     V127    10.0   .     S
V127     Er135    10.0   .     S
V127     V128    10.0   .     S
V128     Er132    10.0   .     S
V128     V130    10.0   .     S
V129     Er131    10.0   .     S
V129     V130    10.0   .     S
V130     Er136    10.0   .     S
Er131     Er119    10.001   1_455     S
Er132     Er95    10.001   1_545     S
Er133     Er59    10.001   1_554     S
Er135     Ti138    10.001   .     S
Ce137     Ti138    9.999   .     S
Ce137     Ce139    10.001   1_554     S
Ce137     Ce143    10.001   1_545     S
Ce139     Ce137    10.001   1_556     S
Ce139     Ti140    9.999   .     S
Ce139     Ce141    10.001   1_545     S
Ce141     Ce139    10.001   1_565     S
Ce141     Ti142    9.999   .     S
Ce141     Ce143    10.001   1_556     S
Ce143     Ce137    10.001   1_565     S
Ce143     Ti144    9.999   .     S
Ce143     Ce141    10.001   1_554     S
