data_twte
_audit_creation_date              2020-02-02
_audit_creation_method            'Pymatgen'
_symmetry_space_group_name_H-M    'P1'
_symmetry_Int_Tables_number       1
loop_
_symmetry_equiv_pos_as_xyz
  x,y,z
_cell_length_a                    28.8089
_cell_length_b                    28.8089
_cell_length_c                    22.451
_cell_angle_alpha                 90.0
_cell_angle_beta                 90.0
_cell_angle_gamma                 120.0
loop_
_atom_site_label
_atom_site_type_symbol
_atom_site_fract_x
_atom_site_fract_y
_atom_site_fract_z
V1     V     0.5   0.0   0.5
V2     V     0.5   0.5   0.8333
V3     V     0.0   0.5   0.1667
Er4     Er     0.8671   0.7342   0.0
Er5     Er     0.1329   0.8671   0.3333
Er6     Er     0.2658   0.1329   0.6667
Er7     Er     0.1329   0.2658   0.0
Er8     Er     0.8671   0.1329   0.3333
Er9     Er     0.7342   0.8671   0.6667
loop_
_geom_bond_atom_site_label_1
_geom_bond_atom_site_label_2
_geom_bond_distance
_geom_bond_site_symmetry_2
_ccdc_geom_bond_type
V1     Er6    10.0   .     S
V1     Er9    10.0   1_545     S
V1     Er8    10.0   .     S
V1     Er5    10.0   1_545     S
V2     Er4    10.0   1_556     S
V2     Er7    10.0   1_556     S
V2     Er9    10.0   .     S
V2     Er6    10.0   .     S
V3     Er5    10.0   .     S
V3     Er8    10.0   1_455     S
V3     Er4    10.0   1_455     S
V3     Er7    10.0   .     S
Er4     V2    10.0   1_554     S
Er4     V3    10.0   1_655     S
Er4     Er9    10.0   1_554     S
Er4     Er5    10.0   1_655     S
Er5     V1    10.0   1_565     S
Er5     Er6    10.0   1_565     S
Er5     Er4    10.0   1_455     S
Er6     Er5    10.0   1_545     S
Er6     Er7    10.0   1_556     S
Er7     V2    10.0   1_554     S
Er7     Er6    10.0   1_554     S
Er7     Er8    10.0   1_455     S
Er8     V3    10.0   1_655     S
Er8     Er9    10.0   1_545     S
Er8     Er7    10.0   1_655     S
Er9     V1    10.0   1_565     S
Er9     Er4    10.0   1_556     S
Er9     Er8    10.0   1_565     S
