data_txt
_audit_creation_date              2020-02-02
_audit_creation_method            'Pymatgen'
_symmetry_space_group_name_H-M    'P1'
_symmetry_Int_Tables_number       1
loop_
_symmetry_equiv_pos_as_xyz
  x,y,z
_cell_length_a                    18.873
_cell_length_b                    18.873
_cell_length_c                    18.873
_cell_angle_alpha                 90.0
_cell_angle_beta                 90.0
_cell_angle_gamma                 90.0
loop_
_atom_site_label
_atom_site_type_symbol
_atom_site_fract_x
_atom_site_fract_y
_atom_site_fract_z
Er1     Er     0.3719   0.6281   0.0
Er2     Er     0.6281   0.6281   0.0
Er3     Er     0.3719   0.3719   0.0
Er4     Er     0.6281   0.3719   0.0
Er5     Er     0.6281   0.0   0.3719
Er6     Er     0.6281   0.0   0.6281
Er7     Er     0.3719   0.0   0.3719
Er8     Er     0.3719   0.0   0.6281
Er9     Er     0.0   0.6281   0.3719
Er10     Er     0.0   0.6281   0.6281
Er11     Er     0.0   0.3719   0.3719
Er12     Er     0.0   0.3719   0.6281
V13     V     0.0   0.0   0.0
Er14     Er     0.8719   0.1281   0.5
Er15     Er     0.1281   0.1281   0.5
Er16     Er     0.8719   0.8719   0.5
Er17     Er     0.1281   0.8719   0.5
Er18     Er     0.1281   0.5   0.8719
Er19     Er     0.1281   0.5   0.1281
Er20     Er     0.8719   0.5   0.8719
Er21     Er     0.8719   0.5   0.1281
Er22     Er     0.5   0.8719   0.8719
Er23     Er     0.5   0.1281   0.8719
Er24     Er     0.5   0.1281   0.1281
Er25     Er     0.5   0.8719   0.1281
V26     V     0.5   0.5   0.5
loop_
_geom_bond_atom_site_label_1
_geom_bond_atom_site_label_2
_geom_bond_distance
_geom_bond_site_symmetry_2
_ccdc_geom_bond_type
Er1     V13    9.927   1_565     S
Er1     V26    10.037   1_554     S
Er1     V26    10.037   .     S
Er2     V13    9.927   1_665     S
Er2     V26    10.037   1_554     S
Er2     V26    10.037   .     S
Er3     V13    9.927   .     S
Er3     V26    10.037   1_554     S
Er3     V26    10.037   .     S
Er4     V13    9.927   1_655     S
Er4     V26    10.037   1_554     S
Er4     V26    10.037   .     S
Er5     V13    9.927   1_655     S
Er5     V26    10.037   .     S
Er5     V26    10.037   1_545     S
Er6     V13    9.927   1_656     S
Er6     V26    10.037   .     S
Er6     V26    10.037   1_545     S
Er7     V13    9.927   .     S
Er7     V26    10.037   .     S
Er7     V26    10.037   1_545     S
Er8     V13    9.927   1_556     S
Er8     V26    10.037   .     S
Er8     V26    10.037   1_545     S
Er9     V13    9.927   1_565     S
Er9     V26    10.037   .     S
Er9     V26    10.037   1_455     S
Er10     V13    9.927   1_566     S
Er10     V26    10.037   .     S
Er10     V26    10.037   1_455     S
Er11     V13    9.927   .     S
Er11     V26    10.037   .     S
Er11     V26    10.037   1_455     S
Er12     V13    9.927   1_556     S
Er12     V26    10.037   .     S
Er12     V26    10.037   1_455     S
V13     Er8    9.927   1_554     S
V13     Er12    9.927   1_554     S
V13     Er9    9.927   1_545     S
V13     Er1    9.927   1_545     S
V13     Er5    9.927   1_455     S
V13     Er4    9.927   1_455     S
V13     Er10    9.927   1_544     S
V13     Er6    9.927   1_454     S
V13     Er2    9.927   1_445     S
V13     Er17    10.037   1_544     S
V13     Er15    10.037   1_554     S
V13     Er14    10.037   1_454     S
V13     Er16    10.037   1_444     S
V13     Er19    10.037   1_545     S
V13     Er18    10.037   1_544     S
V13     Er20    10.037   1_444     S
V13     Er21    10.037   1_445     S
V13     Er21    10.037   1_455     S
V13     Er19    10.037   .     S
V13     Er18    10.037   1_554     S
V13     Er20    10.037   1_454     S
V13     Er24    10.037   .     S
V13     Er23    10.037   1_554     S
V13     Er22    10.037   1_544     S
V13     Er25    10.037   1_545     S
V13     Er15    10.037   .     S
V13     Er14    10.037   1_455     S
V13     Er16    10.037   1_445     S
V13     Er17    10.037   1_545     S
V13     Er25    10.037   1_445     S
V13     Er22    10.037   1_444     S
V13     Er23    10.037   1_454     S
V13     Er24    10.037   1_455     S
Er14     V26    9.927   .     S
Er14     V13    10.037   1_656     S
Er14     V13    10.037   1_655     S
Er15     V26    9.927   .     S
Er15     V13    10.037   1_556     S
Er16     V26    9.927   .     S
Er16     V13    10.037   1_666     S
Er16     V13    10.037   1_665     S
Er17     V26    9.927   .     S
Er17     V13    10.037   1_566     S
Er17     V13    10.037   1_565     S
Er18     V26    9.927   .     S
Er18     V13    10.037   1_566     S
Er18     V13    10.037   1_556     S
Er19     V26    9.927   .     S
Er19     V13    10.037   1_565     S
Er20     V26    9.927   .     S
Er20     V13    10.037   1_666     S
Er20     V13    10.037   1_656     S
Er21     V26    9.927   .     S
Er21     V13    10.037   1_665     S
Er21     V13    10.037   1_655     S
Er22     V26    9.927   .     S
Er22     V13    10.037   1_566     S
Er22     V13    10.037   1_666     S
Er23     V26    9.927   .     S
Er23     V13    10.037   1_556     S
Er23     V13    10.037   1_656     S
Er24     V26    9.927   .     S
Er24     V13    10.037   1_655     S
Er25     V26    9.927   .     S
Er25     V13    10.037   1_565     S
Er25     V13    10.037   1_665     S
V26     Er8    10.037   1_565     S
V26     Er6    10.037   1_565     S
V26     Er5    10.037   1_565     S
V26     Er7    10.037   1_565     S
V26     Er2    10.037   1_556     S
V26     Er1    10.037   1_556     S
V26     Er3    10.037   1_556     S
V26     Er4    10.037   1_556     S
V26     Er11    10.037   1_655     S
V26     Er9    10.037   1_655     S
V26     Er10    10.037   1_655     S
V26     Er12    10.037   1_655     S
