data_uboa
_audit_creation_date              2020-02-02
_audit_creation_method            'Pymatgen'
_symmetry_space_group_name_H-M    'P1'
_symmetry_Int_Tables_number       1
loop_
_symmetry_equiv_pos_as_xyz
  x,y,z
_cell_length_a                    84.023
_cell_length_b                    84.023
_cell_length_c                    78.5286
_cell_angle_alpha                 90.0
_cell_angle_beta                 90.0
_cell_angle_gamma                 90.0
loop_
_atom_site_label
_atom_site_type_symbol
_atom_site_fract_x
_atom_site_fract_y
_atom_site_fract_z
V1     V     0.4848   0.0068   0.5772
Er2     Er     0.4174   0.959   0.4855
V3     V     0.4848   0.9932   0.9228
Er4     Er     0.4174   0.041   0.0145
Ce5     Ce     0.4239   0.9988   0.6864
Ti6     Ti     0.3398   0.0595   0.7487
Ce7     Ce     0.4239   0.0012   0.8136
Ti8     Ti     0.3398   0.9405   0.7513
V9     V     0.5152   0.9932   0.4228
Er10     Er     0.5826   0.041   0.5145
V11     V     0.5152   0.0068   0.0772
Er12     Er     0.5826   0.959   0.9855
Ce13     Ce     0.5761   0.0012   0.3136
Ti14     Ti     0.6602   0.9405   0.2513
Ce15     Ce     0.5761   0.9988   0.1864
Ti16     Ti     0.6602   0.0595   0.2487
V17     V     0.7568   0.7348   0.6728
Er18     Er     0.709   0.6674   0.7645
V19     V     0.7432   0.7348   0.3272
Er20     Er     0.791   0.6674   0.2355
Ce21     Ce     0.7512   0.6739   0.4364
Ti22     Ti     0.6905   0.5898   0.4987
Ce23     Ce     0.7488   0.6739   0.5636
Ti24     Ti     0.8095   0.5898   0.5013
V25     V     0.7568   0.7652   0.1728
Er26     Er     0.709   0.8326   0.2645
V27     V     0.7432   0.7652   0.8272
Er28     Er     0.791   0.8326   0.7355
Ce29     Ce     0.7512   0.8261   0.9364
Ti30     Ti     0.6905   0.9102   0.9987
Ce31     Ce     0.7488   0.8261   0.0636
Ti32     Ti     0.8095   0.9102   0.0013
V33     V     0.0152   0.9932   0.0772
Er34     Er     0.0826   0.041   0.9855
V35     V     0.0152   0.0068   0.4228
Er36     Er     0.0826   0.959   0.5145
Ce37     Ce     0.0761   0.0012   0.1864
Ti38     Ti     0.1602   0.9405   0.2487
Ce39     Ce     0.0761   0.9988   0.3136
Ti40     Ti     0.1602   0.0595   0.2513
V41     V     0.9848   0.0068   0.9228
Er42     Er     0.9174   0.959   0.0145
V43     V     0.9848   0.9932   0.5772
Er44     Er     0.9174   0.041   0.4855
Ce45     Ce     0.9239   0.0012   0.6864
Ti46     Ti     0.8398   0.9405   0.7487
Ce47     Ce     0.9239   0.9988   0.8136
Ti48     Ti     0.8398   0.0595   0.7513
V49     V     0.2568   0.7348   0.8272
Er50     Er     0.209   0.6674   0.7355
V51     V     0.2432   0.7348   0.1728
Er52     Er     0.291   0.6674   0.2645
Ce53     Ce     0.2488   0.6739   0.9364
Ti54     Ti     0.3095   0.5898   0.9987
Ce55     Ce     0.2512   0.6739   0.0636
Ti56     Ti     0.1905   0.5898   0.0013
V57     V     0.2568   0.7652   0.3272
Er58     Er     0.209   0.8326   0.2355
V59     V     0.2432   0.7652   0.6728
Er60     Er     0.291   0.8326   0.7645
Ce61     Ce     0.2512   0.8261   0.5636
Ti62     Ti     0.1905   0.9102   0.5013
Ce63     Ce     0.2488   0.8261   0.4364
Ti64     Ti     0.3095   0.9102   0.4987
V65     V     0.0152   0.5068   0.5772
Er66     Er     0.0826   0.459   0.4855
V67     V     0.0152   0.4932   0.9228
Er68     Er     0.0826   0.541   0.0145
Ce69     Ce     0.0761   0.4988   0.6864
Ti70     Ti     0.1602   0.5595   0.7487
Ce71     Ce     0.0761   0.5012   0.8136
Ti72     Ti     0.1602   0.4405   0.7513
V73     V     0.9848   0.4932   0.4228
Er74     Er     0.9174   0.541   0.5145
V75     V     0.9848   0.5068   0.0772
Er76     Er     0.9174   0.459   0.9855
Ce77     Ce     0.9239   0.4988   0.1864
Ti78     Ti     0.8398   0.5595   0.2487
Ce79     Ce     0.9239   0.5012   0.3136
Ti80     Ti     0.8398   0.4405   0.2513
V81     V     0.2432   0.2652   0.3272
Er82     Er     0.291   0.3326   0.2355
V83     V     0.2568   0.2652   0.6728
Er84     Er     0.209   0.3326   0.7645
Ce85     Ce     0.2488   0.3261   0.5636
Ti86     Ti     0.3095   0.4102   0.5013
Ce87     Ce     0.2512   0.3261   0.4364
Ti88     Ti     0.1905   0.4102   0.4987
V89     V     0.2432   0.2348   0.8272
Er90     Er     0.291   0.1674   0.7355
V91     V     0.2568   0.2348   0.1728
Er92     Er     0.209   0.1674   0.2645
Ce93     Ce     0.2512   0.1739   0.9364
Ti94     Ti     0.1905   0.0898   0.9987
Ce95     Ce     0.2488   0.1739   0.0636
Ti96     Ti     0.3095   0.0898   0.0013
V97     V     0.7568   0.2652   0.8272
Er98     Er     0.709   0.3326   0.7355
V99     V     0.7432   0.2652   0.1728
Er100     Er     0.791   0.3326   0.2645
Ce101     Ce     0.7512   0.3261   0.0636
Ti102     Ti     0.6905   0.4102   0.0013
Ce103     Ce     0.7488   0.3261   0.9364
Ti104     Ti     0.8095   0.4102   0.9987
V105     V     0.7568   0.2348   0.3272
Er106     Er     0.709   0.1674   0.2355
V107     V     0.7432   0.2348   0.6728
Er108     Er     0.791   0.1674   0.7645
Ce109     Ce     0.7512   0.1739   0.5636
Ti110     Ti     0.6905   0.0898   0.5013
Ce111     Ce     0.7488   0.1739   0.4364
Ti112     Ti     0.8095   0.0898   0.4987
V113     V     0.4848   0.4932   0.0772
Er114     Er     0.4174   0.541   0.9855
V115     V     0.4848   0.5068   0.4228
Er116     Er     0.4174   0.459   0.5145
Ce117     Ce     0.4239   0.4988   0.3136
Ti118     Ti     0.3398   0.5595   0.2513
Ce119     Ce     0.4239   0.5012   0.1864
Ti120     Ti     0.3398   0.4405   0.2487
V121     V     0.5152   0.4932   0.5772
Er122     Er     0.5826   0.541   0.4855
V123     V     0.5152   0.5068   0.9228
Er124     Er     0.5826   0.459   0.0145
Ce125     Ce     0.5761   0.5012   0.6864
Ti126     Ti     0.6602   0.4405   0.7487
Ce127     Ce     0.5761   0.4988   0.8136
Ti128     Ti     0.6602   0.5595   0.7513
loop_
_geom_bond_atom_site_label_1
_geom_bond_atom_site_label_2
_geom_bond_distance
_geom_bond_site_symmetry_2
_ccdc_geom_bond_type
V1     Er2    9.998   1_545     S
V1     Ce5    10.003   1_545     S
V1     Er10    10.003   .     S
Er2     V1    9.998   1_565     S
Er2     V9    10.003   .     S
Er2     Ti64    10.008   .     S
V3     Er4    9.998   1_566     S
V3     Ce7    10.003   1_565     S
V3     Er12    10.003   .     S
Er4     V3    9.998   1_544     S
Er4     V11    10.003   .     S
Er4     Ti96    10.008   .     S
Ce5     Ti6    9.993   1_565     S
Ce5     Ce7    9.997   1_565     S
Ce5     Ti8    9.996   .     S
Ce5     V1    10.003   1_565     S
Ti6     Ce5    9.993   1_545     S
Ti6     Ce7    9.996   .     S
Ti6     Ti8    10.001   1_545     S
Ti6     Er90    10.008   .     S
Ce7     Ce5    9.997   1_545     S
Ce7     Ti8    9.993   1_545     S
Ce7     V3    10.003   1_545     S
Ti8     Ti6    10.001   1_565     S
Ti8     Ce7    9.993   1_565     S
Ti8     Er60    10.008   .     S
V9     Er10    9.998   1_565     S
V9     Ce13    10.003   1_565     S
Er10     V9    9.998   1_545     S
Er10     Ti110    10.008   .     S
V11     Er12    9.998   1_544     S
V11     Ce15    10.003   1_545     S
Er12     V11    9.998   1_566     S
Er12     Ti30    10.008   .     S
Ce13     Ti14    9.993   1_545     S
Ce13     Ce15    9.997   1_545     S
Ce13     Ti16    9.996   .     S
Ce13     V9    10.003   1_545     S
Ti14     Ce13    9.993   1_565     S
Ti14     Ce15    9.996   .     S
Ti14     Ti16    10.001   1_565     S
Ti14     Er26    10.008   .     S
Ce15     Ce13    9.997   1_565     S
Ce15     Ti16    9.993   1_565     S
Ce15     V11    10.003   1_565     S
Ti16     Ti14    10.001   1_545     S
Ti16     Ce15    9.993   1_545     S
Ti16     Er106    10.008   .     S
V17     Er18    9.998   .     S
V17     Ce23    10.003   .     S
V17     Er28    10.003   .     S
Er18     V27    10.003   .     S
Er18     Ti128    10.008   .     S
V19     Er20    9.998   .     S
V19     Ce21    10.003   .     S
V19     Er26    10.003   .     S
Er20     V25    10.003   .     S
Er20     Ti78    10.008   .     S
Ce21     Ti22    9.993   .     S
Ce21     Ce23    9.997   .     S
Ce21     Ti24    9.996   .     S
Ti22     Ce23    9.996   .     S
Ti22     Ti24    10.001   .     S
Ti22     Er122    10.008   .     S
Ce23     Ti24    9.993   .     S
Ti24     Er74    10.008   .     S
V25     Er26    9.998   .     S
V25     Ce31    10.003   .     S
V27     Er28    9.998   .     S
V27     Ce29    10.003   .     S
Er28     Ti46    10.008   .     S
Ce29     Ti30    9.993   .     S
Ce29     Ce31    9.997   1_556     S
Ce29     Ti32    9.996   1_556     S
Ti30     Ce31    9.996   1_556     S
Ti30     Ti32    10.001   1_556     S
Ce31     Ce29    9.997   1_554     S
Ce31     Ti30    9.996   1_554     S
Ce31     Ti32    9.993   .     S
Ti32     Ti30    10.001   1_554     S
Ti32     Ce29    9.996   1_554     S
Ti32     Er42    10.008   .     S
V33     Er34    9.998   1_564     S
V33     Ce37    10.003   1_565     S
V33     Er42    10.003   1_455     S
Er34     V33    9.998   1_546     S
Er34     V41    10.003   1_455     S
Er34     Ti94    10.008   .     S
V35     Er36    9.998   1_545     S
V35     Ce39    10.003   1_545     S
V35     Er44    10.003   1_455     S
Er36     V35    9.998   1_565     S
Er36     V43    10.003   1_455     S
Er36     Ti62    10.008   .     S
Ce37     Ti38    9.993   1_545     S
Ce37     Ti40    9.996   .     S
Ce37     Ce39    9.997   1_545     S
Ce37     V33    10.003   1_545     S
Ti38     Ce37    9.993   1_565     S
Ti38     Ti40    10.001   1_565     S
Ti38     Ce39    9.996   .     S
Ti38     Er58    10.008   .     S
Ce39     Ce37    9.997   1_565     S
Ce39     Ti40    9.993   1_565     S
Ce39     V35    10.003   1_565     S
Ti40     Ti38    10.001   1_545     S
Ti40     Ce39    9.993   1_545     S
Ti40     Er92    10.008   .     S
V41     Er34    10.003   1_655     S
V41     Er42    9.998   1_546     S
V41     Ce47    10.003   1_545     S
Er42     V41    9.998   1_564     S
Er42     V33    10.003   1_655     S
V43     Er36    10.003   1_655     S
V43     Er44    9.998   1_565     S
V43     Ce45    10.003   1_565     S
Er44     V43    9.998   1_545     S
Er44     V35    10.003   1_655     S
Er44     Ti112    10.008   .     S
Ce45     Ti46    9.993   1_545     S
Ce45     Ce47    9.997   1_545     S
Ce45     Ti48    9.996   .     S
Ce45     V43    10.003   1_545     S
Ti46     Ce45    9.993   1_565     S
Ti46     Ce47    9.996   .     S
Ti46     Ti48    10.001   1_565     S
Ce47     Ce45    9.997   1_565     S
Ce47     Ti48    9.993   1_565     S
Ce47     V41    10.003   1_565     S
Ti48     Ti46    10.001   1_545     S
Ti48     Ce47    9.993   1_545     S
Ti48     Er108    10.008   .     S
V49     Er50    9.998   .     S
V49     Ce53    10.003   .     S
V49     Er60    10.003   .     S
Er50     V59    10.003   .     S
Er50     Ti70    10.008   .     S
V51     Er52    9.998   .     S
V51     Ce55    10.003   .     S
V51     Er58    10.003   .     S
Er52     V57    10.003   .     S
Er52     Ti118    10.008   .     S
Ce53     Ti54    9.993   .     S
Ce53     Ce55    9.997   1_556     S
Ce53     Ti56    9.996   1_556     S
Ti54     Ce55    9.996   1_556     S
Ti54     Ti56    10.001   1_556     S
Ti54     Er114    10.008   .     S
Ce55     Ce53    9.997   1_554     S
Ce55     Ti54    9.996   1_554     S
Ce55     Ti56    9.993   .     S
Ti56     Ce53    9.996   1_554     S
Ti56     Ti54    10.001   1_554     S
Ti56     Er68    10.008   .     S
V57     Er58    9.998   .     S
V57     Ce63    10.003   .     S
V59     Er60    9.998   .     S
V59     Ce61    10.003   .     S
Ce61     Ti62    9.993   .     S
Ce61     Ce63    9.997   .     S
Ce61     Ti64    9.996   .     S
Ti62     Ce63    9.996   .     S
Ti62     Ti64    10.001   .     S
Ce63     Ti64    9.993   .     S
V65     Er66    9.998   .     S
V65     Ce69    10.003   .     S
V65     Er74    10.003   1_455     S
Er66     V73    10.003   1_455     S
Er66     Ti88    10.008   .     S
V67     Er68    9.998   1_556     S
V67     Ce71    10.003   .     S
V67     Er76    10.003   1_455     S
Er68     V67    9.998   1_554     S
Er68     V75    10.003   1_455     S
Ce69     Ti70    9.993   .     S
Ce69     Ce71    9.997   .     S
Ce69     Ti72    9.996   .     S
Ti70     Ce71    9.996   .     S
Ti70     Ti72    10.001   .     S
Ce71     Ti72    9.993   .     S
Ti72     Er84    10.008   .     S
V73     Er66    10.003   1_655     S
V73     Er74    9.998   .     S
V73     Ce79    10.003   .     S
Er74     V65    10.003   1_655     S
V75     Er68    10.003   1_655     S
V75     Er76    9.998   1_554     S
V75     Ce77    10.003   .     S
Er76     V75    9.998   1_556     S
Er76     V67    10.003   1_655     S
Er76     Ti104    10.008   .     S
Ce77     Ti78    9.993   .     S
Ce77     Ce79    9.997   .     S
Ce77     Ti80    9.996   .     S
Ti78     Ce79    9.996   .     S
Ti78     Ti80    10.001   .     S
Ce79     Ti80    9.993   .     S
Ti80     Er100    10.008   .     S
V81     Er82    9.998   .     S
V81     Ce87    10.003   .     S
V81     Er92    10.003   .     S
Er82     V91    10.003   .     S
Er82     Ti120    10.008   .     S
V83     Er84    9.998   .     S
V83     Ce85    10.003   .     S
V83     Er90    10.003   .     S
Er84     V89    10.003   .     S
Ce85     Ti86    9.993   .     S
Ce85     Ce87    9.997   .     S
Ce85     Ti88    9.996   .     S
Ti86     Ce87    9.996   .     S
Ti86     Ti88    10.001   .     S
Ti86     Er116    10.008   .     S
Ce87     Ti88    9.993   .     S
V89     Er90    9.998   .     S
V89     Ce93    10.003   .     S
V91     Er92    9.998   .     S
V91     Ce95    10.003   .     S
Ce93     Ti94    9.993   .     S
Ce93     Ce95    9.997   1_556     S
Ce93     Ti96    9.996   1_556     S
Ti94     Ce95    9.996   1_556     S
Ti94     Ti96    10.001   1_556     S
Ce95     Ce93    9.997   1_554     S
Ce95     Ti94    9.996   1_554     S
Ce95     Ti96    9.993   .     S
Ti96     Ti94    10.001   1_554     S
Ti96     Ce93    9.996   1_554     S
V97     Er98    9.998   .     S
V97     Ce103    10.003   .     S
V97     Er108    10.003   .     S
Er98     V107    10.003   .     S
Er98     Ti126    10.008   .     S
V99     Er100    9.998   .     S
V99     Ce101    10.003   .     S
V99     Er106    10.003   .     S
Er100     V105    10.003   .     S
Ce101     Ti102    9.993   .     S
Ce101     Ce103    9.997   1_554     S
Ce101     Ti104    9.996   1_554     S
Ti102     Ce103    9.996   1_554     S
Ti102     Ti104    10.001   1_554     S
Ti102     Er124    10.008   .     S
Ce103     Ce101    9.997   1_556     S
Ce103     Ti102    9.996   1_556     S
Ce103     Ti104    9.993   .     S
Ti104     Ce101    9.996   1_556     S
Ti104     Ti102    10.001   1_556     S
V105     Er106    9.998   .     S
V105     Ce111    10.003   .     S
V107     Er108    9.998   .     S
V107     Ce109    10.003   .     S
Ce109     Ti110    9.993   .     S
Ce109     Ce111    9.997   .     S
Ce109     Ti112    9.996   .     S
Ti110     Ce111    9.996   .     S
Ti110     Ti112    10.001   .     S
Ce111     Ti112    9.993   .     S
V113     Er114    9.998   1_554     S
V113     Ce119    10.003   .     S
V113     Er124    10.003   .     S
Er114     V113    9.998   1_556     S
Er114     V123    10.003   .     S
V115     Er116    9.998   .     S
V115     Ce117    10.003   .     S
V115     Er122    10.003   .     S
Er116     V121    10.003   .     S
Ce117     Ti118    9.993   .     S
Ce117     Ce119    9.997   .     S
Ce117     Ti120    9.996   .     S
Ti118     Ce119    9.996   .     S
Ti118     Ti120    10.001   .     S
Ce119     Ti120    9.993   .     S
V121     Er122    9.998   .     S
V121     Ce125    10.003   .     S
V123     Er124    9.998   1_556     S
V123     Ce127    10.003   .     S
Er124     V123    9.998   1_554     S
Ce125     Ti126    9.993   .     S
Ce125     Ce127    9.997   .     S
Ce125     Ti128    9.996   .     S
Ti126     Ce127    9.996   .     S
Ti126     Ti128    10.001   .     S
Ce127     Ti128    9.993   .     S
