data_ucw
_audit_creation_date              2020-02-02
_audit_creation_method            'Pymatgen'
_symmetry_space_group_name_H-M    'P1'
_symmetry_Int_Tables_number       1
loop_
_symmetry_equiv_pos_as_xyz
  x,y,z
_cell_length_a                    73.9802
_cell_length_b                    73.9802
_cell_length_c                    73.9802
_cell_angle_alpha                 90.0
_cell_angle_beta                 90.0
_cell_angle_gamma                 90.0
loop_
_atom_site_label
_atom_site_type_symbol
_atom_site_fract_x
_atom_site_fract_y
_atom_site_fract_z
V1     V     0.5   0.5677   0.9326
V2     V     0.5   0.5677   0.0674
V3     V     0.5677   0.9326   0.5
V4     V     0.5677   0.0674   0.5
V5     V     0.9326   0.5   0.5677
V6     V     0.0674   0.5   0.5677
V7     V     0.5   0.4323   0.9326
V8     V     0.5   0.4323   0.0674
V9     V     0.4323   0.9326   0.5
V10     V     0.4323   0.0674   0.5
V11     V     0.9326   0.5   0.4323
V12     V     0.0674   0.5   0.4323
Ti13     Ti     0.6152   0.3612   0.9324
Er14     Er     0.73   0.4324   0.9324
Ti15     Ti     0.6152   0.3612   0.0676
Er16     Er     0.73   0.4324   0.0676
Ti17     Ti     0.6152   0.6388   0.9324
Er18     Er     0.73   0.5676   0.9324
Ti19     Ti     0.6152   0.6388   0.0676
Er20     Er     0.73   0.5676   0.0676
Ti21     Ti     0.3612   0.9324   0.6152
Er22     Er     0.4324   0.9324   0.73
Ti23     Ti     0.3612   0.0676   0.6152
Er24     Er     0.4324   0.0676   0.73
Ti25     Ti     0.6388   0.9324   0.6152
Er26     Er     0.5676   0.9324   0.73
Ti27     Ti     0.6388   0.0676   0.6152
Er28     Er     0.5676   0.0676   0.73
Ti29     Ti     0.9324   0.6152   0.3612
Er30     Er     0.9324   0.73   0.4324
Ti31     Ti     0.0676   0.6152   0.3612
Er32     Er     0.0676   0.73   0.4324
Ti33     Ti     0.9324   0.6152   0.6388
Er34     Er     0.9324   0.73   0.5676
Ti35     Ti     0.0676   0.6152   0.6388
Er36     Er     0.0676   0.73   0.5676
Ti37     Ti     0.3849   0.3612   0.9324
Er38     Er     0.27   0.4324   0.9324
Ti39     Ti     0.3849   0.3612   0.0676
Er40     Er     0.27   0.4324   0.0676
Ti41     Ti     0.3849   0.6388   0.9324
Er42     Er     0.27   0.5676   0.9324
Ti43     Ti     0.3849   0.6388   0.0676
Er44     Er     0.27   0.5676   0.0676
Ti45     Ti     0.3612   0.9324   0.3849
Er46     Er     0.4324   0.9324   0.27
Ti47     Ti     0.3612   0.0676   0.3849
Er48     Er     0.4324   0.0676   0.27
Ti49     Ti     0.6388   0.9324   0.3849
Er50     Er     0.5676   0.9324   0.27
Ti51     Ti     0.6388   0.0676   0.3849
Er52     Er     0.5676   0.0676   0.27
S53     S     0.1536   0.2608   0.9324
H54     H     0.2549   0.1716   0.9324
Ce55     Ce     0.2167   0.3431   0.8459
He56     He     0.3244   0.263   0.8615
S57     S     0.2608   0.0676   0.8464
H58     H     0.1716   0.0676   0.7451
Ce59     Ce     0.3431   0.1541   0.7833
He60     He     0.263   0.1385   0.6756
S61     S     0.0676   0.1536   0.7392
H62     H     0.0676   0.2549   0.8284
Ce63     Ce     0.1541   0.2167   0.6569
He64     He     0.1385   0.3244   0.737
S65     S     0.1536   0.7392   0.9324
H66     H     0.2549   0.8284   0.9324
Ce67     Ce     0.2167   0.6569   0.8459
He68     He     0.3244   0.737   0.8615
S69     S     0.2608   0.9324   0.8464
H70     H     0.1716   0.9324   0.7451
Ce71     Ce     0.3431   0.8459   0.7833
He72     He     0.263   0.8615   0.6756
S73     S     0.0676   0.8464   0.7392
H74     H     0.0676   0.7451   0.8284
Ce75     Ce     0.1541   0.7833   0.6569
He76     He     0.1385   0.6756   0.737
S77     S     0.2608   0.9324   0.1536
H78     H     0.1716   0.9324   0.2549
Ce79     Ce     0.3431   0.8459   0.2167
He80     He     0.263   0.8615   0.3244
S81     S     0.0676   0.8464   0.2608
H82     H     0.0676   0.7451   0.1716
Ce83     Ce     0.1541   0.7833   0.3431
He84     He     0.1385   0.6756   0.263
S85     S     0.1536   0.7392   0.0676
H86     H     0.2549   0.8284   0.0676
Ce87     Ce     0.2167   0.6569   0.1541
He88     He     0.3244   0.737   0.1385
S89     S     0.8464   0.7392   0.9324
H90     H     0.7451   0.8284   0.9324
Ce91     Ce     0.7833   0.6569   0.8459
He92     He     0.6756   0.737   0.8615
S93     S     0.7392   0.9324   0.8464
H94     H     0.8284   0.9324   0.7451
Ce95     Ce     0.6569   0.8459   0.7833
He96     He     0.737   0.8615   0.6756
S97     S     0.9324   0.8464   0.7392
H98     H     0.9324   0.7451   0.8284
Ce99     Ce     0.8459   0.7833   0.6569
He100     He     0.8615   0.6756   0.737
S101     S     0.9324   0.1536   0.7392
H102     H     0.9324   0.2549   0.8284
Ce103     Ce     0.8459   0.2167   0.6569
He104     He     0.8615   0.3244   0.737
S105     S     0.8464   0.2608   0.9324
H106     H     0.7451   0.1716   0.9324
Ce107     Ce     0.7833   0.3431   0.8459
He108     He     0.6756   0.263   0.8615
S109     S     0.7392   0.0676   0.8464
H110     H     0.8284   0.0676   0.7451
Ce111     Ce     0.6569   0.1541   0.7833
He112     He     0.737   0.1385   0.6756
S113     S     0.7392   0.9324   0.1536
H114     H     0.8284   0.9324   0.2549
Ce115     Ce     0.6569   0.8459   0.2167
He116     He     0.737   0.8615   0.3244
S117     S     0.9324   0.8464   0.2608
H118     H     0.9324   0.7451   0.1716
Ce119     Ce     0.8459   0.7833   0.3431
He120     He     0.8615   0.6756   0.263
S121     S     0.8464   0.7392   0.0676
H122     H     0.7451   0.8284   0.0676
Ce123     Ce     0.7833   0.6569   0.1541
He124     He     0.6756   0.737   0.1385
S125     S     0.2608   0.0676   0.1536
H126     H     0.1716   0.0676   0.2549
Ce127     Ce     0.3431   0.1541   0.2167
He128     He     0.263   0.1385   0.3244
S129     S     0.0676   0.1536   0.2608
H130     H     0.0676   0.2549   0.1716
Ce131     Ce     0.1541   0.2167   0.3431
He132     He     0.1385   0.3244   0.263
S133     S     0.1536   0.2608   0.0676
H134     H     0.2549   0.1716   0.0676
Ce135     Ce     0.2167   0.3431   0.1541
He136     He     0.3244   0.263   0.1385
S137     S     0.9324   0.1536   0.2608
H138     H     0.9324   0.2549   0.1716
Ce139     Ce     0.8459   0.2167   0.3431
He140     He     0.8615   0.3244   0.263
S141     S     0.8464   0.2608   0.0676
H142     H     0.7451   0.1716   0.0676
Ce143     Ce     0.7833   0.3431   0.1541
He144     He     0.6756   0.263   0.1385
S145     S     0.7392   0.0676   0.1536
H146     H     0.8284   0.0676   0.2549
Ce147     Ce     0.6569   0.1541   0.2167
He148     He     0.737   0.1385   0.3244
Ti149     Ti     0.9324   0.3849   0.3612
Er150     Er     0.9324   0.27   0.4324
Ti151     Ti     0.0676   0.3849   0.3612
Er152     Er     0.0676   0.27   0.4324
Ti153     Ti     0.9324   0.3849   0.6388
Er154     Er     0.9324   0.27   0.5676
Ti155     Ti     0.0676   0.3849   0.6388
Er156     Er     0.0676   0.27   0.5676
loop_
_geom_bond_atom_site_label_1
_geom_bond_atom_site_label_2
_geom_bond_distance
_geom_bond_site_symmetry_2
_ccdc_geom_bond_type
V1     V2    9.978   1_556     S
V1     Ti41    10.012   .     S
V1     Ti17    10.012   .     S
V1     V7    10.014   .     S
V2     V1    9.978   1_554     S
V2     Ti19    10.012   .     S
V2     Ti43    10.012   .     S
V2     V8    10.014   .     S
V3     V4    9.978   1_565     S
V3     Ti49    10.012   .     S
V3     Ti25    10.012   .     S
V3     V9    10.014   .     S
V4     V3    9.978   1_545     S
V4     Ti27    10.012   .     S
V4     Ti51    10.012   .     S
V4     V10    10.014   .     S
V5     V6    9.978   1_655     S
V5     Ti153    10.012   .     S
V5     Ti33    10.012   .     S
V5     V11    10.014   .     S
V6     V5    9.978   1_455     S
V6     Ti35    10.012   .     S
V6     Ti155    10.012   .     S
V6     V12    10.014   .     S
V7     V8    9.978   1_556     S
V7     Ti13    10.012   .     S
V7     Ti37    10.012   .     S
V8     V7    9.978   1_554     S
V8     Ti39    10.012   .     S
V8     Ti15    10.012   .     S
V9     V10    9.978   1_565     S
V9     Ti21    10.012   .     S
V9     Ti45    10.012   .     S
V10     V9    9.978   1_545     S
V10     Ti47    10.012   .     S
V10     Ti23    10.012   .     S
V11     V12    9.978   1_655     S
V11     Ti29    10.012   .     S
V11     Ti149    10.012   .     S
V12     V11    9.978   1_455     S
V12     Ti151    10.012   .     S
V12     Ti31    10.012   .     S
Ti13     Er14    9.994   .     S
Ti13     Ti15    9.996   1_556     S
Ti13     He108    10.013   .     S
Er14     Er16    9.999   1_556     S
Er14     Er18    10.008   .     S
Er14     Ce107    10.011   .     S
Ti15     Er16    9.994   .     S
Ti15     Ti13    9.996   1_554     S
Ti15     He144    10.013   .     S
Er16     Er14    9.999   1_554     S
Er16     Er20    10.008   .     S
Er16     Ce143    10.011   .     S
Ti17     Er18    9.994   .     S
Ti17     Ti19    9.996   1_556     S
Ti17     He92    10.013   .     S
Er18     Er20    9.999   1_556     S
Er18     Ce91    10.011   .     S
Ti19     Er20    9.994   .     S
Ti19     Ti17    9.996   1_554     S
Ti19     He124    10.013   .     S
Er20     Er18    9.999   1_554     S
Er20     Ce123    10.011   .     S
Ti21     Er22    9.994   .     S
Ti21     Ti23    9.996   1_565     S
Ti21     He72    10.013   .     S
Er22     Er24    9.999   1_565     S
Er22     Er26    10.008   .     S
Er22     Ce71    10.011   .     S
Ti23     Er24    9.994   .     S
Ti23     Ti21    9.996   1_545     S
Ti23     He60    10.013   .     S
Er24     Er22    9.999   1_545     S
Er24     Er28    10.008   .     S
Er24     Ce59    10.011   .     S
Ti25     Er26    9.994   .     S
Ti25     Ti27    9.996   1_565     S
Ti25     He96    10.013   .     S
Er26     Er28    9.999   1_565     S
Er26     Ce95    10.011   .     S
Ti27     Er28    9.994   .     S
Ti27     Ti25    9.996   1_545     S
Ti27     He112    10.013   .     S
Er28     Er26    9.999   1_545     S
Er28     Ce111    10.011   .     S
Ti29     Er30    9.994   .     S
Ti29     Ti31    9.996   1_655     S
Ti29     He120    10.013   .     S
Er30     Er32    9.999   1_655     S
Er30     Er34    10.008   .     S
Er30     Ce119    10.011   .     S
Ti31     Er32    9.994   .     S
Ti31     Ti29    9.996   1_455     S
Ti31     He84    10.013   .     S
Er32     Er30    9.999   1_455     S
Er32     Er36    10.008   .     S
Er32     Ce83    10.011   .     S
Ti33     Er34    9.994   .     S
Ti33     Ti35    9.996   1_655     S
Ti33     He100    10.013   .     S
Er34     Er36    9.999   1_655     S
Er34     Ce99    10.011   .     S
Ti35     Er36    9.994   .     S
Ti35     Ti33    9.996   1_455     S
Ti35     He76    10.013   .     S
Er36     Er34    9.999   1_455     S
Er36     Ce75    10.011   .     S
Ti37     Er38    9.994   .     S
Ti37     Ti39    9.996   1_556     S
Ti37     He56    10.013   .     S
Er38     Er40    9.999   1_556     S
Er38     Er42    10.008   .     S
Er38     Ce55    10.011   .     S
Ti39     Er40    9.994   .     S
Ti39     Ti37    9.996   1_554     S
Ti39     He136    10.013   .     S
Er40     Er38    9.999   1_554     S
Er40     Er44    10.008   .     S
Er40     Ce135    10.011   .     S
Ti41     Er42    9.994   .     S
Ti41     Ti43    9.996   1_556     S
Ti41     He68    10.013   .     S
Er42     Er44    9.999   1_556     S
Er42     Ce67    10.011   .     S
Ti43     Er44    9.994   .     S
Ti43     Ti41    9.996   1_554     S
Ti43     He88    10.013   .     S
Er44     Er42    9.999   1_554     S
Er44     Ce87    10.011   .     S
Ti45     Er46    9.994   .     S
Ti45     Ti47    9.996   1_565     S
Ti45     He80    10.013   .     S
Er46     Er48    9.999   1_565     S
Er46     Er50    10.008   .     S
Er46     Ce79    10.011   .     S
Ti47     Er48    9.994   .     S
Ti47     Ti45    9.996   1_545     S
Ti47     He128    10.013   .     S
Er48     Er46    9.999   1_545     S
Er48     Er52    10.008   .     S
Er48     Ce127    10.011   .     S
Ti49     Er50    9.994   .     S
Ti49     Ti51    9.996   1_565     S
Ti49     He116    10.013   .     S
Er50     Er52    9.999   1_565     S
Er50     Ce115    10.011   .     S
Ti51     Er52    9.994   .     S
Ti51     Ti49    9.996   1_545     S
Ti51     He148    10.013   .     S
Er52     Er50    9.999   1_545     S
Er52     Ce147    10.011   .     S
S53     H54    9.987   .     S
S53     Ce55    9.99   .     S
S53     H62    9.996   .     S
S53     S133    9.999   1_556     S
H54     He56    9.989   .     S
H54     S57    9.996   .     S
H54     H134    9.996   1_556     S
Ce55     He56    9.997   .     S
Ce55     He64    10.013   .     S
He56     Ce59    10.013   .     S
S57     H58    9.987   .     S
S57     Ce59    9.99   .     S
S57     S69    9.999   1_545     S
H58     He60    9.989   .     S
H58     S61    9.996   .     S
H58     H70    9.996   1_545     S
Ce59     He60    9.997   .     S
He60     Ce63    10.013   .     S
S61     H62    9.987   .     S
S61     Ce63    9.99   .     S
S61     S101    9.999   1_455     S
H62     He64    9.989   .     S
H62     H102    9.996   1_455     S
Ce63     He64    9.997   .     S
Ce63     Er156    10.011   .     S
He64     Ti155    10.013   .     S
S65     H66    9.987   .     S
S65     Ce67    9.99   .     S
S65     H74    9.996   .     S
S65     S85    9.999   1_556     S
H66     He68    9.989   .     S
H66     S69    9.996   .     S
H66     H86    9.996   1_556     S
Ce67     He68    9.997   .     S
Ce67     He76    10.013   .     S
He68     Ce71    10.013   .     S
S69     H70    9.987   .     S
S69     Ce71    9.99   .     S
S69     S57    9.999   1_565     S
H70     H58    9.996   1_565     S
H70     He72    9.989   .     S
H70     S73    9.996   .     S
Ce71     He72    9.997   .     S
He72     Ce75    10.013   .     S
S73     H74    9.987   .     S
S73     Ce75    9.99   .     S
S73     S97    9.999   1_455     S
H74     He76    9.989   .     S
H74     H98    9.996   1_455     S
Ce75     He76    9.997   .     S
S77     H78    9.987   .     S
S77     Ce79    9.99   .     S
S77     H86    9.996   .     S
S77     S125    9.999   1_565     S
H78     He80    9.989   .     S
H78     S81    9.996   .     S
H78     H126    9.996   1_565     S
Ce79     He80    9.997   .     S
Ce79     He88    10.013   .     S
He80     Ce83    10.013   .     S
S81     H82    9.987   .     S
S81     Ce83    9.99   .     S
S81     S117    9.999   1_455     S
H82     He84    9.989   .     S
H82     S85    9.996   .     S
H82     H118    9.996   1_455     S
Ce83     He84    9.997   .     S
He84     Ce87    10.013   .     S
S85     H86    9.987   .     S
S85     Ce87    9.99   .     S
S85     S65    9.999   1_554     S
H86     He88    9.989   .     S
H86     H66    9.996   1_554     S
Ce87     He88    9.997   .     S
S89     H90    9.987   .     S
S89     Ce91    9.99   .     S
S89     H98    9.996   .     S
S89     S121    9.999   1_556     S
H90     He92    9.989   .     S
H90     S93    9.996   .     S
H90     H122    9.996   1_556     S
Ce91     He92    9.997   .     S
Ce91     He100    10.013   .     S
He92     Ce95    10.013   .     S
S93     H94    9.987   .     S
S93     Ce95    9.99   .     S
S93     S109    9.999   1_565     S
H94     He96    9.989   .     S
H94     S97    9.996   .     S
H94     H110    9.996   1_565     S
Ce95     He96    9.997   .     S
He96     Ce99    10.013   .     S
S97     H98    9.987   .     S
S97     Ce99    9.99   .     S
S97     S73    9.999   1_655     S
H98     H74    9.996   1_655     S
H98     He100    9.989   .     S
Ce99     He100    9.997   .     S
S101     H102    9.987   .     S
S101     Ce103    9.99   .     S
S101     H110    9.996   .     S
S101     S61    9.999   1_655     S
H102     H62    9.996   1_655     S
H102     He104    9.989   .     S
H102     S105    9.996   .     S
Ce103     He104    9.997   .     S
Ce103     Er154    10.011   .     S
Ce103     He112    10.013   .     S
He104     Ti153    10.013   .     S
He104     Ce107    10.013   .     S
S105     H106    9.987   .     S
S105     Ce107    9.99   .     S
S105     S141    9.999   1_556     S
H106     He108    9.989   .     S
H106     S109    9.996   .     S
H106     H142    9.996   1_556     S
Ce107     He108    9.997   .     S
He108     Ce111    10.013   .     S
S109     H110    9.987   .     S
S109     Ce111    9.99   .     S
S109     S93    9.999   1_545     S
H110     He112    9.989   .     S
H110     H94    9.996   1_545     S
Ce111     He112    9.997   .     S
S113     H114    9.987   .     S
S113     Ce115    9.99   .     S
S113     H122    9.996   .     S
S113     S145    9.999   1_565     S
H114     He116    9.989   .     S
H114     S117    9.996   .     S
H114     H146    9.996   1_565     S
Ce115     He116    9.997   .     S
Ce115     He124    10.013   .     S
He116     Ce119    10.013   .     S
S117     H118    9.987   .     S
S117     Ce119    9.99   .     S
S117     S81    9.999   1_655     S
H118     H82    9.996   1_655     S
H118     He120    9.989   .     S
H118     S121    9.996   .     S
Ce119     He120    9.997   .     S
He120     Ce123    10.013   .     S
S121     H122    9.987   .     S
S121     Ce123    9.99   .     S
S121     S89    9.999   1_554     S
H122     He124    9.989   .     S
H122     H90    9.996   1_554     S
Ce123     He124    9.997   .     S
S125     H126    9.987   .     S
S125     Ce127    9.99   .     S
S125     H134    9.996   .     S
S125     S77    9.999   1_545     S
H126     He128    9.989   .     S
H126     S129    9.996   .     S
H126     H78    9.996   1_545     S
Ce127     He128    9.997   .     S
Ce127     He136    10.013   .     S
He128     Ce131    10.013   .     S
S129     H130    9.987   .     S
S129     Ce131    9.99   .     S
S129     S137    9.999   1_455     S
H130     He132    9.989   .     S
H130     S133    9.996   .     S
H130     H138    9.996   1_455     S
Ce131     He132    9.997   .     S
Ce131     Er152    10.011   .     S
He132     Ti151    10.013   .     S
He132     Ce135    10.013   .     S
S133     H134    9.987   .     S
S133     Ce135    9.99   .     S
S133     S53    9.999   1_554     S
H134     He136    9.989   .     S
H134     H54    9.996   1_554     S
Ce135     He136    9.997   .     S
S137     H138    9.987   .     S
S137     Ce139    9.99   .     S
S137     H146    9.996   .     S
S137     S129    9.999   1_655     S
H138     H130    9.996   1_655     S
H138     He140    9.989   .     S
H138     S141    9.996   .     S
Ce139     He140    9.997   .     S
Ce139     Er150    10.011   .     S
Ce139     He148    10.013   .     S
He140     Ti149    10.013   .     S
He140     Ce143    10.013   .     S
S141     H142    9.987   .     S
S141     Ce143    9.99   .     S
S141     S105    9.999   1_554     S
H142     He144    9.989   .     S
H142     S145    9.996   .     S
H142     H106    9.996   1_554     S
Ce143     He144    9.997   .     S
He144     Ce147    10.013   .     S
S145     H146    9.987   .     S
S145     Ce147    9.99   .     S
S145     S113    9.999   1_545     S
H146     He148    9.989   .     S
H146     H114    9.996   1_545     S
Ce147     He148    9.997   .     S
Ti149     Er150    9.994   .     S
Ti149     Ti151    9.996   1_655     S
Er150     Er152    9.999   1_655     S
Er150     Er154    10.008   .     S
Ti151     Er152    9.994   .     S
Ti151     Ti149    9.996   1_455     S
Er152     Er150    9.999   1_455     S
Er152     Er156    10.008   .     S
Ti153     Er154    9.994   .     S
Ti153     Ti155    9.996   1_655     S
Er154     Er156    9.999   1_655     S
Ti155     Er156    9.994   .     S
Ti155     Ti153    9.996   1_455     S
Er156     Er154    9.999   1_455     S
