data_uka
_audit_creation_date              2020-02-02
_audit_creation_method            'Pymatgen'
_symmetry_space_group_name_H-M    'P1'
_symmetry_Int_Tables_number       1
loop_
_symmetry_equiv_pos_as_xyz
  x,y,z
_cell_length_a                    40.8722
_cell_length_b                    40.8722
_cell_length_c                    28.6425
_cell_angle_alpha                 90.0
_cell_angle_beta                 90.0
_cell_angle_gamma                 90.0
loop_
_atom_site_label
_atom_site_type_symbol
_atom_site_fract_x
_atom_site_fract_y
_atom_site_fract_z
V1     V     0.4731   0.3811   0.0143
V2     V     0.5269   0.6189   0.9857
V3     V     0.9731   0.3811   0.4857
V4     V     0.0269   0.6189   0.5143
V5     V     0.6311   0.2769   0.2357
V6     V     0.8689   0.2231   0.2643
V7     V     0.5269   0.1189   0.0143
V8     V     0.4731   0.8811   0.9857
V9     V     0.8689   0.7231   0.7357
V10     V     0.6311   0.7769   0.7643
V11     V     0.0269   0.1189   0.4857
V12     V     0.9731   0.8811   0.5143
V13     V     0.1311   0.7769   0.7357
V14     V     0.3689   0.7231   0.7643
V15     V     0.1311   0.2769   0.2643
V16     V     0.3689   0.2231   0.2357
V17     V     0.8689   0.7769   0.2357
V18     V     0.6311   0.7231   0.2643
V19     V     0.9731   0.1189   0.9857
V20     V     0.0269   0.8811   0.0143
V21     V     0.0269   0.3811   0.9857
V22     V     0.9731   0.6189   0.0143
V23     V     0.1311   0.7231   0.2357
V24     V     0.3689   0.7769   0.2643
V25     V     0.4731   0.1189   0.5143
V26     V     0.5269   0.8811   0.4857
V27     V     0.1311   0.2231   0.7643
V28     V     0.3689   0.2769   0.7357
V29     V     0.4731   0.6189   0.4857
V30     V     0.5269   0.3811   0.5143
V31     V     0.8689   0.2769   0.7643
V32     V     0.6311   0.2231   0.7357
loop_
_geom_bond_atom_site_label_1
_geom_bond_atom_site_label_2
_geom_bond_distance
_geom_bond_site_symmetry_2
_ccdc_geom_bond_type
V1     V2    10.0   1_554     S
V1     V5    10.0   .     S
V1     V16    10.0   .     S
V1     V28    10.0   1_554     S
V2     V1    10.0   1_556     S
V2     V10    10.0   .     S
V2     V14    10.0   .     S
V2     V18    10.0   1_556     S
V3     V4    10.0   1_655     S
V3     V15    10.0   1_655     S
V3     V6    10.0   .     S
V3     V31    10.0   .     S
V4     V3    10.0   1_455     S
V4     V13    10.0   .     S
V4     V9    10.0   1_455     S
V4     V23    10.0   .     S
V5     V6    10.0   .     S
V5     V7    10.0   .     S
V5     V30    10.0   .     S
V6     V11    10.0   1_655     S
V6     V19    10.0   1_554     S
V7     V8    10.0   1_544     S
V7     V16    10.0   .     S
V7     V32    10.0   1_554     S
V8     V7    10.0   1_566     S
V8     V14    10.0   .     S
V8     V10    10.0   .     S
V8     V24    10.0   1_556     S
V9     V10    10.0   .     S
V9     V12    10.0   .     S
V9     V4    10.0   1_655     S
V9     V22    10.0   1_556     S
V10     V26    10.0   .     S
V11     V12    10.0   1_445     S
V11     V6    10.0   1_455     S
V11     V15    10.0   .     S
V11     V27    10.0   .     S
V12     V11    10.0   1_665     S
V12     V13    10.0   1_655     S
V12     V17    10.0   .     S
V13     V12    10.0   1_455     S
V13     V14    10.0   .     S
V13     V20    10.0   1_556     S
V14     V29    10.0   .     S
V15     V3    10.0   1_455     S
V15     V16    10.0   .     S
V15     V21    10.0   1_554     S
V16     V25    10.0   .     S
V17     V18    10.0   .     S
V17     V20    10.0   1_655     S
V17     V22    10.0   .     S
V18     V29    10.0   .     S
V18     V26    10.0   .     S
V18     V2    10.0   1_554     S
V19     V20    10.0   1_646     S
V19     V27    10.0   1_655     S
V19     V31    10.0   .     S
V19     V6    10.0   1_556     S
V20     V19    10.0   1_464     S
V20     V17    10.0   1_455     S
V20     V23    10.0   .     S
V20     V13    10.0   1_554     S
V21     V22    10.0   1_456     S
V21     V27    10.0   .     S
V21     V31    10.0   1_455     S
V21     V15    10.0   1_556     S
V22     V9    10.0   1_554     S
V22     V21    10.0   1_654     S
V22     V23    10.0   1_655     S
V23     V22    10.0   1_455     S
V23     V24    10.0   .     S
V24     V26    10.0   .     S
V24     V29    10.0   .     S
V24     V8    10.0   1_554     S
V25     V26    10.0   1_545     S
V25     V28    10.0   .     S
V25     V32    10.0   .     S
V26     V25    10.0   1_565     S
V27     V19    10.0   1_455     S
V27     V28    10.0   .     S
V28     V30    10.0   .     S
V28     V1    10.0   1_556     S
V29     V30    10.0   .     S
V30     V32    10.0   .     S
V31     V32    10.0   .     S
V31     V21    10.0   1_655     S
V32     V7    10.0   1_556     S
