data_ukc
_audit_creation_date              2020-02-02
_audit_creation_method            'Pymatgen'
_symmetry_space_group_name_H-M    'P1'
_symmetry_Int_Tables_number       1
loop_
_symmetry_equiv_pos_as_xyz
  x,y,z
_cell_length_a                    29.8962
_cell_length_b                    29.8962
_cell_length_c                    56.5118
_cell_angle_alpha                 90.0
_cell_angle_beta                 90.0
_cell_angle_gamma                 90.0
loop_
_atom_site_label
_atom_site_type_symbol
_atom_site_fract_x
_atom_site_fract_y
_atom_site_fract_z
V1     V     0.8649   0.6514   0.7876
V2     V     0.1351   0.8486   0.7876
V3     V     0.6351   0.8486   0.7124
V4     V     0.3649   0.6514   0.7124
V5     V     0.8649   0.3486   0.7124
V6     V     0.1351   0.1514   0.7124
V7     V     0.3649   0.3486   0.7876
V8     V     0.6351   0.1514   0.7876
V9     V     0.0986   0.3851   0.0376
V10     V     0.9014   0.1149   0.0376
V11     V     0.0986   0.8851   0.9624
V12     V     0.9014   0.6149   0.9624
V13     V     0.4014   0.8851   0.0376
V14     V     0.5986   0.6149   0.0376
V15     V     0.4014   0.3851   0.9624
V16     V     0.5986   0.1149   0.9624
V17     V     0.4014   0.6149   0.5376
V18     V     0.5986   0.8851   0.5376
V19     V     0.5986   0.3851   0.4624
V20     V     0.4014   0.1149   0.4624
V21     V     0.9014   0.8851   0.4624
V22     V     0.0986   0.6149   0.4624
V23     V     0.9014   0.3851   0.5376
V24     V     0.0986   0.1149   0.5376
V25     V     0.1351   0.3486   0.2124
V26     V     0.8649   0.1514   0.2124
V27     V     0.3649   0.1514   0.2876
V28     V     0.6351   0.3486   0.2876
V29     V     0.3649   0.8486   0.2124
V30     V     0.6351   0.6514   0.2124
V31     V     0.8649   0.8486   0.2876
V32     V     0.1351   0.6514   0.2876
loop_
_geom_bond_atom_site_label_1
_geom_bond_atom_site_label_2
_geom_bond_distance
_geom_bond_site_symmetry_2
_ccdc_geom_bond_type
V1     V2    10.0   1_655     S
V1     V3    10.0   .     S
V1     V5    10.0   .     S
V1     V12    10.0   .     S
V2     V1    10.0   1_455     S
V2     V4    10.0   .     S
V2     V6    10.0   1_565     S
V2     V11    10.0   .     S
V3     V4    10.0   .     S
V3     V8    10.0   1_565     S
V3     V18    10.0   .     S
V4     V7    10.0   .     S
V4     V17    10.0   .     S
V5     V6    10.0   1_655     S
V5     V8    10.0   .     S
V5     V23    10.0   .     S
V6     V5    10.0   1_455     S
V6     V7    10.0   .     S
V6     V2    10.0   1_545     S
V6     V24    10.0   .     S
V7     V8    10.0   .     S
V7     V15    10.0   .     S
V8     V3    10.0   1_545     S
V8     V16    10.0   .     S
V9     V10    10.0   1_455     S
V9     V12    10.0   1_454     S
V9     V15    10.0   1_554     S
V9     V25    10.0   .     S
V10     V9    10.0   1_655     S
V10     V11    10.0   1_644     S
V10     V16    10.0   1_554     S
V10     V26    10.0   .     S
V11     V12    10.0   1_455     S
V11     V10    10.0   1_466     S
V11     V13    10.0   1_556     S
V12     V11    10.0   1_655     S
V12     V9    10.0   1_656     S
V12     V14    10.0   1_556     S
V13     V11    10.0   1_554     S
V13     V14    10.0   .     S
V13     V16    10.0   1_564     S
V13     V29    10.0   .     S
V14     V12    10.0   1_554     S
V14     V15    10.0   1_554     S
V14     V30    10.0   .     S
V15     V16    10.0   .     S
V15     V14    10.0   1_556     S
V15     V9    10.0   1_556     S
V16     V10    10.0   1_556     S
V16     V13    10.0   1_546     S
V17     V18    10.0   .     S
V17     V19    10.0   .     S
V17     V22    10.0   .     S
V18     V20    10.0   1_565     S
V18     V21    10.0   .     S
V19     V20    10.0   .     S
V19     V23    10.0   .     S
V19     V28    10.0   .     S
V20     V18    10.0   1_545     S
V20     V24    10.0   .     S
V20     V27    10.0   .     S
V21     V22    10.0   1_655     S
V21     V24    10.0   1_665     S
V21     V31    10.0   .     S
V22     V21    10.0   1_455     S
V22     V23    10.0   1_455     S
V22     V32    10.0   .     S
V23     V24    10.0   1_655     S
V23     V22    10.0   1_655     S
V24     V23    10.0   1_455     S
V24     V21    10.0   1_445     S
V25     V26    10.0   1_455     S
V25     V27    10.0   .     S
V25     V32    10.0   .     S
V26     V25    10.0   1_655     S
V26     V28    10.0   .     S
V26     V31    10.0   1_545     S
V27     V28    10.0   .     S
V27     V29    10.0   1_545     S
V28     V30    10.0   .     S
V29     V30    10.0   .     S
V29     V32    10.0   .     S
V29     V27    10.0   1_565     S
V30     V31    10.0   .     S
V31     V32    10.0   1_655     S
V31     V26    10.0   1_565     S
V32     V31    10.0   1_455     S
