data_ukd
_audit_creation_date              2020-02-02
_audit_creation_method            'Pymatgen'
_symmetry_space_group_name_H-M    'P1'
_symmetry_Int_Tables_number       1
loop_
_symmetry_equiv_pos_as_xyz
  x,y,z
_cell_length_a                    29.5448
_cell_length_b                    29.5448
_cell_length_c                    50.6583
_cell_angle_alpha                 90.0
_cell_angle_beta                 90.0
_cell_angle_gamma                 90.0
loop_
_atom_site_label
_atom_site_type_symbol
_atom_site_fract_x
_atom_site_fract_y
_atom_site_fract_z
V1     V     0.7124   0.1847   0.1616
V2     V     0.9347   0.9624   0.0884
V3     V     0.0653   0.0376   0.9116
V4     V     0.2876   0.8153   0.8384
V5     V     0.5653   0.5376   0.4116
V6     V     0.7876   0.3153   0.3384
V7     V     0.2124   0.6847   0.6616
V8     V     0.4347   0.4624   0.5884
V9     V     0.9347   0.5376   0.5884
V10     V     0.7124   0.3153   0.6616
V11     V     0.4347   0.0376   0.0884
V12     V     0.2124   0.8153   0.1616
V13     V     0.2876   0.6847   0.3384
V14     V     0.0653   0.4624   0.4116
V15     V     0.7876   0.1847   0.8384
V16     V     0.5653   0.9624   0.9116
V17     V     0.4347   0.5376   0.9116
V18     V     0.2124   0.3153   0.8384
V19     V     0.5653   0.4624   0.0884
V20     V     0.7876   0.6847   0.1616
V21     V     0.0653   0.9624   0.5884
V22     V     0.2876   0.1847   0.6616
V23     V     0.9347   0.0376   0.4116
V24     V     0.7124   0.8153   0.3384
V25     V     0.5653   0.0376   0.5884
V26     V     0.7876   0.8153   0.6616
V27     V     0.9347   0.4624   0.9116
V28     V     0.7124   0.6847   0.8384
V29     V     0.0653   0.5376   0.0884
V30     V     0.2876   0.3153   0.1616
V31     V     0.4347   0.9624   0.4116
V32     V     0.2124   0.1847   0.3384
loop_
_geom_bond_atom_site_label_1
_geom_bond_atom_site_label_2
_geom_bond_distance
_geom_bond_site_symmetry_2
_ccdc_geom_bond_type
V1     V2    10.0   1_545     S
V1     V6    10.0   .     S
V1     V11    10.0   .     S
V1     V19    10.0   .     S
V2     V1    10.0   1_565     S
V2     V3    10.0   1_664     S
V2     V12    10.0   1_655     S
V2     V20    10.0   .     S
V3     V2    10.0   1_446     S
V3     V4    10.0   1_545     S
V3     V15    10.0   1_455     S
V3     V18    10.0   .     S
V4     V3    10.0   1_565     S
V4     V7    10.0   .     S
V4     V16    10.0   .     S
V4     V17    10.0   .     S
V5     V6    10.0   .     S
V5     V8    10.0   .     S
V5     V13    10.0   .     S
V5     V24    10.0   .     S
V6     V23    10.0   .     S
V6     V14    10.0   1_655     S
V7     V8    10.0   .     S
V7     V9    10.0   1_455     S
V7     V21    10.0   .     S
V8     V22    10.0   .     S
V8     V10    10.0   .     S
V9     V10    10.0   .     S
V9     V14    10.0   1_655     S
V9     V7    10.0   1_655     S
V9     V26    10.0   .     S
V10     V15    10.0   .     S
V10     V25    10.0   .     S
V11     V12    10.0   1_545     S
V11     V16    10.0   1_544     S
V11     V30    10.0   .     S
V12     V2    10.0   1_455     S
V12     V11    10.0   1_565     S
V12     V13    10.0   .     S
V12     V29    10.0   .     S
V13     V14    10.0   .     S
V13     V31    10.0   .     S
V14     V9    10.0   1_455     S
V14     V6    10.0   1_455     S
V14     V32    10.0   .     S
V15     V3    10.0   1_655     S
V15     V16    10.0   1_545     S
V15     V27    10.0   .     S
V16     V15    10.0   1_565     S
V16     V11    10.0   1_566     S
V16     V28    10.0   .     S
V17     V18    10.0   .     S
V17     V19    10.0   1_556     S
V17     V28    10.0   .     S
V18     V22    10.0   .     S
V18     V27    10.0   1_455     S
V19     V20    10.0   .     S
V19     V17    10.0   1_554     S
V19     V30    10.0   .     S
V20     V24    10.0   .     S
V20     V29    10.0   1_655     S
V21     V22    10.0   1_565     S
V21     V23    10.0   1_465     S
V21     V26    10.0   1_455     S
V22     V21    10.0   1_545     S
V22     V25    10.0   .     S
V23     V24    10.0   1_545     S
V23     V21    10.0   1_645     S
V23     V32    10.0   1_655     S
V24     V23    10.0   1_565     S
V24     V31    10.0   .     S
V25     V26    10.0   1_545     S
V25     V31    10.0   1_545     S
V26     V25    10.0   1_565     S
V26     V28    10.0   .     S
V26     V21    10.0   1_655     S
V27     V28    10.0   .     S
V27     V29    10.0   1_656     S
V27     V18    10.0   1_655     S
V29     V27    10.0   1_454     S
V29     V30    10.0   .     S
V29     V20    10.0   1_455     S
V30     V32    10.0   .     S
V31     V32    10.0   1_565     S
V31     V25    10.0   1_565     S
V32     V31    10.0   1_545     S
V32     V23    10.0   1_455     S
