data_uke
_audit_creation_date              2020-02-02
_audit_creation_method            'Pymatgen'
_symmetry_space_group_name_H-M    'P1'
_symmetry_Int_Tables_number       1
loop_
_symmetry_equiv_pos_as_xyz
  x,y,z
_cell_length_a                    18.9992
_cell_length_b                    68.0743
_cell_length_c                    32.7956
_cell_angle_alpha                 90.0
_cell_angle_beta                 90.0
_cell_angle_gamma                 90.0
loop_
_atom_site_label
_atom_site_type_symbol
_atom_site_fract_x
_atom_site_fract_y
_atom_site_fract_z
V1     V     0.4272   0.447   0.7256
V2     V     0.0728   0.553   0.7744
V3     V     0.8228   0.447   0.5244
V4     V     0.1772   0.553   0.4756
V5     V     0.9272   0.447   0.2256
V6     V     0.5728   0.553   0.2744
V7     V     0.6772   0.553   0.9756
V8     V     0.3228   0.447   0.0244
V9     V     0.9272   0.303   0.5244
V10     V     0.5728   0.197   0.4756
V11     V     0.0728   0.197   0.9756
V12     V     0.4272   0.303   0.0244
V13     V     0.1772   0.197   0.2744
V14     V     0.8228   0.303   0.2256
V15     V     0.3228   0.303   0.7256
V16     V     0.6772   0.197   0.7744
V17     V     0.3228   0.947   0.5244
V18     V     0.6772   0.053   0.4756
V19     V     0.1772   0.053   0.9756
V20     V     0.8228   0.947   0.0244
V21     V     0.0728   0.053   0.2744
V22     V     0.4272   0.947   0.2256
V23     V     0.9272   0.947   0.7256
V24     V     0.5728   0.053   0.7744
V25     V     0.8228   0.803   0.7256
V26     V     0.1772   0.697   0.7744
V27     V     0.9272   0.803   0.0244
V28     V     0.5728   0.697   0.9756
V29     V     0.4272   0.803   0.5244
V30     V     0.0728   0.697   0.4756
V31     V     0.6772   0.697   0.2744
V32     V     0.3228   0.803   0.2256
loop_
_geom_bond_atom_site_label_1
_geom_bond_atom_site_label_2
_geom_bond_distance
_geom_bond_site_symmetry_2
_ccdc_geom_bond_type
V1     V2    10.0   .     S
V1     V3    10.0   .     S
V1     V8    10.0   1_556     S
V1     V15    10.0   .     S
V2     V7    10.0   1_455     S
V2     V4    10.0   .     S
V2     V26    10.0   .     S
V3     V4    10.0   1_655     S
V3     V5    10.0   .     S
V3     V9    10.0   .     S
V4     V3    10.0   1_455     S
V4     V6    10.0   .     S
V4     V30    10.0   .     S
V5     V6    10.0   .     S
V5     V8    10.0   1_655     S
V5     V14    10.0   .     S
V6     V7    10.0   1_554     S
V6     V31    10.0   .     S
V7     V2    10.0   1_655     S
V7     V8    10.0   1_556     S
V7     V6    10.0   1_556     S
V7     V28    10.0   .     S
V8     V7    10.0   1_554     S
V8     V5    10.0   1_455     S
V8     V1    10.0   1_554     S
V8     V12    10.0   .     S
V9     V10    10.0   .     S
V9     V15    10.0   1_655     S
V9     V14    10.0   .     S
V10     V13    10.0   .     S
V10     V16    10.0   .     S
V10     V18    10.0   .     S
V11     V12    10.0   1_556     S
V11     V16    10.0   1_455     S
V11     V13    10.0   1_556     S
V11     V19    10.0   .     S
V12     V11    10.0   1_554     S
V12     V14    10.0   .     S
V12     V15    10.0   1_554     S
V13     V14    10.0   1_455     S
V13     V11    10.0   1_554     S
V13     V21    10.0   .     S
V14     V13    10.0   1_655     S
V15     V16    10.0   .     S
V15     V9    10.0   1_455     S
V15     V12    10.0   1_556     S
V16     V11    10.0   1_655     S
V16     V24    10.0   .     S
V17     V18    10.0   1_565     S
V17     V23    10.0   1_455     S
V17     V22    10.0   .     S
V17     V29    10.0   .     S
V18     V17    10.0   1_545     S
V18     V21    10.0   1_655     S
V18     V24    10.0   .     S
V19     V20    10.0   1_446     S
V19     V24    10.0   .     S
V19     V21    10.0   1_556     S
V20     V19    10.0   1_664     S
V20     V22    10.0   .     S
V20     V23    10.0   1_554     S
V20     V27    10.0   .     S
V21     V22    10.0   1_545     S
V21     V18    10.0   1_455     S
V21     V19    10.0   1_554     S
V22     V21    10.0   1_565     S
V22     V32    10.0   .     S
V23     V24    10.0   1_565     S
V23     V17    10.0   1_655     S
V23     V20    10.0   1_556     S
V23     V25    10.0   .     S
V24     V23    10.0   1_545     S
V25     V26    10.0   1_655     S
V25     V29    10.0   .     S
V25     V27    10.0   1_556     S
V26     V25    10.0   1_455     S
V26     V28    10.0   .     S
V26     V30    10.0   .     S
V27     V28    10.0   1_554     S
V27     V32    10.0   1_655     S
V27     V25    10.0   1_554     S
V28     V27    10.0   1_556     S
V28     V31    10.0   1_556     S
V29     V30    10.0   .     S
V29     V32    10.0   .     S
V30     V31    10.0   1_455     S
V31     V32    10.0   .     S
V31     V30    10.0   1_655     S
V31     V28    10.0   1_554     S
V32     V27    10.0   1_455     S
