data_ukf
_audit_creation_date              2020-02-02
_audit_creation_method            'Pymatgen'
_symmetry_space_group_name_H-M    'P1'
_symmetry_Int_Tables_number       1
loop_
_symmetry_equiv_pos_as_xyz
  x,y,z
_cell_length_a                    21.1897
_cell_length_b                    21.1897
_cell_length_c                    45.3276
_cell_angle_alpha                 90.0
_cell_angle_beta                 90.0
_cell_angle_gamma                 120.0
loop_
_atom_site_label
_atom_site_type_symbol
_atom_site_fract_x
_atom_site_fract_y
_atom_site_fract_z
V1     V     0.8186   0.2332   0.943
V2     V     0.7668   0.1814   0.7237
V3     V     0.2332   0.8186   0.7237
V4     V     0.1814   0.7668   0.943
V5     V     0.8186   0.5854   0.3904
V6     V     0.7668   0.5854   0.6096
V7     V     0.4146   0.2332   0.057
V8     V     0.4146   0.1814   0.2763
V9     V     0.1814   0.4146   0.3904
V10     V     0.2332   0.4146   0.6096
V11     V     0.5854   0.8186   0.2763
V12     V     0.5854   0.7668   0.057
loop_
_geom_bond_atom_site_label_1
_geom_bond_atom_site_label_2
_geom_bond_distance
_geom_bond_site_symmetry_2
_ccdc_geom_bond_type
V1     V2    10.0   .     S
V1     V7    10.0   1_556     S
V1     V12    10.0   1_546     S
V1     V4    10.0   1_655     S
V2     V6    10.0   .     S
V2     V10    10.0   1_655     S
V2     V3    10.0   1_545     S
V3     V4    10.0   .     S
V3     V6    10.0   1_455     S
V3     V10    10.0   .     S
V3     V2    10.0   1_565     S
V4     V12    10.0   1_556     S
V4     V7    10.0   1_566     S
V4     V1    10.0   1_455     S
V5     V6    10.0   .     S
V5     V8    10.0   .     S
V5     V11    10.0   .     S
V5     V9    10.0   1_655     S
V6     V3    10.0   1_655     S
V6     V10    10.0   .     S
V7     V1    10.0   1_554     S
V7     V8    10.0   .     S
V7     V4    10.0   1_544     S
V7     V12    10.0   .     S
V8     V9    10.0   .     S
V8     V11    10.0   1_545     S
V9     V10    10.0   .     S
V9     V11    10.0   .     S
V9     V5    10.0   1_455     S
V10     V2    10.0   1_455     S
V11     V12    10.0   .     S
V11     V8    10.0   1_565     S
V12     V1    10.0   1_564     S
V12     V4    10.0   1_554     S
