data_ukl
_audit_creation_date              2020-02-02
_audit_creation_method            'Pymatgen'
_symmetry_space_group_name_H-M    'P1'
_symmetry_Int_Tables_number       1
loop_
_symmetry_equiv_pos_as_xyz
  x,y,z
_cell_length_a                    17.9868
_cell_length_b                    17.9868
_cell_length_c                    43.9837
_cell_angle_alpha                 90.0
_cell_angle_beta                 90.0
_cell_angle_gamma                 90.0
loop_
_atom_site_label
_atom_site_type_symbol
_atom_site_fract_x
_atom_site_fract_y
_atom_site_fract_z
V1     V     0.8205   0.9623   0.1825
V2     V     0.6795   0.5377   0.3175
V3     V     0.3205   0.9623   0.3175
V4     V     0.1795   0.5377   0.1825
V5     V     0.2123   0.4295   0.4325
V6     V     0.7877   0.5705   0.5675
V7     V     0.3205   0.4623   0.6825
V8     V     0.1795   0.0377   0.8175
V9     V     0.7877   0.0705   0.4325
V10     V     0.2123   0.9295   0.5675
V11     V     0.2877   0.0705   0.0675
V12     V     0.7123   0.9295   0.9325
V13     V     0.8205   0.4623   0.8175
V14     V     0.6795   0.0377   0.6825
V15     V     0.7123   0.4295   0.0675
V16     V     0.2877   0.5705   0.9325
loop_
_geom_bond_atom_site_label_1
_geom_bond_atom_site_label_2
_geom_bond_distance
_geom_bond_site_symmetry_2
_ccdc_geom_bond_type
V1     V2    10.0   .     S
V1     V15    10.0   1_565     S
V1     V11    10.0   1_665     S
V1     V4    10.0   1_655     S
V2     V9    10.0   .     S
V2     V5    10.0   .     S
V2     V3    10.0   .     S
V3     V4    10.0   .     S
V3     V9    10.0   1_565     S
V3     V5    10.0   1_565     S
V4     V15    10.0   1_455     S
V4     V11    10.0   .     S
V4     V1    10.0   1_455     S
V5     V6    10.0   1_455     S
V5     V3    10.0   1_545     S
V5     V9    10.0   1_455     S
V6     V5    10.0   1_655     S
V6     V14    10.0   1_565     S
V6     V7    10.0   .     S
V6     V10    10.0   1_655     S
V7     V8    10.0   .     S
V7     V10    10.0   .     S
V7     V14    10.0   .     S
V8     V16    10.0   1_545     S
V8     V12    10.0   1_445     S
V8     V13    10.0   1_455     S
V9     V10    10.0   1_645     S
V9     V3    10.0   1_545     S
V9     V5    10.0   1_655     S
V10     V9    10.0   1_465     S
V10     V14    10.0   1_565     S
V10     V6    10.0   1_455     S
V11     V12    10.0   1_544     S
V11     V1    10.0   1_445     S
V11     V15    10.0   .     S
V12     V11    10.0   1_566     S
V12     V13    10.0   .     S
V12     V8    10.0   1_665     S
V12     V16    10.0   .     S
V13     V14    10.0   .     S
V13     V16    10.0   1_655     S
V13     V8    10.0   1_655     S
V14     V6    10.0   1_545     S
V14     V10    10.0   1_545     S
V15     V4    10.0   1_655     S
V15     V16    10.0   1_554     S
V15     V1    10.0   1_545     S
V16     V13    10.0   1_455     S
V16     V15    10.0   1_556     S
V16     V8    10.0   1_565     S
