data_ukn
_audit_creation_date              2020-02-02
_audit_creation_method            'Pymatgen'
_symmetry_space_group_name_H-M    'P1'
_symmetry_Int_Tables_number       1
loop_
_symmetry_equiv_pos_as_xyz
  x,y,z
_cell_length_a                    70.6434
_cell_length_b                    70.6434
_cell_length_c                    17.9755
_cell_angle_alpha                 90.0
_cell_angle_beta                 90.0
_cell_angle_gamma                 120.0
loop_
_atom_site_label
_atom_site_type_symbol
_atom_site_fract_x
_atom_site_fract_y
_atom_site_fract_z
V1     V     0.2554   0.8862   0.5833
V2     V     0.4113   0.9642   0.75
V3     V     0.4471   0.0358   0.25
V4     V     0.3692   0.1138   0.4167
V5     V     0.2195   0.922   0.0833
V6     V     0.2975   0.078   0.9167
V7     V     0.7025   0.922   0.0833
V8     V     0.7805   0.078   0.9167
V9     V     0.7446   0.1138   0.4167
V10     V     0.5887   0.0358   0.25
V11     V     0.5529   0.9642   0.75
V12     V     0.6308   0.8862   0.5833
V13     V     0.7446   0.6308   0.4167
V14     V     0.5887   0.5529   0.25
V15     V     0.6308   0.7446   0.5833
V16     V     0.5529   0.5887   0.75
V17     V     0.7025   0.7805   0.0833
V18     V     0.7805   0.7025   0.9167
V19     V     0.3692   0.2554   0.4167
V20     V     0.4471   0.4113   0.25
V21     V     0.2195   0.2975   0.0833
V22     V     0.2975   0.2195   0.9167
V23     V     0.2554   0.3692   0.5833
V24     V     0.4113   0.4471   0.75
V25     V     0.9642   0.5529   0.25
V26     V     0.8862   0.6308   0.4167
V27     V     0.078   0.7805   0.0833
V28     V     0.922   0.7025   0.9167
V29     V     0.1138   0.7446   0.5833
V30     V     0.0358   0.5887   0.75
V31     V     0.922   0.2195   0.9167
V32     V     0.078   0.2975   0.0833
V33     V     0.8862   0.2554   0.4167
V34     V     0.9642   0.4113   0.25
V35     V     0.1138   0.3692   0.5833
V36     V     0.0358   0.4471   0.75
loop_
_geom_bond_atom_site_label_1
_geom_bond_atom_site_label_2
_geom_bond_distance
_geom_bond_site_symmetry_2
_ccdc_geom_bond_type
V1     V5    10.0   .     S
V1     V5    10.0   1_556     S
V1     V2    10.0   .     S
V1     V29    10.0   .     S
V2     V3    10.0   1_566     S
V2     V3    10.0   1_565     S
V2     V11    10.0   .     S
V3     V2    10.0   1_544     S
V3     V2    10.0   1_545     S
V3     V4    10.0   .     S
V3     V10    10.0   .     S
V4     V6    10.0   1_554     S
V4     V6    10.0   .     S
V4     V19    10.0   .     S
V5     V1    10.0   1_554     S
V5     V6    10.0   1_564     S
V5     V27    10.0   .     S
V6     V4    10.0   1_556     S
V6     V5    10.0   1_546     S
V6     V22    10.0   .     S
V7     V8    10.0   1_564     S
V7     V12    10.0   .     S
V7     V12    10.0   1_554     S
V7     V17    10.0   .     S
V8     V9    10.0   1_556     S
V8     V9    10.0   .     S
V8     V7    10.0   1_546     S
V8     V31    10.0   .     S
V9     V8    10.0   1_554     S
V9     V10    10.0   .     S
V9     V33    10.0   .     S
V10     V11    10.0   1_544     S
V10     V11    10.0   1_545     S
V11     V10    10.0   1_566     S
V11     V10    10.0   1_565     S
V11     V12    10.0   .     S
V12     V7    10.0   1_556     S
V12     V15    10.0   .     S
V13     V18    10.0   1_554     S
V13     V14    10.0   .     S
V13     V18    10.0   .     S
V13     V26    10.0   .     S
V14     V16    10.0   1_554     S
V14     V16    10.0   .     S
V14     V20    10.0   .     S
V15     V17    10.0   .     S
V15     V17    10.0   1_556     S
V15     V16    10.0   .     S
V16     V14    10.0   1_556     S
V16     V24    10.0   .     S
V17     V15    10.0   1_554     S
V17     V18    10.0   1_554     S
V18     V13    10.0   1_556     S
V18     V17    10.0   1_556     S
V18     V28    10.0   .     S
V19     V22    10.0   1_554     S
V19     V20    10.0   .     S
V19     V22    10.0   .     S
V20     V24    10.0   1_554     S
V20     V24    10.0   .     S
V21     V22    10.0   1_554     S
V21     V23    10.0   .     S
V21     V23    10.0   1_554     S
V21     V32    10.0   .     S
V22     V19    10.0   1_556     S
V22     V21    10.0   1_556     S
V23     V21    10.0   1_556     S
V23     V24    10.0   .     S
V23     V35    10.0   .     S
V24     V20    10.0   1_556     S
V25     V30    10.0   1_654     S
V25     V30    10.0   1_655     S
V25     V26    10.0   .     S
V25     V34    10.0   .     S
V26     V28    10.0   1_554     S
V26     V28    10.0   .     S
V27     V29    10.0   .     S
V27     V28    10.0   1_454     S
V27     V29    10.0   1_554     S
V28     V26    10.0   1_556     S
V28     V27    10.0   1_656     S
V29     V27    10.0   1_556     S
V29     V30    10.0   .     S
V30     V25    10.0   1_456     S
V30     V25    10.0   1_455     S
V30     V36    10.0   .     S
V31     V33    10.0   .     S
V31     V33    10.0   1_556     S
V31     V32    10.0   1_656     S
V32     V31    10.0   1_454     S
V32     V35    10.0   .     S
V32     V35    10.0   1_554     S
V33     V31    10.0   1_554     S
V33     V34    10.0   .     S
V34     V36    10.0   1_654     S
V34     V36    10.0   1_655     S
V35     V32    10.0   1_556     S
V35     V36    10.0   .     S
V36     V34    10.0   1_456     S
V36     V34    10.0   1_455     S
