data_ukv
_audit_creation_date              2020-02-02
_audit_creation_method            'Pymatgen'
_symmetry_space_group_name_H-M    'P1'
_symmetry_Int_Tables_number       1
loop_
_symmetry_equiv_pos_as_xyz
  x,y,z
_cell_length_a                    67.3161
_cell_length_b                    67.3161
_cell_length_c                    14.2669
_cell_angle_alpha                 90.0
_cell_angle_beta                 90.0
_cell_angle_gamma                 120.0
loop_
_atom_site_label
_atom_site_type_symbol
_atom_site_fract_x
_atom_site_fract_y
_atom_site_fract_z
V1     V     0.7354   0.9198   0.8738
V2     V     0.5979   0.851   0.2928
V3     V     0.7354   0.8157   0.3738
V4     V     0.5979   0.7469   0.7928
V5     V     0.7469   0.149   0.2072
V6     V     0.8157   0.0802   0.6262
V7     V     0.9198   0.1843   0.1262
V8     V     0.851   0.2531   0.7072
V9     V     0.4136   0.9312   0.0405
V10     V     0.4823   0.0688   0.4595
V11     V     0.5177   0.9312   0.5405
V12     V     0.5864   0.0688   0.9595
V13     V     0.8157   0.7354   0.1262
V14     V     0.7469   0.5979   0.7072
V15     V     0.9198   0.7354   0.6262
V16     V     0.851   0.5979   0.2072
V17     V     0.4136   0.4823   0.5405
V18     V     0.4823   0.4136   0.9595
V19     V     0.5177   0.5864   0.0405
V20     V     0.5864   0.5177   0.4595
V21     V     0.149   0.7469   0.2928
V22     V     0.0802   0.8157   0.8738
V23     V     0.2531   0.851   0.7928
V24     V     0.1843   0.9198   0.3738
V25     V     0.149   0.4021   0.7928
V26     V     0.0802   0.2646   0.3738
V27     V     0.2531   0.4021   0.2928
V28     V     0.1843   0.2646   0.8738
V29     V     0.2646   0.1843   0.6262
V30     V     0.4021   0.2531   0.2072
V31     V     0.2646   0.0802   0.1262
V32     V     0.4021   0.149   0.7072
V33     V     0.9312   0.4136   0.4595
V34     V     0.0688   0.4823   0.0405
V35     V     0.9312   0.5177   0.9595
V36     V     0.0688   0.5864   0.5405
loop_
_geom_bond_atom_site_label_1
_geom_bond_atom_site_label_2
_geom_bond_distance
_geom_bond_site_symmetry_2
_ccdc_geom_bond_type
V1     V2    10.0   1_556     S
V1     V3    10.0   .     S
V1     V3    10.0   1_556     S
V1     V6    10.001   1_565     S
V2     V1    10.0   1_554     S
V2     V4    10.0   .     S
V2     V4    10.0   1_554     S
V2     V11    10.001   .     S
V3     V4    10.0   .     S
V3     V1    10.0   1_554     S
V3     V13    10.001   .     S
V4     V2    10.0   1_556     S
V4     V19    10.001   1_556     S
V5     V6    10.0   .     S
V5     V8    10.0   1_554     S
V5     V8    10.0   .     S
V5     V12    10.001   1_554     S
V6     V1    10.001   1_545     S
V6     V7    10.0   1_556     S
V6     V7    10.0   .     S
V7     V6    10.0   1_554     S
V7     V8    10.0   1_554     S
V7     V26    10.001   1_655     S
V8     V7    10.0   1_556     S
V8     V5    10.0   1_556     S
V8     V33    10.001   .     S
V9     V10    10.0   1_565     S
V9     V11    10.0   .     S
V9     V11    10.0   1_554     S
V9     V23    10.001   1_554     S
V10     V9    10.0   1_545     S
V10     V12    10.0   1_554     S
V10     V12    10.0   .     S
V10     V32    10.001   .     S
V11     V12    10.0   1_565     S
V11     V9    10.0   1_556     S
V12     V10    10.0   1_556     S
V12     V11    10.0   1_545     S
V12     V5    10.001   1_556     S
V13     V14    10.0   1_554     S
V13     V15    10.0   .     S
V13     V15    10.0   1_554     S
V14     V13    10.0   1_556     S
V14     V16    10.0   1_556     S
V14     V16    10.0   .     S
V14     V20    10.001   .     S
V15     V16    10.0   .     S
V15     V13    10.0   1_556     S
V15     V22    10.001   1_655     S
V16     V14    10.0   1_554     S
V16     V35    10.001   1_554     S
V17     V18    10.0   .     S
V17     V19    10.0   .     S
V17     V19    10.0   1_556     S
V17     V27    10.001   .     S
V18     V20    10.0   1_556     S
V18     V20    10.0   .     S
V18     V30    10.001   1_556     S
V19     V20    10.0   .     S
V19     V17    10.0   1_554     S
V19     V4    10.001   1_554     S
V20     V18    10.0   1_554     S
V21     V22    10.0   1_554     S
V21     V23    10.0   .     S
V21     V23    10.0   1_554     S
V21     V36    10.001   .     S
V22     V21    10.0   1_556     S
V22     V24    10.0   .     S
V22     V24    10.0   1_556     S
V22     V15    10.001   1_455     S
V23     V24    10.0   .     S
V23     V21    10.0   1_556     S
V23     V9    10.001   1_556     S
V24     V22    10.0   1_554     S
V24     V31    10.001   1_565     S
V25     V26    10.0   .     S
V25     V27    10.0   .     S
V25     V27    10.0   1_556     S
V25     V34    10.001   1_556     S
V26     V7    10.001   1_455     S
V26     V28    10.0   .     S
V26     V28    10.0   1_554     S
V27     V28    10.0   1_554     S
V27     V25    10.0   1_554     S
V28     V27    10.0   1_556     S
V28     V26    10.0   1_556     S
V28     V29    10.001   .     S
V29     V30    10.0   .     S
V29     V31    10.0   1_556     S
V29     V31    10.0   .     S
V30     V32    10.0   1_554     S
V30     V32    10.0   .     S
V30     V18    10.001   1_554     S
V31     V24    10.001   1_545     S
V31     V32    10.0   1_554     S
V31     V29    10.0   1_554     S
V32     V31    10.0   1_556     S
V32     V30    10.0   1_556     S
V33     V34    10.0   1_655     S
V33     V35    10.0   1_554     S
V33     V35    10.0   .     S
V34     V25    10.001   1_554     S
V34     V33    10.0   1_455     S
V34     V36    10.0   .     S
V34     V36    10.0   1_554     S
V35     V16    10.001   1_556     S
V35     V36    10.0   1_655     S
V35     V33    10.0   1_556     S
V36     V34    10.0   1_556     S
V36     V35    10.0   1_455     S
