data_ukx
_audit_creation_date              2020-02-02
_audit_creation_method            'Pymatgen'
_symmetry_space_group_name_H-M    'P1'
_symmetry_Int_Tables_number       1
loop_
_symmetry_equiv_pos_as_xyz
  x,y,z
_cell_length_a                    54.5643
_cell_length_b                    54.5643
_cell_length_c                    54.5643
_cell_angle_alpha                 90.0
_cell_angle_beta                 90.0
_cell_angle_gamma                 90.0
loop_
_atom_site_label
_atom_site_type_symbol
_atom_site_fract_x
_atom_site_fract_y
_atom_site_fract_z
V1     V     0.543   0.1422   0.1657
V2     V     0.707   0.0843   0.1078
V3     V     0.9157   0.6078   0.793
V4     V     0.8578   0.6657   0.957
V5     V     0.043   0.6422   0.6657
V6     V     0.207   0.5843   0.6078
V7     V     0.3343   0.457   0.6422
V8     V     0.3922   0.293   0.5843
V9     V     0.3578   0.1657   0.457
V10     V     0.4157   0.1078   0.293
V11     V     0.8922   0.793   0.0843
V12     V     0.8343   0.957   0.1422
V13     V     0.1422   0.1657   0.543
V14     V     0.0843   0.1078   0.707
V15     V     0.6078   0.793   0.9157
V16     V     0.6657   0.957   0.8578
V17     V     0.5843   0.6078   0.207
V18     V     0.6422   0.6657   0.043
V19     V     0.457   0.6422   0.3343
V20     V     0.293   0.5843   0.3922
V21     V     0.1657   0.457   0.3578
V22     V     0.1078   0.293   0.4157
V23     V     0.793   0.0843   0.8922
V24     V     0.957   0.1422   0.8343
V25     V     0.1078   0.207   0.9157
V26     V     0.1657   0.043   0.8578
V27     V     0.5843   0.8922   0.707
V28     V     0.6422   0.8343   0.543
V29     V     0.457   0.8578   0.8343
V30     V     0.293   0.9157   0.8922
V31     V     0.6078   0.707   0.4157
V32     V     0.6657   0.543   0.3578
V33     V     0.0843   0.3922   0.207
V34     V     0.1422   0.3343   0.043
V35     V     0.957   0.3578   0.3343
V36     V     0.793   0.4157   0.3922
V37     V     0.293   0.0843   0.6078
V38     V     0.457   0.1422   0.6657
V39     V     0.5843   0.1078   0.793
V40     V     0.6422   0.1657   0.957
V41     V     0.1078   0.793   0.5843
V42     V     0.1657   0.957   0.6422
V43     V     0.0843   0.6078   0.293
V44     V     0.1422   0.6657   0.457
V45     V     0.6078   0.293   0.0843
V46     V     0.6657   0.457   0.1422
V47     V     0.957   0.6422   0.1657
V48     V     0.793   0.5843   0.1078
V49     V     0.793   0.9157   0.6078
V50     V     0.957   0.8578   0.6657
V51     V     0.6078   0.207   0.5843
V52     V     0.6657   0.043   0.6422
V53     V     0.1657   0.543   0.1422
V54     V     0.1078   0.707   0.0843
V55     V     0.6422   0.3343   0.457
V56     V     0.5843   0.3922   0.293
V57     V     0.457   0.3578   0.1657
V58     V     0.293   0.4157   0.1078
V59     V     0.0843   0.8922   0.793
V60     V     0.1422   0.8343   0.957
V61     V     0.207   0.9157   0.1078
V62     V     0.043   0.8578   0.1657
V63     V     0.8922   0.707   0.5843
V64     V     0.8343   0.543   0.6422
V65     V     0.8578   0.8343   0.457
V66     V     0.9157   0.8922   0.293
V67     V     0.707   0.4157   0.6078
V68     V     0.543   0.3578   0.6657
V69     V     0.3922   0.207   0.0843
V70     V     0.3343   0.043   0.1422
V71     V     0.3578   0.3343   0.957
V72     V     0.4157   0.3922   0.793
V73     V     0.9157   0.1078   0.207
V74     V     0.8578   0.1657   0.043
V75     V     0.207   0.0843   0.3922
V76     V     0.043   0.1422   0.3343
V77     V     0.8343   0.457   0.8578
V78     V     0.8922   0.293   0.9157
V79     V     0.707   0.5843   0.8922
V80     V     0.543   0.6422   0.8343
V81     V     0.3922   0.793   0.4157
V82     V     0.3343   0.957   0.3578
V83     V     0.4157   0.6078   0.707
V84     V     0.3578   0.6657   0.543
V85     V     0.3343   0.543   0.8578
V86     V     0.3922   0.707   0.9157
V87     V     0.043   0.3578   0.8343
V88     V     0.207   0.4157   0.8922
V89     V     0.543   0.8578   0.3343
V90     V     0.707   0.9157   0.3922
V91     V     0.8922   0.207   0.4157
V92     V     0.8343   0.043   0.3578
V93     V     0.9157   0.3922   0.707
V94     V     0.8578   0.3343   0.543
V95     V     0.3578   0.8343   0.043
V96     V     0.4157   0.8922   0.207
loop_
_geom_bond_atom_site_label_1
_geom_bond_atom_site_label_2
_geom_bond_distance
_geom_bond_site_symmetry_2
_ccdc_geom_bond_type
V1     V45    10.0   .     S
V1     V2    10.0   .     S
V1     V10    10.0   .     S
V1     V69    10.0   .     S
V2     V40    10.0   1_554     S
V2     V12    10.0   1_545     S
V2     V74    10.0   .     S
V3     V77    10.0   .     S
V3     V4    10.0   .     S
V3     V5    10.0   1_655     S
V3     V64    10.0   .     S
V4     V79    10.0   .     S
V4     V11    10.0   1_556     S
V4     V48    10.0   1_556     S
V5     V41    10.0   .     S
V5     V6    10.0   .     S
V5     V3    10.0   1_455     S
V5     V63    10.0   1_455     S
V6     V44    10.0   .     S
V6     V7    10.0   .     S
V6     V84    10.0   .     S
V7     V72    10.0   .     S
V7     V8    10.0   .     S
V7     V83    10.0   .     S
V8     V68    10.0   .     S
V8     V9    10.0   .     S
V8     V38    10.0   .     S
V9     V75    10.0   .     S
V9     V10    10.0   .     S
V9     V37    10.0   .     S
V10     V82    10.0   1_545     S
V10     V70    10.0   .     S
V11     V62    10.0   1_655     S
V11     V12    10.0   .     S
V11     V4    10.0   1_554     S
V11     V47    10.0   .     S
V12     V66    10.0   .     S
V12     V2    10.0   1_565     S
V12     V73    10.0   1_565     S
V13     V37    10.0   .     S
V13     V14    10.0   .     S
V13     V22    10.0   .     S
V13     V75    10.0   .     S
V14     V42    10.0   1_545     S
V14     V24    10.0   1_455     S
V14     V26    10.0   .     S
V15     V29    10.0   .     S
V15     V16    10.0   .     S
V15     V18    10.0   1_556     S
V15     V80    10.0   .     S
V16     V27    10.0   .     S
V16     V23    10.0   1_565     S
V16     V39    10.0   1_565     S
V17     V46    10.0   .     S
V17     V18    10.0   .     S
V17     V19    10.0   .     S
V17     V32    10.0   .     S
V18     V48    10.0   .     S
V18     V15    10.0   1_554     S
V18     V79    10.0   1_554     S
V19     V81    10.0   .     S
V19     V20    10.0   .     S
V19     V31    10.0   .     S
V20     V84    10.0   .     S
V20     V21    10.0   .     S
V20     V44    10.0   .     S
V21     V33    10.0   .     S
V21     V22    10.0   .     S
V21     V43    10.0   .     S
V22     V35    10.0   1_455     S
V22     V76    10.0   .     S
V23     V74    10.0   1_556     S
V23     V24    10.0   .     S
V23     V16    10.0   1_545     S
V23     V40    10.0   .     S
V24     V78    10.0   .     S
V24     V14    10.0   1_655     S
V24     V25    10.0   1_655     S
V25     V24    10.0   1_455     S
V25     V26    10.0   .     S
V25     V34    10.0   1_556     S
V25     V87    10.0   .     S
V26     V30    10.0   1_545     S
V26     V59    10.0   1_545     S
V27     V52    10.0   1_565     S
V27     V28    10.0   .     S
V27     V29    10.0   .     S
V28     V49    10.0   .     S
V28     V31    10.0   .     S
V28     V90    10.0   .     S
V29     V86    10.0   .     S
V29     V30    10.0   .     S
V30     V95    10.0   1_556     S
V30     V26    10.0   1_565     S
V30     V60    10.0   .     S
V31     V32    10.0   .     S
V31     V89    10.0   .     S
V32     V36    10.0   .     S
V32     V56    10.0   .     S
V33     V53    10.0   .     S
V33     V34    10.0   .     S
V33     V35    10.0   1_455     S
V34     V25    10.0   1_554     S
V34     V58    10.0   .     S
V34     V88    10.0   1_554     S
V35     V22    10.0   1_655     S
V35     V91    10.0   .     S
V35     V36    10.0   .     S
V35     V33    10.0   1_655     S
V36     V94    10.0   .     S
V36     V55    10.0   .     S
V37     V38    10.0   .     S
V37     V42    10.0   1_545     S
V38     V39    10.0   .     S
V38     V51    10.0   .     S
V39     V16    10.0   1_545     S
V39     V40    10.0   .     S
V39     V52    10.0   .     S
V40     V2    10.0   1_556     S
V40     V45    10.0   1_556     S
V41     V50    10.0   1_455     S
V41     V42    10.0   .     S
V41     V44    10.0   .     S
V42     V14    10.0   1_565     S
V42     V37    10.0   1_565     S
V42     V59    10.0   .     S
V43     V44    10.0   .     S
V43     V47    10.0   1_455     S
V43     V53    10.0   .     S
V45     V57    10.0   .     S
V45     V46    10.0   .     S
V45     V40    10.0   1_554     S
V46     V56    10.0   .     S
V46     V48    10.0   .     S
V47     V48    10.0   .     S
V47     V43    10.0   1_655     S
V47     V54    10.0   1_655     S
V48     V4    10.0   1_554     S
V49     V65    10.0   .     S
V49     V50    10.0   .     S
V49     V52    10.0   1_565     S
V50     V41    10.0   1_655     S
V50     V63    10.0   .     S
V50     V59    10.0   1_655     S
V51     V52    10.0   .     S
V51     V55    10.0   .     S
V51     V68    10.0   .     S
V52     V27    10.0   1_545     S
V52     V49    10.0   1_545     S
V53     V54    10.0   .     S
V53     V58    10.0   .     S
V54     V47    10.0   1_455     S
V54     V60    10.0   1_554     S
V54     V62    10.0   .     S
V55     V56    10.0   .     S
V55     V67    10.0   .     S
V56     V57    10.0   .     S
V57     V69    10.0   .     S
V57     V58    10.0   .     S
V58     V71    10.0   1_554     S
V59     V26    10.0   1_565     S
V59     V60    10.0   .     S
V59     V50    10.0   1_455     S
V60     V54    10.0   1_556     S
V60     V61    10.0   1_556     S
V61     V60    10.0   1_554     S
V61     V62    10.0   .     S
V61     V70    10.0   1_565     S
V61     V95    10.0   .     S
V62     V11    10.0   1_455     S
V62     V66    10.0   1_455     S
V63     V5    10.0   1_655     S
V63     V64    10.0   .     S
V63     V65    10.0   .     S
V64     V67    10.0   .     S
V64     V93    10.0   .     S
V65     V90    10.0   .     S
V65     V66    10.0   .     S
V66     V92    10.0   1_565     S
V66     V62    10.0   1_655     S
V67     V68    10.0   .     S
V67     V94    10.0   .     S
V68     V72    10.0   .     S
V69     V70    10.0   .     S
V69     V71    10.0   1_554     S
V70     V61    10.0   1_545     S
V70     V96    10.0   1_545     S
V71     V58    10.0   1_556     S
V71     V88    10.0   .     S
V71     V72    10.0   .     S
V71     V69    10.0   1_556     S
V72     V85    10.0   .     S
V73     V12    10.0   1_545     S
V73     V74    10.0   .     S
V73     V76    10.0   1_655     S
V73     V92    10.0   .     S
V74     V23    10.0   1_554     S
V74     V78    10.0   1_554     S
V75     V76    10.0   .     S
V75     V82    10.0   1_545     S
V76     V73    10.0   1_455     S
V76     V91    10.0   1_455     S
V77     V93    10.0   .     S
V77     V78    10.0   .     S
V77     V79    10.0   .     S
V78     V87    10.0   1_655     S
V78     V74    10.0   1_556     S
V79     V18    10.0   1_556     S
V79     V80    10.0   .     S
V80     V83    10.0   .     S
V80     V86    10.0   .     S
V81     V89    10.0   .     S
V81     V82    10.0   .     S
V81     V84    10.0   .     S
V82     V10    10.0   1_565     S
V82     V75    10.0   1_565     S
V82     V96    10.0   .     S
V83     V84    10.0   .     S
V83     V85    10.0   .     S
V85     V86    10.0   .     S
V85     V88    10.0   .     S
V86     V95    10.0   1_556     S
V87     V78    10.0   1_455     S
V87     V88    10.0   .     S
V87     V93    10.0   1_455     S
V88     V34    10.0   1_556     S
V89     V90    10.0   .     S
V89     V96    10.0   .     S
V90     V92    10.0   1_565     S
V91     V76    10.0   1_655     S
V91     V92    10.0   .     S
V91     V94    10.0   .     S
V92     V66    10.0   1_545     S
V92     V90    10.0   1_545     S
V93     V87    10.0   1_655     S
V93     V94    10.0   .     S
V95     V30    10.0   1_554     S
V95     V96    10.0   .     S
V95     V86    10.0   1_554     S
V96     V70    10.0   1_565     S
