data_uky
_audit_creation_date              2020-02-02
_audit_creation_method            'Pymatgen'
_symmetry_space_group_name_H-M    'P1'
_symmetry_Int_Tables_number       1
loop_
_symmetry_equiv_pos_as_xyz
  x,y,z
_cell_length_a                    43.3581
_cell_length_b                    43.3581
_cell_length_c                    43.3581
_cell_angle_alpha                 90.0
_cell_angle_beta                 90.0
_cell_angle_gamma                 90.0
loop_
_atom_site_label
_atom_site_type_symbol
_atom_site_fract_x
_atom_site_fract_y
_atom_site_fract_z
V1     V     0.9872   0.5327   0.6394
V2     V     0.8894   0.7173   0.7372
V3     V     0.9872   0.4673   0.8606
V4     V     0.8894   0.2827   0.7628
V5     V     0.1106   0.2173   0.7628
V6     V     0.0128   0.0327   0.8606
V7     V     0.1106   0.7827   0.7372
V8     V     0.0128   0.9673   0.6394
V9     V     0.6394   0.9872   0.5327
V10     V     0.7372   0.8894   0.7173
V11     V     0.7372   0.1106   0.7827
V12     V     0.6394   0.0128   0.9673
V13     V     0.8606   0.9872   0.4673
V14     V     0.7628   0.8894   0.2827
V15     V     0.7628   0.1106   0.2173
V16     V     0.8606   0.0128   0.0327
V17     V     0.1394   0.5128   0.4673
V18     V     0.2372   0.6106   0.2827
V19     V     0.1394   0.4872   0.0327
V20     V     0.2372   0.3894   0.2173
V21     V     0.2628   0.6106   0.7173
V22     V     0.3606   0.5128   0.5327
V23     V     0.2628   0.3894   0.7827
V24     V     0.3606   0.4872   0.9673
V25     V     0.4673   0.1394   0.5128
V26     V     0.2827   0.2372   0.6106
V27     V     0.0327   0.1394   0.4872
V28     V     0.2173   0.2372   0.3894
V29     V     0.7173   0.2628   0.6106
V30     V     0.5327   0.3606   0.5128
V31     V     0.7827   0.2628   0.3894
V32     V     0.9673   0.3606   0.4872
V33     V     0.5128   0.4673   0.1394
V34     V     0.6106   0.2827   0.2372
V35     V     0.4872   0.0327   0.1394
V36     V     0.3894   0.2173   0.2372
V37     V     0.6106   0.7173   0.2628
V38     V     0.5128   0.5327   0.3606
V39     V     0.3894   0.7827   0.2628
V40     V     0.4872   0.9673   0.3606
V41     V     0.5327   0.6394   0.9872
V42     V     0.7173   0.7372   0.8894
V43     V     0.4673   0.8606   0.9872
V44     V     0.2827   0.7628   0.8894
V45     V     0.2173   0.7628   0.1106
V46     V     0.0327   0.8606   0.0128
V47     V     0.7827   0.7372   0.1106
V48     V     0.9673   0.6394   0.0128
loop_
_geom_bond_atom_site_label_1
_geom_bond_atom_site_label_2
_geom_bond_distance
_geom_bond_site_symmetry_2
_ccdc_geom_bond_type
V1     V17    10.0   1_655     S
V1     V32    10.0   .     S
V1     V2    9.999   .     S
V1     V3    10.0   .     S
V2     V42    10.0   .     S
V2     V10    10.0   .     S
V2     V7    10.0   1_655     S
V3     V19    10.0   1_656     S
V3     V48    10.0   1_556     S
V3     V4    9.999   .     S
V4     V5    10.0   1_655     S
V4     V11    10.0   .     S
V4     V29    10.0   .     S
V5     V23    10.0   .     S
V5     V26    10.0   .     S
V5     V6    9.999   .     S
V5     V4    10.0   1_455     S
V6     V16    10.0   1_456     S
V6     V46    10.0   1_546     S
V6     V8    10.0   1_545     S
V7     V8    9.999   .     S
V7     V2    10.0   1_455     S
V7     V44    10.0   .     S
V7     V21    10.0   .     S
V8     V6    10.0   1_565     S
V8     V13    10.0   1_455     S
V8     V27    10.0   1_565     S
V9     V25    10.0   1_565     S
V9     V40    10.0   .     S
V9     V10    9.999   .     S
V9     V13    10.0   .     S
V10     V42    10.0   .     S
V10     V11    10.0   1_565     S
V11     V29    10.0   .     S
V11     V12    9.999   .     S
V11     V10    10.0   1_545     S
V12     V16    10.0   1_556     S
V12     V43    10.0   1_545     S
V12     V35    10.0   1_556     S
V13     V8    10.0   1_655     S
V13     V27    10.0   1_665     S
V13     V14    9.999   .     S
V14     V15    10.0   1_565     S
V14     V47    10.0   .     S
V14     V37    10.0   .     S
V15     V16    9.999   .     S
V15     V14    10.0   1_545     S
V15     V34    10.0   .     S
V15     V31    10.0   .     S
V16     V6    10.0   1_654     S
V16     V46    10.0   1_645     S
V16     V12    10.0   1_554     S
V17     V32    10.0   1_455     S
V17     V1    10.0   1_455     S
V17     V18    9.999   .     S
V17     V22    10.0   .     S
V18     V20    10.0   .     S
V18     V45    10.0   .     S
V18     V39    10.0   .     S
V19     V3    10.0   1_454     S
V19     V48    10.0   1_455     S
V19     V20    9.999   .     S
V19     V24    10.0   1_554     S
V20     V28    10.0   .     S
V20     V36    10.0   .     S
V21     V22    9.999   .     S
V21     V23    10.0   .     S
V21     V44    10.0   .     S
V22     V38    10.0   .     S
V22     V30    10.0   .     S
V23     V26    10.0   .     S
V23     V24    9.999   .     S
V24     V33    10.0   1_556     S
V24     V41    10.0   .     S
V24     V19    10.0   1_556     S
V25     V40    10.0   1_545     S
V25     V9    10.0   1_545     S
V25     V26    9.999   .     S
V25     V30    10.0   .     S
V26     V28    10.0   .     S
V27     V13    10.0   1_445     S
V27     V8    10.0   1_545     S
V27     V28    9.999   .     S
V27     V32    10.0   1_455     S
V28     V36    10.0   .     S
V29     V30    9.999   .     S
V29     V31    10.0   .     S
V30     V38    10.0   .     S
V31     V34    10.0   .     S
V31     V32    9.999   .     S
V32     V17    10.0   1_655     S
V32     V27    10.0   1_655     S
V33     V24    10.0   1_554     S
V33     V41    10.0   1_554     S
V33     V34    9.999   .     S
V33     V38    10.0   .     S
V34     V36    10.0   .     S
V35     V36    9.999   .     S
V35     V40    10.0   1_545     S
V35     V43    10.0   1_544     S
V35     V12    10.0   1_554     S
V37     V47    10.0   .     S
V37     V38    9.999   .     S
V37     V39    10.0   .     S
V39     V40    9.999   .     S
V39     V45    10.0   .     S
V40     V25    10.0   1_565     S
V40     V35    10.0   1_565     S
V41     V33    10.0   1_556     S
V41     V42    9.999   .     S
V41     V43    10.0   .     S
V42     V47    10.0   1_556     S
V43     V35    10.0   1_566     S
V43     V12    10.0   1_565     S
V43     V44    9.999   .     S
V44     V45    10.0   1_556     S
V45     V46    9.999   .     S
V45     V44    10.0   1_554     S
V46     V6    10.0   1_564     S
V46     V16    10.0   1_465     S
V46     V48    10.0   1_455     S
V47     V48    9.999   .     S
V47     V42    10.0   1_554     S
V48     V3    10.0   1_554     S
V48     V19    10.0   1_655     S
V48     V46    10.0   1_655     S
