data_ula
_audit_creation_date              2020-02-02
_audit_creation_method            'Pymatgen'
_symmetry_space_group_name_H-M    'P1'
_symmetry_Int_Tables_number       1
loop_
_symmetry_equiv_pos_as_xyz
  x,y,z
_cell_length_a                    47.3067
_cell_length_b                    47.3067
_cell_length_c                    47.3067
_cell_angle_alpha                 90.0
_cell_angle_beta                 90.0
_cell_angle_gamma                 90.0
loop_
_atom_site_label
_atom_site_type_symbol
_atom_site_fract_x
_atom_site_fract_y
_atom_site_fract_z
V1     V     0.0248   0.453   0.8447
V2     V     0.047   0.3447   0.0248
V3     V     0.8447   0.4752   0.953
V4     V     0.1553   0.5248   0.047
V5     V     0.9752   0.547   0.1553
V6     V     0.953   0.6553   0.9752
V7     V     0.8447   0.5248   0.547
V8     V     0.953   0.3447   0.5248
V9     V     0.9752   0.453   0.3447
V10     V     0.1553   0.4752   0.453
V11     V     0.0248   0.547   0.6553
V12     V     0.047   0.6553   0.4752
V13     V     0.5248   0.547   0.8447
V14     V     0.3447   0.5248   0.953
V15     V     0.453   0.3447   0.9752
V16     V     0.4752   0.453   0.1553
V17     V     0.547   0.6553   0.0248
V18     V     0.6553   0.4752   0.047
V19     V     0.453   0.6553   0.5248
V20     V     0.4752   0.547   0.3447
V21     V     0.6553   0.5248   0.453
V22     V     0.547   0.3447   0.4752
V23     V     0.5248   0.453   0.6553
V24     V     0.3447   0.4752   0.547
V25     V     0.547   0.8447   0.5248
V26     V     0.5248   0.953   0.3447
V27     V     0.453   0.1553   0.4752
V28     V     0.3447   0.9752   0.453
V29     V     0.4752   0.047   0.6553
V30     V     0.6553   0.0248   0.547
V31     V     0.453   0.8447   0.0248
V32     V     0.3447   0.0248   0.047
V33     V     0.4752   0.953   0.8447
V34     V     0.5248   0.047   0.1553
V35     V     0.547   0.1553   0.9752
V36     V     0.6553   0.9752   0.953
V37     V     0.953   0.1553   0.0248
V38     V     0.8447   0.9752   0.047
V39     V     0.0248   0.953   0.1553
V40     V     0.047   0.8447   0.9752
V41     V     0.1553   0.0248   0.953
V42     V     0.9752   0.047   0.8447
V43     V     0.0248   0.047   0.3447
V44     V     0.8447   0.0248   0.453
V45     V     0.953   0.8447   0.4752
V46     V     0.047   0.1553   0.5248
V47     V     0.1553   0.9752   0.547
V48     V     0.9752   0.953   0.6553
V49     V     0.7252   0.5947   0.797
V50     V     0.9053   0.703   0.7748
V51     V     0.5947   0.797   0.7252
V52     V     0.703   0.7748   0.9053
V53     V     0.797   0.7252   0.5947
V54     V     0.7748   0.9053   0.703
V55     V     0.203   0.7748   0.5947
V56     V     0.2252   0.5947   0.703
V57     V     0.297   0.7252   0.9053
V58     V     0.4053   0.703   0.7252
V59     V     0.0947   0.797   0.7748
V60     V     0.2748   0.9053   0.797
V61     V     0.0947   0.703   0.2748
V62     V     0.2748   0.5947   0.297
V63     V     0.203   0.7252   0.0947
V64     V     0.297   0.7748   0.4053
V65     V     0.4053   0.797   0.2252
V66     V     0.2252   0.9053   0.203
V67     V     0.5947   0.203   0.7748
V68     V     0.7252   0.4053   0.703
V69     V     0.703   0.2252   0.5947
V70     V     0.7748   0.0947   0.797
V71     V     0.9053   0.297   0.7252
V72     V     0.797   0.2748   0.9053
V73     V     0.2748   0.0947   0.703
V74     V     0.0947   0.203   0.7252
V75     V     0.297   0.2748   0.5947
V76     V     0.4053   0.297   0.7748
V77     V     0.2252   0.4053   0.797
V78     V     0.203   0.2252   0.9053
V79     V     0.297   0.2252   0.0947
V80     V     0.2748   0.4053   0.203
V81     V     0.2252   0.0947   0.297
V82     V     0.4053   0.203   0.2748
V83     V     0.0947   0.297   0.2252
V84     V     0.203   0.2748   0.4053
V85     V     0.703   0.2748   0.0947
V86     V     0.5947   0.297   0.2748
V87     V     0.7252   0.0947   0.203
V88     V     0.9053   0.203   0.2252
V89     V     0.797   0.2252   0.4053
V90     V     0.7748   0.4053   0.297
V91     V     0.797   0.7748   0.0947
V92     V     0.7252   0.9053   0.297
V93     V     0.9053   0.797   0.2748
V94     V     0.7748   0.5947   0.203
V95     V     0.703   0.7252   0.4053
V96     V     0.5947   0.703   0.2252
loop_
_geom_bond_atom_site_label_1
_geom_bond_atom_site_label_2
_geom_bond_distance
_geom_bond_site_symmetry_2
_ccdc_geom_bond_type
V1     V2    10.0   1_556     S
V1     V3    10.0   1_455     S
V1     V11    10.0   .     S
V1     V77    10.001   .     S
V2     V1    10.0   1_554     S
V2     V4    10.0   .     S
V2     V37    10.0   1_455     S
V2     V83    10.001   .     S
V3     V1    10.0   1_655     S
V3     V6    10.0   .     S
V3     V18    10.0   1_556     S
V3     V72    10.001   .     S
V4     V5    10.0   1_455     S
V4     V14    10.0   1_554     S
V4     V63    10.001   .     S
V5     V4    10.0   1_655     S
V5     V6    10.0   1_554     S
V5     V9    10.0   .     S
V5     V94    10.001   .     S
V6     V5    10.0   1_556     S
V6     V40    10.0   1_655     S
V6     V50    10.001   .     S
V7     V11    10.0   1_655     S
V7     V8    10.0   .     S
V7     V21    10.0   .     S
V7     V53    10.001   .     S
V8     V9    10.0   .     S
V8     V46    10.0   1_655     S
V8     V71    10.001   .     S
V9     V10    10.0   1_655     S
V9     V90    10.001   .     S
V10     V9    10.0   1_455     S
V10     V12    10.0   .     S
V10     V24    10.0   .     S
V10     V84    10.001   .     S
V11     V7    10.0   1_455     S
V11     V12    10.0   .     S
V11     V56    10.001   .     S
V12     V45    10.0   1_455     S
V12     V61    10.001   .     S
V13     V17    10.0   1_556     S
V13     V14    10.0   .     S
V13     V23    10.0   .     S
V13     V49    10.001   .     S
V14     V15    10.0   .     S
V14     V4    10.0   1_556     S
V14     V57    10.001   .     S
V15     V16    10.0   1_556     S
V15     V35    10.0   .     S
V15     V76    10.001   .     S
V16     V15    10.0   1_554     S
V16     V18    10.0   .     S
V16     V20    10.0   .     S
V16     V80    10.001   .     S
V17     V13    10.0   1_554     S
V17     V18    10.0   .     S
V17     V31    10.0   .     S
V17     V96    10.001   .     S
V18     V3    10.0   1_554     S
V18     V85    10.001   .     S
V19     V24    10.0   .     S
V19     V20    10.0   .     S
V19     V25    10.0   .     S
V19     V58    10.001   .     S
V20     V21    10.0   .     S
V20     V62    10.001   .     S
V21     V22    10.0   .     S
V21     V95    10.001   .     S
V22     V23    10.0   .     S
V22     V27    10.0   .     S
V22     V86    10.001   .     S
V23     V24    10.0   .     S
V23     V68    10.001   .     S
V24     V75    10.001   .     S
V25     V30    10.0   1_565     S
V25     V26    10.0   .     S
V25     V51    10.001   .     S
V26     V28    10.0   .     S
V26     V34    10.0   1_565     S
V26     V92    10.001   .     S
V27     V28    10.0   1_545     S
V27     V29    10.0   .     S
V27     V82    10.001   .     S
V28     V27    10.0   1_565     S
V28     V47    10.0   .     S
V28     V64    10.001   .     S
V29     V30    10.0   .     S
V29     V33    10.0   1_545     S
V29     V73    10.001   .     S
V30     V25    10.0   1_545     S
V30     V44    10.0   .     S
V30     V69    10.001   .     S
V31     V32    10.0   1_565     S
V31     V33    10.0   1_554     S
V31     V65    10.001   .     S
V32     V31    10.0   1_545     S
V32     V34    10.0   .     S
V32     V41    10.0   1_554     S
V32     V79    10.001   .     S
V33     V29    10.0   1_565     S
V33     V31    10.0   1_556     S
V33     V36    10.0   .     S
V33     V60    10.001   .     S
V34     V26    10.0   1_545     S
V34     V35    10.0   1_554     S
V34     V87    10.001   .     S
V35     V34    10.0   1_556     S
V35     V36    10.0   1_545     S
V35     V67    10.001   .     S
V36     V35    10.0   1_565     S
V36     V38    10.0   1_556     S
V36     V52    10.001   .     S
V37     V2    10.0   1_655     S
V37     V38    10.0   1_545     S
V37     V42    10.0   1_554     S
V37     V88    10.001   .     S
V38     V37    10.0   1_565     S
V38     V39    10.0   1_655     S
V38     V36    10.0   1_554     S
V38     V91    10.001   .     S
V39     V38    10.0   1_455     S
V39     V40    10.0   1_554     S
V39     V43    10.0   1_565     S
V39     V66    10.001   .     S
V40     V39    10.0   1_556     S
V40     V41    10.0   1_565     S
V40     V6    10.0   1_455     S
V40     V59    10.001   .     S
V41     V32    10.0   1_556     S
V41     V40    10.0   1_545     S
V41     V42    10.0   1_455     S
V41     V78    10.001   .     S
V42     V41    10.0   1_655     S
V42     V37    10.0   1_556     S
V42     V48    10.0   1_545     S
V42     V70    10.001   .     S
V43     V46    10.0   .     S
V43     V44    10.0   1_455     S
V43     V39    10.0   1_545     S
V43     V81    10.001   .     S
V44     V43    10.0   1_655     S
V44     V45    10.0   1_545     S
V44     V89    10.001   .     S
V45     V12    10.0   1_655     S
V45     V44    10.0   1_565     S
V45     V48    10.0   .     S
V45     V93    10.001   .     S
V46     V8    10.0   1_455     S
V46     V47    10.0   1_545     S
V46     V74    10.001   .     S
V47     V46    10.0   1_565     S
V47     V48    10.0   1_455     S
V47     V55    10.001   .     S
V48     V47    10.0   1_655     S
V48     V42    10.0   1_565     S
V48     V54    10.001   .     S
V49     V52    10.0   .     S
V49     V50    10.0   .     S
V49     V68    10.0   .     S
V50     V53    10.0   .     S
V50     V59    10.0   1_655     S
V51     V54    10.0   .     S
V51     V52    10.0   .     S
V51     V58    10.0   .     S
V52     V91    10.0   1_556     S
V53     V54    10.0   .     S
V53     V95    10.0   .     S
V54     V70    10.0   1_565     S
V55     V59    10.0   .     S
V55     V56    10.0   .     S
V55     V64    10.0   .     S
V56     V58    10.0   .     S
V56     V77    10.0   .     S
V57     V58    10.0   .     S
V57     V60    10.0   .     S
V57     V63    10.0   1_556     S
V59     V60    10.0   .     S
V59     V50    10.0   1_455     S
V60     V73    10.0   1_565     S
V61     V62    10.0   .     S
V61     V63    10.0   .     S
V61     V93    10.0   1_455     S
V62     V64    10.0   .     S
V62     V80    10.0   .     S
V63     V66    10.0   .     S
V63     V57    10.0   1_554     S
V64     V65    10.0   .     S
V65     V66    10.0   .     S
V65     V96    10.0   .     S
V66     V81    10.0   1_565     S
V67     V70    10.0   .     S
V67     V69    10.0   .     S
V67     V76    10.0   .     S
V68     V69    10.0   .     S
V68     V71    10.0   .     S
V69     V89    10.0   .     S
V70     V72    10.0   .     S
V70     V54    10.0   1_545     S
V71     V72    10.0   .     S
V71     V74    10.0   1_655     S
V72     V85    10.0   1_556     S
V73     V75    10.0   .     S
V73     V74    10.0   .     S
V73     V60    10.0   1_545     S
V74     V78    10.0   .     S
V74     V71    10.0   1_455     S
V75     V76    10.0   .     S
V75     V84    10.0   .     S
V76     V77    10.0   .     S
V77     V78    10.0   .     S
V78     V79    10.0   1_556     S
V79     V82    10.0   .     S
V79     V80    10.0   .     S
V79     V78    10.0   1_554     S
V80     V83    10.0   .     S
V81     V84    10.0   .     S
V81     V82    10.0   .     S
V81     V66    10.0   1_545     S
V82     V86    10.0   .     S
V83     V84    10.0   .     S
V83     V88    10.0   1_455     S
V85     V86    10.0   .     S
V85     V87    10.0   .     S
V85     V72    10.0   1_554     S
V86     V90    10.0   .     S
V87     V88    10.0   .     S
V87     V92    10.0   1_545     S
V88     V89    10.0   .     S
V88     V83    10.0   1_655     S
V89     V90    10.0   .     S
V90     V94    10.0   .     S
V91     V93    10.0   .     S
V91     V94    10.0   .     S
V91     V52    10.0   1_554     S
V92     V95    10.0   .     S
V92     V93    10.0   .     S
V92     V87    10.0   1_565     S
V93     V61    10.0   1_655     S
V94     V96    10.0   .     S
V95     V96    10.0   .     S
