data_ulg
_audit_creation_date              2020-02-02
_audit_creation_method            'Pymatgen'
_symmetry_space_group_name_H-M    'P1'
_symmetry_Int_Tables_number       1
loop_
_symmetry_equiv_pos_as_xyz
  x,y,z
_cell_length_a                    67.501
_cell_length_b                    67.501
_cell_length_c                    67.501
_cell_angle_alpha                 90.0
_cell_angle_beta                 90.0
_cell_angle_gamma                 90.0
loop_
_atom_site_label
_atom_site_type_symbol
_atom_site_fract_x
_atom_site_fract_y
_atom_site_fract_z
V1     V     0.9042   0.7099   0.8123
V2     V     0.9599   0.6542   0.9377
V3     V     0.9377   0.5401   0.8458
V4     V     0.8123   0.5958   0.7901
V5     V     0.7901   0.6877   0.9042
V6     V     0.8458   0.5623   0.9599
V7     V     0.0623   0.9599   0.3458
V8     V     0.1877   0.9042   0.2901
V9     V     0.0401   0.8458   0.4377
V10     V     0.0958   0.7901   0.3123
V11     V     0.2099   0.8123   0.4042
V12     V     0.1542   0.9377   0.4599
V13     V     0.3458   0.0623   0.9599
V14     V     0.2901   0.1877   0.9042
V15     V     0.4377   0.0401   0.8458
V16     V     0.3123   0.0958   0.7901
V17     V     0.4042   0.2099   0.8123
V18     V     0.4599   0.1542   0.9377
V19     V     0.2099   0.1877   0.5958
V20     V     0.1542   0.0623   0.5401
V21     V     0.1877   0.0958   0.7099
V22     V     0.0623   0.0401   0.6542
V23     V     0.0958   0.2099   0.6877
V24     V     0.0401   0.1542   0.5623
V25     V     0.5958   0.2099   0.1877
V26     V     0.5401   0.1542   0.0623
V27     V     0.6542   0.0623   0.0401
V28     V     0.7099   0.1877   0.0958
V29     V     0.6877   0.0958   0.2099
V30     V     0.5623   0.0401   0.1542
V31     V     0.9042   0.2901   0.1877
V32     V     0.9599   0.3458   0.0623
V33     V     0.8458   0.4377   0.0401
V34     V     0.7901   0.3123   0.0958
V35     V     0.8123   0.4042   0.2099
V36     V     0.9377   0.4599   0.1542
V37     V     0.9042   0.2099   0.3123
V38     V     0.9599   0.1542   0.4377
V39     V     0.8123   0.0958   0.2901
V40     V     0.9377   0.0401   0.3458
V41     V     0.8458   0.0623   0.4599
V42     V     0.7901   0.1877   0.4042
V43     V     0.6877   0.9042   0.7901
V44     V     0.5623   0.9599   0.8458
V45     V     0.7099   0.8123   0.9042
V46     V     0.6542   0.9377   0.9599
V47     V     0.5958   0.7901   0.8123
V48     V     0.5401   0.8458   0.9377
V49     V     0.5958   0.2901   0.3123
V50     V     0.5401   0.3458   0.4377
V51     V     0.6542   0.4377   0.4599
V52     V     0.7099   0.3123   0.4042
V53     V     0.6877   0.4042   0.2901
V54     V     0.5623   0.4599   0.3458
V55     V     0.2901   0.3123   0.5958
V56     V     0.3458   0.4377   0.5401
V57     V     0.4377   0.4599   0.6542
V58     V     0.3123   0.4042   0.7099
V59     V     0.4042   0.2901   0.6877
V60     V     0.4599   0.3458   0.5623
V61     V     0.7901   0.8123   0.5958
V62     V     0.8458   0.9377   0.5401
V63     V     0.9042   0.7901   0.6877
V64     V     0.9599   0.8458   0.5623
V65     V     0.8123   0.9042   0.7099
V66     V     0.9377   0.9599   0.6542
V67     V     0.6877   0.5958   0.7099
V68     V     0.5623   0.5401   0.6542
V69     V     0.5958   0.7099   0.6877
V70     V     0.5401   0.6542   0.5623
V71     V     0.7099   0.6877   0.5958
V72     V     0.6542   0.5623   0.5401
V73     V     0.4377   0.9599   0.1542
V74     V     0.3123   0.9042   0.2099
V75     V     0.4042   0.7901   0.1877
V76     V     0.4599   0.8458   0.0623
V77     V     0.2901   0.8123   0.0958
V78     V     0.3458   0.9377   0.0401
V79     V     0.4042   0.7099   0.3123
V80     V     0.4599   0.6542   0.4377
V81     V     0.3123   0.5958   0.2901
V82     V     0.4377   0.5401   0.3458
V83     V     0.2901   0.6877   0.4042
V84     V     0.3458   0.5623   0.4599
V85     V     0.1877   0.5958   0.2099
V86     V     0.0623   0.5401   0.1542
V87     V     0.0401   0.6542   0.0623
V88     V     0.0958   0.7099   0.1877
V89     V     0.2099   0.6877   0.0958
V90     V     0.1542   0.5623   0.0401
V91     V     0.0623   0.4599   0.8458
V92     V     0.1877   0.4042   0.7901
V93     V     0.0958   0.2901   0.8123
V94     V     0.0401   0.3458   0.9377
V95     V     0.2099   0.3123   0.9042
V96     V     0.1542   0.4377   0.9599
loop_
_geom_bond_atom_site_label_1
_geom_bond_atom_site_label_2
_geom_bond_distance
_geom_bond_site_symmetry_2
_ccdc_geom_bond_type
V1     V5    9.999   .     S
V1     V2    9.999   .     S
V1     V4    9.999   .     S
V1     V63    10.001   .     S
V2     V3    9.999   .     S
V2     V6    9.999   .     S
V2     V87    10.001   1_656     S
V3     V6    9.999   .     S
V3     V4    9.999   .     S
V3     V91    10.001   1_655     S
V4     V5    9.999   .     S
V4     V67    10.001   .     S
V5     V6    9.999   .     S
V5     V45    10.001   .     S
V6     V33    10.001   1_556     S
V7     V12    9.999   .     S
V7     V8    9.999   .     S
V7     V9    9.999   .     S
V7     V40    10.001   1_465     S
V8     V10    9.999   .     S
V8     V11    9.999   .     S
V8     V74    10.001   .     S
V9     V10    9.999   .     S
V9     V12    9.999   .     S
V9     V64    10.001   1_455     S
V10     V11    9.999   .     S
V10     V88    10.001   .     S
V11     V12    9.999   .     S
V11     V83    10.001   .     S
V12     V20    10.001   1_565     S
V13     V18    9.999   .     S
V13     V14    9.999   .     S
V13     V15    9.999   .     S
V13     V78    10.001   1_546     S
V14     V16    9.999   .     S
V14     V17    9.999   .     S
V14     V95    10.001   .     S
V15     V16    9.999   .     S
V15     V18    9.999   .     S
V15     V44    10.001   1_545     S
V16     V17    9.999   .     S
V16     V21    10.001   .     S
V17     V18    9.999   .     S
V17     V59    10.001   .     S
V18     V26    10.001   1_556     S
V19     V21    9.999   .     S
V19     V20    9.999   .     S
V19     V23    9.999   .     S
V19     V55    10.001   .     S
V20     V12    10.001   1_545     S
V20     V24    9.999   .     S
V20     V22    9.999   .     S
V21     V23    9.999   .     S
V21     V22    9.999   .     S
V22     V24    9.999   .     S
V22     V66    10.001   1_445     S
V23     V24    9.999   .     S
V23     V93    10.001   .     S
V24     V38    10.001   1_455     S
V25     V28    9.999   .     S
V25     V26    9.999   .     S
V25     V29    9.999   .     S
V25     V49    10.001   .     S
V26     V18    10.001   1_554     S
V26     V30    9.999   .     S
V26     V27    9.999   .     S
V27     V28    9.999   .     S
V27     V30    9.999   .     S
V27     V46    10.001   1_544     S
V28     V29    9.999   .     S
V28     V34    10.001   .     S
V29     V30    9.999   .     S
V29     V39    10.001   .     S
V30     V73    10.001   1_545     S
V31     V34    9.999   .     S
V31     V32    9.999   .     S
V31     V35    9.999   .     S
V31     V37    10.001   .     S
V32     V36    9.999   .     S
V32     V33    9.999   .     S
V32     V94    10.001   1_654     S
V33     V6    10.001   1_554     S
V33     V34    9.999   .     S
V33     V36    9.999   .     S
V34     V35    9.999   .     S
V35     V36    9.999   .     S
V35     V53    10.001   .     S
V36     V86    10.001   1_655     S
V37     V42    9.999   .     S
V37     V38    9.999   .     S
V37     V39    9.999   .     S
V38     V40    9.999   .     S
V38     V41    9.999   .     S
V38     V24    10.001   1_655     S
V39     V40    9.999   .     S
V39     V42    9.999   .     S
V40     V41    9.999   .     S
V40     V7    10.001   1_645     S
V41     V42    9.999   .     S
V41     V62    10.001   1_545     S
V42     V52    10.001   .     S
V43     V47    9.999   .     S
V43     V44    9.999   .     S
V43     V45    9.999   .     S
V43     V65    10.001   .     S
V44     V46    9.999   .     S
V44     V48    9.999   .     S
V44     V15    10.001   1_565     S
V45     V46    9.999   .     S
V45     V47    9.999   .     S
V46     V48    9.999   .     S
V46     V27    10.001   1_566     S
V47     V48    9.999   .     S
V47     V69    10.001   .     S
V48     V76    10.001   1_556     S
V49     V52    9.999   .     S
V49     V50    9.999   .     S
V49     V53    9.999   .     S
V50     V54    9.999   .     S
V50     V51    9.999   .     S
V50     V60    10.001   .     S
V51     V52    9.999   .     S
V51     V54    9.999   .     S
V51     V72    10.001   .     S
V52     V53    9.999   .     S
V53     V54    9.999   .     S
V54     V82    10.001   .     S
V55     V58    9.999   .     S
V55     V56    9.999   .     S
V55     V59    9.999   .     S
V56     V60    9.999   .     S
V56     V57    9.999   .     S
V56     V84    10.001   .     S
V57     V58    9.999   .     S
V57     V60    9.999   .     S
V57     V68    10.001   .     S
V58     V59    9.999   .     S
V58     V92    10.001   .     S
V59     V60    9.999   .     S
V61     V65    9.999   .     S
V61     V62    9.999   .     S
V61     V63    9.999   .     S
V61     V71    10.001   .     S
V62     V41    10.001   1_565     S
V62     V64    9.999   .     S
V62     V66    9.999   .     S
V63     V64    9.999   .     S
V63     V65    9.999   .     S
V64     V66    9.999   .     S
V64     V9    10.001   1_655     S
V65     V66    9.999   .     S
V66     V22    10.001   1_665     S
V67     V69    9.999   .     S
V67     V68    9.999   .     S
V67     V71    9.999   .     S
V68     V72    9.999   .     S
V68     V70    9.999   .     S
V69     V71    9.999   .     S
V69     V70    9.999   .     S
V70     V72    9.999   .     S
V70     V80    10.001   .     S
V71     V72    9.999   .     S
V73     V78    9.999   .     S
V73     V74    9.999   .     S
V73     V76    9.999   .     S
V73     V30    10.001   1_565     S
V74     V75    9.999   .     S
V74     V77    9.999   .     S
V75     V77    9.999   .     S
V75     V76    9.999   .     S
V75     V79    10.001   .     S
V76     V78    9.999   .     S
V76     V48    10.001   1_554     S
V77     V78    9.999   .     S
V77     V89    10.001   .     S
V78     V13    10.001   1_564     S
V79     V83    9.999   .     S
V79     V80    9.999   .     S
V79     V81    9.999   .     S
V80     V82    9.999   .     S
V80     V84    9.999   .     S
V81     V82    9.999   .     S
V81     V83    9.999   .     S
V81     V85    10.001   .     S
V82     V84    9.999   .     S
V83     V84    9.999   .     S
V85     V88    9.999   .     S
V85     V86    9.999   .     S
V85     V89    9.999   .     S
V86     V36    10.001   1_455     S
V86     V90    9.999   .     S
V86     V87    9.999   .     S
V87     V2    10.001   1_454     S
V87     V88    9.999   .     S
V87     V90    9.999   .     S
V88     V89    9.999   .     S
V89     V90    9.999   .     S
V90     V96    10.001   1_554     S
V91     V96    9.999   .     S
V91     V92    9.999   .     S
V91     V94    9.999   .     S
V91     V3    10.001   1_455     S
V92     V93    9.999   .     S
V92     V95    9.999   .     S
V93     V95    9.999   .     S
V93     V94    9.999   .     S
V94     V96    9.999   .     S
V94     V32    10.001   1_456     S
V95     V96    9.999   .     S
V96     V90    10.001   1_556     S
