data_umi
_audit_creation_date              2020-02-02
_audit_creation_method            'Pymatgen'
_symmetry_space_group_name_H-M    'P1'
_symmetry_Int_Tables_number       1
loop_
_symmetry_equiv_pos_as_xyz
  x,y,z
_cell_length_a                    30.2145
_cell_length_b                    30.2145
_cell_length_c                    62.088
_cell_angle_alpha                 90.0
_cell_angle_beta                 90.0
_cell_angle_gamma                 90.0
loop_
_atom_site_label
_atom_site_type_symbol
_atom_site_fract_x
_atom_site_fract_y
_atom_site_fract_z
V1     V     0.8347   0.4156   0.0693
V2     V     0.1653   0.4156   0.0693
V3     V     0.8347   0.5844   0.9307
V4     V     0.1653   0.5844   0.9307
V5     V     0.8347   0.0844   0.0693
V6     V     0.1653   0.0844   0.0693
V7     V     0.8347   0.9156   0.9307
V8     V     0.1653   0.9156   0.9307
V9     V     0.3345   0.9153   0.1807
V10     V     0.3345   0.5847   0.1807
V11     V     0.1656   0.9153   0.3193
V12     V     0.1656   0.5847   0.3193
V13     V     0.6656   0.5847   0.1807
V14     V     0.6656   0.9153   0.1807
V15     V     0.8344   0.9153   0.3193
V16     V     0.8344   0.5847   0.3193
V17     V     0.6653   0.5844   0.5693
V18     V     0.3347   0.5844   0.5693
V19     V     0.6653   0.4156   0.4307
V20     V     0.3347   0.4156   0.4307
V21     V     0.6653   0.9156   0.5693
V22     V     0.3347   0.9156   0.5693
V23     V     0.6653   0.0844   0.4307
V24     V     0.3347   0.0844   0.4307
V25     V     0.1656   0.4153   0.6807
V26     V     0.1656   0.0847   0.6807
V27     V     0.3345   0.0847   0.8193
V28     V     0.3345   0.4153   0.8193
V29     V     0.8344   0.0847   0.6807
V30     V     0.8344   0.4153   0.6807
V31     V     0.6656   0.4153   0.8193
V32     V     0.6656   0.0847   0.8193
loop_
_geom_bond_atom_site_label_1
_geom_bond_atom_site_label_2
_geom_bond_distance
_geom_bond_site_symmetry_2
_ccdc_geom_bond_type
V1     V2    9.986   1_655     S
V1     V3    10.002   1_554     S
V1     V5    10.004   .     S
V1     V13    10.008   .     S
V2     V1    9.986   1_455     S
V2     V4    10.002   1_554     S
V2     V6    10.004   .     S
V2     V10    10.008   .     S
V3     V1    10.002   1_556     S
V3     V4    9.986   1_655     S
V3     V7    10.004   .     S
V3     V31    10.008   .     S
V4     V3    9.986   1_455     S
V4     V2    10.002   1_556     S
V4     V8    10.004   .     S
V4     V28    10.008   .     S
V5     V6    9.986   1_655     S
V5     V7    10.002   1_544     S
V5     V14    10.008   1_545     S
V6     V5    9.986   1_455     S
V6     V8    10.002   1_544     S
V6     V9    10.008   1_545     S
V7     V8    9.986   1_655     S
V7     V5    10.002   1_566     S
V7     V32    10.008   1_565     S
V8     V7    9.986   1_455     S
V8     V6    10.002   1_566     S
V8     V27    10.008   1_565     S
V9     V10    9.986   .     S
V9     V11    10.002   .     S
V9     V14    10.004   .     S
V9     V6    10.008   1_565     S
V10     V12    10.002   .     S
V10     V13    10.004   .     S
V11     V12    9.986   .     S
V11     V15    10.004   1_455     S
V11     V24    10.008   1_565     S
V12     V16    10.004   1_455     S
V12     V20    10.008   .     S
V13     V14    9.986   .     S
V13     V16    10.002   .     S
V14     V15    10.002   .     S
V14     V5    10.008   1_565     S
V15     V16    9.986   .     S
V15     V11    10.004   1_655     S
V15     V23    10.008   1_565     S
V16     V12    10.004   1_655     S
V16     V19    10.008   .     S
V17     V18    9.986   .     S
V17     V19    10.002   .     S
V17     V21    10.004   .     S
V17     V30    10.008   .     S
V18     V20    10.002   .     S
V18     V22    10.004   .     S
V18     V25    10.008   .     S
V19     V20    9.986   .     S
V19     V23    10.004   .     S
V20     V24    10.004   .     S
V21     V22    9.986   .     S
V21     V23    10.002   1_565     S
V21     V29    10.008   1_565     S
V22     V24    10.002   1_565     S
V22     V26    10.008   1_565     S
V23     V21    10.002   1_545     S
V23     V24    9.986   .     S
V23     V15    10.008   1_545     S
V24     V22    10.002   1_545     S
V24     V11    10.008   1_545     S
V25     V26    9.986   .     S
V25     V28    10.002   .     S
V25     V30    10.004   1_455     S
V26     V27    10.002   .     S
V26     V29    10.004   1_455     S
V26     V22    10.008   1_545     S
V27     V28    9.986   .     S
V27     V32    10.004   .     S
V27     V8    10.008   1_545     S
V28     V31    10.004   .     S
V29     V30    9.986   .     S
V29     V32    10.002   .     S
V29     V26    10.004   1_655     S
V29     V21    10.008   1_545     S
V30     V31    10.002   .     S
V30     V25    10.004   1_655     S
V31     V32    9.986   .     S
V32     V7    10.008   1_545     S
