data_umn
_audit_creation_date              2020-02-02
_audit_creation_method            'Pymatgen'
_symmetry_space_group_name_H-M    'P1'
_symmetry_Int_Tables_number       1
loop_
_symmetry_equiv_pos_as_xyz
  x,y,z
_cell_length_a                    60.4254
_cell_length_b                    60.4254
_cell_length_c                    23.2752
_cell_angle_alpha                 90.0
_cell_angle_beta                 90.0
_cell_angle_gamma                 120.0
loop_
_atom_site_label
_atom_site_type_symbol
_atom_site_fract_x
_atom_site_fract_y
_atom_site_fract_z
V1     V     0.6811   0.921   0.371
V2     V     0.76   0.079   0.129
V3     V     0.9066   0.2544   0.2043
V4     V     0.9856   0.4123   0.9624
V5     V     0.0934   0.7456   0.7957
V6     V     0.0144   0.5877   0.0376
V7     V     0.24   0.921   0.871
V8     V     0.3189   0.079   0.629
V9     V     0.3477   0.2544   0.7043
V10     V     0.4267   0.4123   0.4624
V11     V     0.6523   0.7456   0.2957
V12     V     0.5733   0.5877   0.5376
V13     V     0.921   0.24   0.629
V14     V     0.079   0.3189   0.871
V15     V     0.7456   0.0934   0.7043
V16     V     0.5877   0.0144   0.4624
V17     V     0.2544   0.9066   0.2957
V18     V     0.4123   0.9856   0.5376
V19     V     0.921   0.6811   0.129
V20     V     0.079   0.76   0.371
V21     V     0.4123   0.4267   0.0376
V22     V     0.2544   0.3477   0.7957
V23     V     0.7456   0.6523   0.2043
V24     V     0.5877   0.5733   0.9624
V25     V     0.6811   0.76   0.871
V26     V     0.76   0.6811   0.629
V27     V     0.6523   0.9066   0.7957
V28     V     0.5733   0.9856   0.0376
V29     V     0.9856   0.5733   0.4624
V30     V     0.9066   0.6523   0.7043
V31     V     0.0144   0.4267   0.5376
V32     V     0.0934   0.3477   0.2957
V33     V     0.4267   0.0144   0.9624
V34     V     0.3477   0.0934   0.2043
V35     V     0.24   0.3189   0.371
V36     V     0.3189   0.24   0.129
loop_
_geom_bond_atom_site_label_1
_geom_bond_atom_site_label_2
_geom_bond_distance
_geom_bond_site_symmetry_2
_ccdc_geom_bond_type
V1     V11    10.0   .     S
V1     V2    9.999   1_565     S
V1     V27    10.0   .     S
V1     V16    10.0   1_565     S
V2     V15    10.0   1_554     S
V2     V1    9.999   1_545     S
V2     V3    10.0   .     S
V2     V28    10.0   1_545     S
V3     V13    10.0   .     S
V3     V4    9.999   1_554     S
V3     V32    10.0   1_655     S
V4     V31    10.0   1_655     S
V4     V3    9.999   1_556     S
V4     V6    10.0   1_656     S
V4     V14    10.0   1_655     S
V5     V20    10.0   .     S
V5     V6    9.999   1_556     S
V5     V7    10.0   .     S
V5     V30    10.0   1_455     S
V6     V29    10.0   1_455     S
V6     V4    10.0   1_454     S
V6     V5    9.999   1_554     S
V6     V19    10.0   1_455     S
V7     V17    10.0   1_556     S
V7     V8    9.999   1_565     S
V7     V33    10.0   1_565     S
V8     V7    9.999   1_545     S
V8     V9    10.0   .     S
V8     V34    10.0   .     S
V8     V18    10.0   1_545     S
V9     V10    9.999   .     S
V9     V36    10.0   1_556     S
V9     V22    10.0   .     S
V10     V21    10.0   .     S
V10     V12    10.0   .     S
V10     V35    10.0   .     S
V11     V12    9.999   .     S
V11     V25    10.0   1_554     S
V11     V23    10.0   .     S
V12     V24    10.0   .     S
V12     V26    10.0   .     S
V13     V14    9.999   1_655     S
V13     V15    10.0   .     S
V13     V31    10.0   1_655     S
V14     V13    9.999   1_455     S
V14     V22    10.0   .     S
V14     V32    10.0   1_556     S
V14     V4    10.0   1_455     S
V15     V2    10.0   1_556     S
V15     V16    9.999   .     S
V15     V27    10.0   1_545     S
V16     V28    10.0   1_545     S
V16     V18    10.0   1_545     S
V16     V1    10.0   1_545     S
V17     V7    10.0   1_554     S
V17     V18    9.999   .     S
V17     V20    10.0   .     S
V17     V34    10.0   1_565     S
V18     V33    10.0   1_565     S
V18     V16    10.0   1_565     S
V18     V8    10.0   1_565     S
V19     V23    10.0   .     S
V19     V20    9.999   1_655     S
V19     V30    10.0   1_554     S
V19     V6    10.0   1_655     S
V20     V19    9.999   1_455     S
V20     V29    10.0   1_455     S
V21     V22    9.999   1_554     S
V21     V24    10.0   1_554     S
V21     V36    10.0   .     S
V22     V21    9.999   1_556     S
V22     V35    10.0   .     S
V23     V24    9.999   1_554     S
V23     V26    10.0   .     S
V24     V21    10.0   1_556     S
V24     V23    9.999   1_556     S
V24     V25    10.0   .     S
V25     V11    10.0   1_556     S
V25     V26    9.999   .     S
V25     V27    10.0   .     S
V26     V30    10.0   .     S
V27     V28    9.999   1_556     S
V27     V15    10.0   1_565     S
V28     V16    10.0   1_565     S
V28     V33    10.0   1_564     S
V28     V27    9.999   1_554     S
V28     V2    10.0   1_565     S
V29     V6    10.0   1_655     S
V29     V30    9.999   .     S
V29     V31    10.0   1_655     S
V29     V20    10.0   1_655     S
V30     V19    10.0   1_556     S
V30     V5    10.0   1_655     S
V31     V4    10.0   1_455     S
V31     V29    10.0   1_455     S
V31     V32    9.999   .     S
V31     V13    10.0   1_455     S
V32     V14    10.0   1_554     S
V32     V35    10.0   .     S
V32     V3    10.0   1_455     S
V33     V18    10.0   1_545     S
V33     V28    10.0   1_546     S
V33     V34    9.999   1_556     S
V33     V7    10.0   1_545     S
V34     V36    10.0   .     S
V34     V33    9.999   1_554     S
V34     V17    10.0   1_545     S
V35     V36    9.999   .     S
V36     V9    10.0   1_554     S
