data_umo
_audit_creation_date              2020-02-02
_audit_creation_method            'Pymatgen'
_symmetry_space_group_name_H-M    'P1'
_symmetry_Int_Tables_number       1
loop_
_symmetry_equiv_pos_as_xyz
  x,y,z
_cell_length_a                    34.7448
_cell_length_b                    34.7448
_cell_length_c                    23.7856
_cell_angle_alpha                 90.0
_cell_angle_beta                 90.0
_cell_angle_gamma                 120.0
loop_
_atom_site_label
_atom_site_type_symbol
_atom_site_fract_x
_atom_site_fract_y
_atom_site_fract_z
V1     V     0.1626   0.5548   0.3767
V2     V     0.1626   0.6078   0.79
V3     V     0.8374   0.4452   0.8767
V4     V     0.8374   0.3922   0.29
V5     V     0.4452   0.6078   0.71
V6     V     0.3922   0.5548   0.1233
V7     V     0.6078   0.4452   0.6233
V8     V     0.5548   0.3922   0.21
V9     V     0.4452   0.8374   0.4566
V10     V     0.3922   0.8374   0.0434
V11     V     0.6078   0.1626   0.5434
V12     V     0.5548   0.1626   0.9566
loop_
_geom_bond_atom_site_label_1
_geom_bond_atom_site_label_2
_geom_bond_distance
_geom_bond_site_symmetry_2
_ccdc_geom_bond_type
V1     V2    10.0   .     S
V1     V4    10.0   1_455     S
V1     V9    10.0   .     S
V1     V6    10.0   .     S
V2     V3    10.0   1_455     S
V2     V5    10.0   .     S
V2     V10    10.0   1_556     S
V3     V2    10.0   1_655     S
V3     V4    10.0   1_556     S
V3     V12    10.0   .     S
V3     V7    10.0   .     S
V4     V3    10.0   1_554     S
V4     V1    10.0   1_655     S
V4     V8    10.0   .     S
V4     V11    10.0   .     S
V5     V6    10.0   1_556     S
V5     V7    10.0   .     S
V5     V9    10.0   .     S
V6     V5    10.0   1_554     S
V6     V8    10.0   .     S
V6     V10    10.0   .     S
V7     V8    10.0   .     S
V7     V11    10.0   .     S
V8     V12    10.0   1_554     S
V9     V10    10.0   .     S
V9     V11    10.0   1_565     S
V10     V12    10.0   1_564     S
V10     V2    10.0   1_554     S
V11     V12    10.0   .     S
V11     V9    10.0   1_545     S
V12     V10    10.0   1_546     S
V12     V8    10.0   1_556     S
