data_umt
_audit_creation_date              2020-02-02
_audit_creation_method            'Pymatgen'
_symmetry_space_group_name_H-M    'P1'
_symmetry_Int_Tables_number       1
loop_
_symmetry_equiv_pos_as_xyz
  x,y,z
_cell_length_a                    35.6422
_cell_length_b                    35.6422
_cell_length_c                    42.6416
_cell_angle_alpha                 90.0
_cell_angle_beta                 90.0
_cell_angle_gamma                 120.0
loop_
_atom_site_label
_atom_site_type_symbol
_atom_site_fract_x
_atom_site_fract_y
_atom_site_fract_z
S1     S     0.5294   0.9698   0.75
S2     S     0.4706   0.0302   0.25
S3     S     0.5596   0.5294   0.25
S4     S     0.4404   0.4706   0.75
S5     S     0.0302   0.5596   0.75
S6     S     0.9698   0.4404   0.25
H7     H     0.0   0.0   0.25
H8     H     0.0   0.0   0.75
Ce9     Ce     0.898   0.1788   0.1263
Er10     Er     0.1732   0.3237   0.25
Ce11     Ce     0.898   0.1788   0.3737
Ce12     Ce     0.102   0.8212   0.6263
Er13     Er     0.8268   0.6763   0.75
Ce14     Ce     0.102   0.8212   0.8737
Ce15     Ce     0.7192   0.898   0.6263
Er16     Er     0.8494   0.1732   0.75
Ce17     Ce     0.7192   0.898   0.8737
Ce18     Ce     0.2808   0.102   0.1263
Er19     Er     0.1506   0.8268   0.25
Ce20     Ce     0.2808   0.102   0.3737
Ti21     Ti     0.6667   0.3333   0.568
V22     V     0.9626   0.3673   0.5628
V23     V     0.0374   0.6327   0.4372
V24     V     0.4047   0.0374   0.5628
V25     V     0.5953   0.9626   0.4372
Ti26     Ti     0.3333   0.6667   0.432
V27     V     0.6327   0.5953   0.5628
V28     V     0.3673   0.4047   0.4372
Ce29     Ce     0.1788   0.2808   0.6263
Er30     Er     0.3237   0.1506   0.75
Ce31     Ce     0.1788   0.2808   0.8737
Ti32     Ti     0.6667   0.3333   0.932
V33     V     0.9626   0.3673   0.9372
V34     V     0.0374   0.6327   0.0628
V35     V     0.4047   0.0374   0.9372
V36     V     0.5953   0.9626   0.0628
Ti37     Ti     0.3333   0.6667   0.068
V38     V     0.6327   0.5953   0.9372
V39     V     0.3673   0.4047   0.0628
Ce40     Ce     0.8212   0.7192   0.3737
Er41     Er     0.6763   0.8494   0.25
Ce42     Ce     0.8212   0.7192   0.1263
loop_
_geom_bond_atom_site_label_1
_geom_bond_atom_site_label_2
_geom_bond_distance
_geom_bond_site_symmetry_2
_ccdc_geom_bond_type
S1     V24    10.0   1_565     S
S1     V35    10.0   1_565     S
S1     Er16    10.0   1_565     S
S2     V36    10.0   1_545     S
S2     V25    10.0   1_545     S
S2     Er19    10.0   1_545     S
S3     V39    10.0   .     S
S3     V28    10.0   .     S
S3     Er41    10.0   .     S
S4     V27    10.0   .     S
S4     V38    10.0   .     S
S4     Er30    10.0   .     S
S5     V22    10.0   1_455     S
S5     V33    10.0   1_455     S
S5     Er13    10.0   1_455     S
S6     V34    10.0   1_655     S
S6     V23    10.0   1_655     S
S6     Er10    10.0   1_655     S
H7     Er10    10.0   .     S
H7     Er41    10.0   1_445     S
H7     Er19    10.0   1_545     S
H8     Er30    10.0   .     S
H8     Er16    10.0   1_455     S
H8     Er13    10.0   1_445     S
Ce9     V36    10.0   1_545     S
Ce9     Er10    10.0   1_655     S
Ce9     V33    10.0   1_554     S
Er10     S6    10.0   1_455     S
Er10     Ce9    10.0   1_455     S
Er10     Ce11    10.0   1_455     S
Er10     V39    10.0   .     S
Er10     V28    10.0   .     S
Ce11     Er10    10.0   1_655     S
Ce11     V25    10.0   1_545     S
Ce11     V22    10.0   .     S
Ce12     V24    10.0   1_565     S
Ce12     Er13    10.0   1_455     S
Ce12     V23    10.0   .     S
Er13     H8    10.0   1_665     S
Er13     S5    10.0   1_655     S
Er13     Ce12    10.0   1_655     S
Er13     Ce14    10.0   1_655     S
Er13     V27    10.0   .     S
Er13     V38    10.0   .     S
Ce14     Er13    10.0   1_455     S
Ce14     V35    10.0   1_565     S
Ce14     V34    10.0   1_556     S
Ce15     V27    10.0   .     S
Ce15     Er16    10.0   1_565     S
Ce15     V25    10.0   .     S
Er16     H8    10.0   1_655     S
Er16     S1    10.0   1_545     S
Er16     Ce15    10.0   1_545     S
Er16     Ce17    10.0   1_545     S
Er16     V22    10.0   .     S
Er16     V33    10.0   .     S
Ce17     Er16    10.0   1_565     S
Ce17     V38    10.0   .     S
Ce17     V36    10.0   1_556     S
Ce18     V39    10.0   .     S
Ce18     Er19    10.0   1_545     S
Ce18     V35    10.0   1_554     S
Er19     H7    10.0   1_565     S
Er19     S2    10.0   1_565     S
Er19     Ce18    10.0   1_565     S
Er19     Ce20    10.0   1_565     S
Er19     V34    10.0   .     S
Er19     V23    10.0   .     S
Ce20     Er19    10.0   1_545     S
Ce20     V28    10.0   .     S
Ce20     V24    10.0   .     S
Ti21     V27    10.0   .     S
Ti21     V24    10.0   .     S
Ti21     V22    10.0   .     S
V22     S5    10.0   1_655     S
V22     V23    10.0   1_655     S
V22     Ce29    10.0   1_655     S
V23     S6    10.0   1_455     S
V23     V22    10.0   1_455     S
V23     Ti26    10.0   .     S
V23     Ce40    10.0   1_455     S
V24     S1    10.0   1_545     S
V24     Ce12    10.0   1_545     S
V24     V25    10.0   1_545     S
V24     Er30    10.0   .     S
V25     S2    10.0   1_565     S
V25     Ce11    10.0   1_565     S
V25     V24    10.0   1_565     S
V25     Ti26    10.0   .     S
V25     Er41    10.0   .     S
Ti26     V28    10.0   .     S
V27     Ce40    10.0   .     S
V27     V28    10.0   .     S
V28     Ce29    10.0   .     S
Ce29     V22    10.0   1_455     S
Ce29     Er30    10.0   .     S
Er30     Ce31    10.0   .     S
Er30     V35    10.0   .     S
Ce31     V33    10.0   1_455     S
Ce31     V39    10.0   1_556     S
Ti32     V38    10.0   .     S
Ti32     V33    10.0   .     S
Ti32     V35    10.0   .     S
V33     S5    10.0   1_655     S
V33     Ce31    10.0   1_655     S
V33     Ce9    10.0   1_556     S
V33     V34    10.0   1_656     S
V34     S6    10.0   1_455     S
V34     Ce14    10.0   1_554     S
V34     V33    10.0   1_454     S
V34     Ti37    10.0   .     S
V34     Ce42    10.0   1_455     S
V35     S1    10.0   1_545     S
V35     Ce14    10.0   1_545     S
V35     Ce18    10.0   1_556     S
V35     V36    10.0   1_546     S
V36     S2    10.0   1_565     S
V36     Ce9    10.0   1_565     S
V36     Ce17    10.0   1_554     S
V36     V35    10.0   1_564     S
V36     Ti37    10.0   .     S
V36     Er41    10.0   .     S
Ti37     V39    10.0   .     S
V38     Ce42    10.0   1_556     S
V38     V39    10.0   1_556     S
V39     Ce31    10.0   1_554     S
V39     V38    10.0   1_554     S
Ce40     V23    10.0   1_655     S
Ce40     Er41    10.0   .     S
Er41     H7    10.0   1_665     S
Er41     Ce42    10.0   .     S
Ce42     V38    10.0   1_554     S
Ce42     V34    10.0   1_655     S
