data_umy
_audit_creation_date              2020-02-02
_audit_creation_method            'Pymatgen'
_symmetry_space_group_name_H-M    'P1'
_symmetry_Int_Tables_number       1
loop_
_symmetry_equiv_pos_as_xyz
  x,y,z
_cell_length_a                    25.0588
_cell_length_b                    25.0588
_cell_length_c                    36.0855
_cell_angle_alpha                 90.0
_cell_angle_beta                 90.0
_cell_angle_gamma                 120.0
loop_
_atom_site_label
_atom_site_type_symbol
_atom_site_fract_x
_atom_site_fract_y
_atom_site_fract_z
V1     V     0.0744   0.3494   0.1302
V2     V     0.2751   0.3494   0.3698
V3     V     0.2751   0.9256   0.7969
V4     V     0.0744   0.7249   0.0364
V5     V     0.6506   0.9256   0.7031
V6     V     0.6506   0.7249   0.4636
V7     V     0.9256   0.2751   0.5364
V8     V     0.7249   0.0744   0.2969
V9     V     0.3494   0.2751   0.9636
V10     V     0.3494   0.0744   0.2031
V11     V     0.7249   0.6506   0.8698
V12     V     0.9256   0.6506   0.6302
loop_
_geom_bond_atom_site_label_1
_geom_bond_atom_site_label_2
_geom_bond_distance
_geom_bond_site_symmetry_2
_ccdc_geom_bond_type
V1     V2    10.0   .     S
V1     V8    10.0   1_455     S
V1     V4    10.0   .     S
V1     V9    10.0   1_554     S
V2     V6    10.0   .     S
V2     V10    10.0   .     S
V2     V7    10.0   1_455     S
V3     V4    10.0   1_556     S
V3     V9    10.0   1_565     S
V3     V5    10.0   .     S
V3     V12    10.0   1_455     S
V4     V3    10.0   1_554     S
V4     V11    10.0   1_454     S
V4     V10    10.0   1_565     S
V5     V7    10.0   1_565     S
V5     V6    10.0   .     S
V5     V11    10.0   .     S
V6     V12    10.0   .     S
V6     V8    10.0   1_565     S
V7     V5    10.0   1_545     S
V7     V8    10.0   .     S
V7     V2    10.0   1_655     S
V7     V12    10.0   .     S
V8     V1    10.0   1_655     S
V8     V6    10.0   1_545     S
V8     V10    10.0   .     S
V9     V3    10.0   1_545     S
V9     V10    10.0   1_556     S
V9     V1    10.0   1_556     S
V9     V11    10.0   .     S
V10     V9    10.0   1_554     S
V10     V4    10.0   1_545     S
V11     V4    10.0   1_656     S
V11     V12    10.0   .     S
V12     V3    10.0   1_655     S
