data_une
_audit_creation_date              2020-02-02
_audit_creation_method            'Pymatgen'
_symmetry_space_group_name_H-M    'P1'
_symmetry_Int_Tables_number       1
loop_
_symmetry_equiv_pos_as_xyz
  x,y,z
_cell_length_a                    26.0134
_cell_length_b                    26.0134
_cell_length_c                    36.5514
_cell_angle_alpha                 90.0
_cell_angle_beta                 90.0
_cell_angle_gamma                 120.0
loop_
_atom_site_label
_atom_site_type_symbol
_atom_site_fract_x
_atom_site_fract_y
_atom_site_fract_z
V1     V     0.9564   0.5921   0.6069
V2     V     0.7102   0.7412   0.7265
V3     V     0.2898   0.2588   0.2735
V4     V     0.0436   0.4079   0.3931
V5     V     0.6231   0.9255   0.9402
V6     V     0.3769   0.0745   0.0598
V7     V     0.969   0.7102   0.2735
V8     V     0.3643   0.9564   0.3931
V9     V     0.6357   0.0436   0.6069
V10     V     0.031   0.2898   0.7265
V11     V     0.6976   0.6231   0.0598
V12     V     0.3024   0.3769   0.9402
V13     V     0.4079   0.3643   0.6069
V14     V     0.2588   0.969   0.7265
V15     V     0.7412   0.031   0.2735
V16     V     0.5921   0.6357   0.3931
V17     V     0.9255   0.3024   0.0598
V18     V     0.0745   0.6976   0.9402
loop_
_geom_bond_atom_site_label_1
_geom_bond_atom_site_label_2
_geom_bond_distance
_geom_bond_site_symmetry_2
_ccdc_geom_bond_type
V1     V4    10.0   1_655     S
V1     V2    10.0   .     S
V1     V14    10.0   1_655     S
V1     V10    10.0   1_655     S
V2     V13    10.0   .     S
V2     V5    10.0   .     S
V2     V9    10.0   1_565     S
V3     V4    10.0   .     S
V3     V16    10.0   .     S
V3     V6    10.0   .     S
V3     V8    10.0   1_545     S
V4     V1    10.0   1_455     S
V4     V15    10.0   1_455     S
V4     V7    10.0   1_455     S
V5     V6    10.0   1_566     S
V5     V17    10.0   1_566     S
V5     V11    10.0   1_556     S
V6     V5    10.0   1_544     S
V6     V18    10.0   1_544     S
V6     V12    10.0   1_554     S
V7     V8    10.0   1_655     S
V7     V4    10.0   1_655     S
V7     V11    10.0   .     S
V7     V16    10.0   .     S
V8     V9    10.0   1_565     S
V8     V7    10.0   1_455     S
V8     V3    10.0   1_565     S
V8     V15    10.0   1_565     S
V9     V8    10.0   1_545     S
V9     V10    10.0   1_655     S
V9     V2    10.0   1_545     S
V9     V14    10.0   1_545     S
V10     V9    10.0   1_455     S
V10     V1    10.0   1_455     S
V10     V12    10.0   .     S
V10     V13    10.0   .     S
V11     V12    10.0   1_554     S
V11     V5    10.0   1_554     S
V11     V18    10.0   1_654     S
V12     V11    10.0   1_556     S
V12     V6    10.0   1_556     S
V12     V17    10.0   1_456     S
V13     V16    10.0   .     S
V13     V14    10.0   1_545     S
V14     V1    10.0   1_455     S
V14     V18    10.0   .     S
V14     V13    10.0   1_565     S
V14     V9    10.0   1_565     S
V15     V4    10.0   1_655     S
V15     V16    10.0   1_545     S
V15     V8    10.0   1_545     S
V15     V17    10.0   .     S
V16     V15    10.0   1_565     S
V17     V5    10.0   1_544     S
V17     V18    10.0   1_654     S
V17     V12    10.0   1_654     S
V18     V6    10.0   1_566     S
V18     V17    10.0   1_456     S
V18     V11    10.0   1_456     S
