data_unp
_audit_creation_date              2020-02-02
_audit_creation_method            'Pymatgen'
_symmetry_space_group_name_H-M    'P1'
_symmetry_Int_Tables_number       1
loop_
_symmetry_equiv_pos_as_xyz
  x,y,z
_cell_length_a                    33.996
_cell_length_b                    33.996
_cell_length_c                    44.6243
_cell_angle_alpha                 90.0
_cell_angle_beta                 90.0
_cell_angle_gamma                 120.0
loop_
_atom_site_label
_atom_site_type_symbol
_atom_site_fract_x
_atom_site_fract_y
_atom_site_fract_z
V1     V     0.866   0.057   0.1055
V2     V     0.191   0.134   0.1055
V3     V     0.943   0.809   0.1055
V4     V     0.057   0.866   0.8945
V5     V     0.134   0.191   0.8945
V6     V     0.809   0.943   0.8945
V7     V     0.8577   0.4673   0.4389
V8     V     0.5327   0.3904   0.4389
V9     V     0.6096   0.1423   0.4389
V10     V     0.4757   0.2763   0.2278
V11     V     0.7237   0.1994   0.2278
V12     V     0.8006   0.5243   0.2278
V13     V     0.2763   0.4757   0.7722
V14     V     0.1994   0.7237   0.7722
V15     V     0.5243   0.8006   0.7722
V16     V     0.4673   0.8577   0.5611
V17     V     0.3904   0.5327   0.5611
V18     V     0.1423   0.6096   0.5611
loop_
_geom_bond_atom_site_label_1
_geom_bond_atom_site_label_2
_geom_bond_distance
_geom_bond_site_symmetry_2
_ccdc_geom_bond_type
V1     V11    10.0   .     S
V1     V3    10.0   1_545     S
V1     V2    10.0   1_655     S
V1     V6    10.0   1_544     S
V2     V10    10.0   .     S
V2     V1    10.0   1_455     S
V2     V3    10.0   1_445     S
V2     V5    10.0   1_554     S
V3     V12    10.0   .     S
V3     V1    10.0   1_565     S
V3     V2    10.0   1_665     S
V3     V4    10.0   1_654     S
V4     V6    10.0   1_455     S
V4     V5    10.0   1_565     S
V4     V3    10.0   1_456     S
V4     V14    10.0   .     S
V5     V4    10.0   1_545     S
V5     V6    10.0   1_445     S
V5     V2    10.0   1_556     S
V5     V13    10.0   .     S
V6     V4    10.0   1_655     S
V6     V5    10.0   1_665     S
V6     V1    10.0   1_566     S
V6     V15    10.0   .     S
V7     V18    10.0   1_655     S
V7     V8    10.0   .     S
V7     V9    10.0   .     S
V7     V12    10.0   .     S
V8     V17    10.0   .     S
V8     V9    10.0   .     S
V8     V10    10.0   .     S
V9     V11    10.0   .     S
V9     V16    10.0   1_545     S
V10     V12    10.0   .     S
V10     V11    10.0   .     S
V11     V12    10.0   .     S
V13     V15    10.0   .     S
V13     V14    10.0   .     S
V13     V17    10.0   .     S
V14     V15    10.0   .     S
V14     V18    10.0   .     S
V15     V16    10.0   .     S
V16     V9    10.0   1_565     S
V16     V17    10.0   .     S
V16     V18    10.0   .     S
V17     V18    10.0   .     S
V18     V7    10.0   1_455     S
