data_uns
_audit_creation_date              2020-02-02
_audit_creation_method            'Pymatgen'
_symmetry_space_group_name_H-M    'P1'
_symmetry_Int_Tables_number       1
loop_
_symmetry_equiv_pos_as_xyz
  x,y,z
_cell_length_a                    37.1211
_cell_length_b                    37.1211
_cell_length_c                    39.6002
_cell_angle_alpha                 90.0
_cell_angle_beta                 90.0
_cell_angle_gamma                 120.0
loop_
_atom_site_label
_atom_site_type_symbol
_atom_site_fract_x
_atom_site_fract_y
_atom_site_fract_z
V1     V     0.7376   0.9173   0.4361
V2     V     0.5839   0.071   0.3972
V3     V     0.0827   0.2624   0.9361
V4     V     0.929   0.4161   0.8972
V5     V     0.2624   0.0827   0.5639
V6     V     0.4161   0.929   0.6028
V7     V     0.4043   0.2506   0.7694
V8     V     0.2506   0.4043   0.7306
V9     V     0.7494   0.5957   0.2694
V10     V     0.5957   0.7494   0.2306
V11     V     0.071   0.5839   0.1028
V12     V     0.9173   0.7376   0.0639
V13     V     0.513   0.929   0.1028
V14     V     0.8203   0.0827   0.0639
V15     V     0.8463   0.2506   0.2694
V16     V     0.1537   0.4043   0.2306
V17     V     0.1797   0.2624   0.4361
V18     V     0.487   0.4161   0.3972
V19     V     0.513   0.5839   0.6028
V20     V     0.8203   0.7376   0.5639
V21     V     0.8463   0.5957   0.7694
V22     V     0.1537   0.7494   0.7306
V23     V     0.487   0.071   0.8972
V24     V     0.1797   0.9173   0.9361
V25     V     0.5839   0.513   0.8972
V26     V     0.7376   0.8203   0.9361
V27     V     0.7494   0.1537   0.7694
V28     V     0.5957   0.8463   0.7306
V29     V     0.9173   0.1797   0.5639
V30     V     0.071   0.487   0.6028
V31     V     0.929   0.513   0.3972
V32     V     0.0827   0.8203   0.4361
V33     V     0.4043   0.1537   0.2694
V34     V     0.2506   0.8463   0.2306
V35     V     0.2624   0.1797   0.0639
V36     V     0.4161   0.487   0.1028
loop_
_geom_bond_atom_site_label_1
_geom_bond_atom_site_label_2
_geom_bond_distance
_geom_bond_site_symmetry_2
_ccdc_geom_bond_type
V1     V10    10.0   .     S
V1     V29    10.0   1_565     S
V1     V2    10.0   1_565     S
V1     V20    10.0   .     S
V2     V6    10.0   1_545     S
V2     V1    10.0   1_545     S
V2     V15    10.0   .     S
V2     V33    10.0   .     S
V3     V14    10.0   1_456     S
V3     V4    10.0   1_455     S
V3     V8    10.0   .     S
V3     V35    10.0   1_556     S
V4     V11    10.0   1_656     S
V4     V3    10.0   1_655     S
V4     V27    10.0   .     S
V4     V21    10.0   .     S
V5     V7    10.0   .     S
V5     V32    10.0   1_545     S
V5     V6    10.0   1_545     S
V5     V17    10.0   .     S
V6     V2    10.0   1_565     S
V6     V5    10.0   1_565     S
V6     V22    10.0   .     S
V6     V28    10.0   .     S
V7     V25    10.0   .     S
V7     V8    10.0   .     S
V7     V23    10.0   .     S
V8     V19    10.0   .     S
V8     V30    10.0   .     S
V9     V18    10.0   .     S
V9     V10    10.0   .     S
V9     V12    10.0   .     S
V9     V31    10.0   .     S
V10     V36    10.0   .     S
V10     V13    10.0   .     S
V11     V4    10.0   1_454     S
V11     V34    10.0   .     S
V11     V12    10.0   1_455     S
V11     V16    10.0   .     S
V12     V11    10.0   1_655     S
V12     V24    10.0   1_654     S
V12     V26    10.0   1_554     S
V13     V14    10.0   1_565     S
V13     V23    10.0   1_564     S
V13     V34    10.0   .     S
V14     V3    10.0   1_654     S
V14     V13    10.0   1_545     S
V14     V26    10.0   1_544     S
V14     V15    10.0   .     S
V15     V31    10.0   .     S
V15     V16    10.0   1_655     S
V16     V15    10.0   1_455     S
V16     V17    10.0   .     S
V16     V36    10.0   .     S
V17     V18    10.0   .     S
V17     V29    10.0   1_455     S
V18     V33    10.0   .     S
V18     V19    10.0   .     S
V19     V28    10.0   .     S
V19     V20    10.0   .     S
V20     V21    10.0   .     S
V20     V32    10.0   1_655     S
V21     V22    10.0   1_655     S
V21     V25    10.0   .     S
V22     V24    10.0   .     S
V22     V21    10.0   1_455     S
V22     V30    10.0   .     S
V23     V13    10.0   1_546     S
V23     V24    10.0   1_545     S
V23     V27    10.0   .     S
V24     V12    10.0   1_456     S
V24     V23    10.0   1_565     S
V24     V35    10.0   1_566     S
V25     V36    10.0   1_556     S
V25     V26    10.0   .     S
V26     V14    10.0   1_566     S
V26     V28    10.0   .     S
V26     V12    10.0   1_556     S
V27     V28    10.0   1_545     S
V27     V29    10.0   .     S
V28     V27    10.0   1_565     S
V29     V1    10.0   1_545     S
V29     V17    10.0   1_655     S
V29     V30    10.0   1_655     S
V30     V29    10.0   1_455     S
V30     V31    10.0   1_455     S
V31     V30    10.0   1_655     S
V31     V32    10.0   1_655     S
V32     V5    10.0   1_565     S
V32     V34    10.0   .     S
V32     V31    10.0   1_455     S
V32     V20    10.0   1_455     S
V33     V34    10.0   1_545     S
V33     V35    10.0   .     S
V34     V33    10.0   1_565     S
V35     V24    10.0   1_544     S
V35     V3    10.0   1_554     S
V35     V36    10.0   .     S
V36     V25    10.0   1_554     S
