data_unx
_audit_creation_date              2020-02-02
_audit_creation_method            'Pymatgen'
_symmetry_space_group_name_H-M    'P1'
_symmetry_Int_Tables_number       1
loop_
_symmetry_equiv_pos_as_xyz
  x,y,z
_cell_length_a                    39.4241
_cell_length_b                    39.4241
_cell_length_c                    39.4241
_cell_angle_alpha                 90.0
_cell_angle_beta                 90.0
_cell_angle_gamma                 90.0
loop_
_atom_site_label
_atom_site_type_symbol
_atom_site_fract_x
_atom_site_fract_y
_atom_site_fract_z
V1     V     0.5214   0.7286   0.625
V2     V     0.7286   0.625   0.5214
V3     V     0.625   0.5214   0.7286
V4     V     0.7286   0.875   0.9786
V5     V     0.625   0.9786   0.7714
V6     V     0.5214   0.7714   0.875
V7     V     0.875   0.9786   0.7286
V8     V     0.9786   0.7714   0.625
V9     V     0.7714   0.875   0.5214
V10     V     0.2286   0.375   0.9786
V11     V     0.125   0.4786   0.7714
V12     V     0.0214   0.2715   0.875
V13     V     0.375   0.4786   0.7286
V14     V     0.4786   0.2714   0.625
V15     V     0.2714   0.375   0.5214
V16     V     0.125   0.0214   0.7286
V17     V     0.2286   0.125   0.5214
V18     V     0.0214   0.2286   0.625
V19     V     0.375   0.0214   0.7714
V20     V     0.4786   0.2286   0.875
V21     V     0.2714   0.125   0.9786
V22     V     0.875   0.5214   0.7714
V23     V     0.9786   0.7286   0.875
V24     V     0.7714   0.625   0.9786
V25     V     0.4786   0.7714   0.125
V26     V     0.375   0.9786   0.2286
V27     V     0.2714   0.875   0.0214
V28     V     0.2286   0.875   0.4786
V29     V     0.125   0.9786   0.2715
V30     V     0.0214   0.7714   0.375
V31     V     0.2286   0.625   0.0214
V32     V     0.125   0.5214   0.2286
V33     V     0.0214   0.7286   0.125
V34     V     0.4786   0.7286   0.375
V35     V     0.375   0.5214   0.2715
V36     V     0.2714   0.625   0.4786
V37     V     0.5214   0.2714   0.375
V38     V     0.7286   0.375   0.4786
V39     V     0.625   0.4786   0.2715
V40     V     0.5214   0.2286   0.125
V41     V     0.7286   0.125   0.0214
V42     V     0.625   0.0214   0.2286
V43     V     0.7714   0.125   0.4786
V44     V     0.875   0.0214   0.2715
V45     V     0.9786   0.2286   0.375
V46     V     0.9786   0.2714   0.125
V47     V     0.7714   0.375   0.0214
V48     V     0.875   0.4786   0.2286
loop_
_geom_bond_atom_site_label_1
_geom_bond_atom_site_label_2
_geom_bond_distance
_geom_bond_site_symmetry_2
_ccdc_geom_bond_type
V1     V3    10.0   .     S
V1     V2    10.0   .     S
V1     V6    10.0   .     S
V1     V34    10.0   .     S
V2     V3    10.0   .     S
V2     V9    10.0   .     S
V2     V38    10.0   .     S
V3     V22    10.0   .     S
V3     V13    10.0   .     S
V4     V6    10.0   .     S
V4     V5    10.0   .     S
V4     V24    10.0   .     S
V4     V41    10.0   1_566     S
V5     V6    10.0   .     S
V5     V7    10.0   .     S
V5     V19    10.0   1_565     S
V6     V25    10.0   1_556     S
V7     V9    10.0   .     S
V7     V8    10.0   .     S
V7     V16    10.0   1_665     S
V8     V9    10.0   .     S
V8     V23    10.0   .     S
V8     V30    10.0   1_655     S
V9     V43    10.0   1_565     S
V10     V12    10.0   .     S
V10     V11    10.0   .     S
V10     V21    10.0   .     S
V10     V31    10.0   1_556     S
V11     V12    10.0   .     S
V11     V13    10.0   .     S
V11     V22    10.0   1_455     S
V12     V18    10.0   .     S
V12     V46    10.0   1_456     S
V13     V15    10.0   .     S
V13     V14    10.0   .     S
V14     V15    10.0   .     S
V14     V20    10.0   .     S
V14     V37    10.0   .     S
V15     V17    10.0   .     S
V15     V36    10.0   .     S
V16     V18    10.0   .     S
V16     V17    10.0   .     S
V16     V19    10.0   .     S
V16     V7    10.0   1_445     S
V17     V18    10.0   .     S
V17     V28    10.0   1_545     S
V18     V45    10.0   1_455     S
V19     V21    10.0   .     S
V19     V20    10.0   .     S
V19     V5    10.0   1_545     S
V20     V21    10.0   .     S
V20     V40    10.0   1_556     S
V21     V27    10.0   1_546     S
V22     V11    10.0   1_655     S
V22     V24    10.0   .     S
V22     V23    10.0   .     S
V23     V24    10.0   .     S
V23     V33    10.0   1_656     S
V24     V47    10.0   1_556     S
V25     V26    10.0   .     S
V25     V27    10.0   .     S
V25     V34    10.0   .     S
V25     V6    10.0   1_554     S
V26     V27    10.0   .     S
V26     V29    10.0   .     S
V26     V42    10.0   1_565     S
V27     V21    10.0   1_564     S
V27     V31    10.0   .     S
V28     V17    10.0   1_565     S
V28     V30    10.0   .     S
V28     V29    10.0   .     S
V28     V36    10.0   .     S
V29     V30    10.0   .     S
V29     V44    10.0   1_465     S
V30     V33    10.0   .     S
V30     V8    10.0   1_455     S
V31     V33    10.0   .     S
V31     V32    10.0   .     S
V31     V10    10.0   1_554     S
V32     V33    10.0   .     S
V32     V35    10.0   .     S
V32     V48    10.0   1_455     S
V33     V23    10.0   1_454     S
V34     V35    10.0   .     S
V34     V36    10.0   .     S
V35     V36    10.0   .     S
V35     V39    10.0   .     S
V37     V39    10.0   .     S
V37     V38    10.0   .     S
V37     V40    10.0   .     S
V38     V39    10.0   .     S
V38     V43    10.0   .     S
V39     V48    10.0   .     S
V40     V42    10.0   .     S
V40     V41    10.0   .     S
V40     V20    10.0   1_554     S
V41     V42    10.0   .     S
V41     V47    10.0   .     S
V41     V4    10.0   1_544     S
V42     V44    10.0   .     S
V42     V26    10.0   1_545     S
V43     V45    10.0   .     S
V43     V44    10.0   .     S
V43     V9    10.0   1_545     S
V44     V29    10.0   1_645     S
V44     V45    10.0   .     S
V45     V46    10.0   .     S
V45     V18    10.0   1_655     S
V46     V48    10.0   .     S
V46     V47    10.0   .     S
V46     V12    10.0   1_654     S
V47     V48    10.0   .     S
V47     V24    10.0   1_554     S
V48     V32    10.0   1_655     S
