data_uny
_audit_creation_date              2020-02-02
_audit_creation_method            'Pymatgen'
_symmetry_space_group_name_H-M    'P1'
_symmetry_Int_Tables_number       1
loop_
_symmetry_equiv_pos_as_xyz
  x,y,z
_cell_length_a                    26.3195
_cell_length_b                    26.3195
_cell_length_c                    37.7915
_cell_angle_alpha                 90.0
_cell_angle_beta                 90.0
_cell_angle_gamma                 120.0
loop_
_atom_site_label
_atom_site_type_symbol
_atom_site_fract_x
_atom_site_fract_y
_atom_site_fract_z
V1     V     0.3333   0.886   0.4167
V2     V     0.114   0.4473   0.4167
V3     V     0.5527   0.6667   0.4167
V4     V     0.4473   0.3333   0.5833
V5     V     0.6667   0.114   0.5833
V6     V     0.886   0.5527   0.5833
V7     V     0.7806   0.0   0.25
V8     V     0.2194   0.2194   0.25
V9     V     0.0   0.7806   0.25
V10     V     0.5527   0.886   0.9167
V11     V     0.3333   0.4473   0.9167
V12     V     0.114   0.6667   0.9167
V13     V     0.886   0.3333   0.0833
V14     V     0.4473   0.114   0.0833
V15     V     0.6667   0.5527   0.0833
V16     V     0.0   0.2194   0.75
V17     V     0.2194   0.0   0.75
V18     V     0.7806   0.7806   0.75
loop_
_geom_bond_atom_site_label_1
_geom_bond_atom_site_label_2
_geom_bond_distance
_geom_bond_site_symmetry_2
_ccdc_geom_bond_type
V1     V9    10.0   .     S
V1     V2    10.0   .     S
V1     V3    10.0   .     S
V1     V5    10.0   1_565     S
V2     V6    10.0   1_455     S
V2     V3    10.0   .     S
V2     V8    10.0   .     S
V3     V4    10.0   .     S
V3     V7    10.0   1_565     S
V4     V5    10.0   .     S
V4     V6    10.0   .     S
V4     V17    10.0   .     S
V5     V1    10.0   1_545     S
V5     V6    10.0   .     S
V5     V16    10.0   1_655     S
V6     V2    10.0   1_655     S
V6     V18    10.0   .     S
V7     V13    10.0   .     S
V7     V3    10.0   1_545     S
V7     V9    10.0   1_645     S
V7     V8    10.0   1_655     S
V8     V14    10.0   .     S
V8     V9    10.0   1_545     S
V8     V7    10.0   1_455     S
V9     V15    10.0   1_455     S
V9     V7    10.0   1_465     S
V9     V8    10.0   1_565     S
V10     V11    10.0   .     S
V10     V12    10.0   .     S
V10     V14    10.0   1_566     S
V10     V18    10.0   .     S
V11     V16    10.0   .     S
V11     V12    10.0   .     S
V11     V15    10.0   1_556     S
V12     V13    10.0   1_456     S
V12     V17    10.0   1_565     S
V13     V12    10.0   1_654     S
V13     V15    10.0   .     S
V13     V14    10.0   .     S
V14     V10    10.0   1_544     S
V14     V15    10.0   .     S
V15     V9    10.0   1_655     S
V15     V11    10.0   1_554     S
V16     V5    10.0   1_455     S
V16     V17    10.0   .     S
V16     V18    10.0   1_445     S
V17     V12    10.0   1_545     S
V17     V18    10.0   1_445     S
V18     V17    10.0   1_665     S
V18     V16    10.0   1_665     S
