data_uof
_audit_creation_date              2020-02-02
_audit_creation_method            'Pymatgen'
_symmetry_space_group_name_H-M    'P1'
_symmetry_Int_Tables_number       1
loop_
_symmetry_equiv_pos_as_xyz
  x,y,z
_cell_length_a                    21.1455
_cell_length_b                    21.1455
_cell_length_c                    44.1863
_cell_angle_alpha                 90.0
_cell_angle_beta                 90.0
_cell_angle_gamma                 120.0
loop_
_atom_site_label
_atom_site_type_symbol
_atom_site_fract_x
_atom_site_fract_y
_atom_site_fract_z
V1     V     0.0852   0.7672   0.5592
V2     V     0.6821   0.7672   0.4408
V3     V     0.7672   0.6821   0.2258
V4     V     0.6821   0.9148   0.8925
V5     V     0.7672   0.0852   0.1075
V6     V     0.0852   0.3179   0.7742
V7     V     0.9148   0.2328   0.5592
V8     V     0.3179   0.2328   0.4408
V9     V     0.2328   0.3179   0.2258
V10     V     0.3179   0.0852   0.8925
V11     V     0.2328   0.9148   0.1075
V12     V     0.9148   0.6821   0.7742
loop_
_geom_bond_atom_site_label_1
_geom_bond_atom_site_label_2
_geom_bond_distance
_geom_bond_site_symmetry_2
_ccdc_geom_bond_type
V1     V12    10.0   1_455     S
V1     V2    10.0   1_455     S
V1     V8    10.0   1_565     S
V1     V7    10.0   1_455     S
V2     V1    10.0   1_655     S
V2     V3    10.0   .     S
V2     V7    10.0   1_565     S
V2     V8    10.0   .     S
V3     V5    10.0   1_565     S
V3     V11    10.0   1_655     S
V3     V9    10.0   .     S
V4     V5    10.0   1_566     S
V4     V6    10.0   1_665     S
V4     V12    10.0   .     S
V4     V10    10.0   1_565     S
V5     V3    10.0   1_545     S
V5     V4    10.0   1_544     S
V5     V9    10.0   1_655     S
V5     V11    10.0   1_545     S
V6     V4    10.0   1_445     S
V6     V7    10.0   1_455     S
V6     V10    10.0   .     S
V6     V12    10.0   1_455     S
V7     V6    10.0   1_655     S
V7     V8    10.0   1_655     S
V7     V2    10.0   1_545     S
V7     V1    10.0   1_655     S
V8     V7    10.0   1_455     S
V8     V9    10.0   .     S
V8     V1    10.0   1_545     S
V9     V11    10.0   1_545     S
V9     V5    10.0   1_455     S
V10     V11    10.0   1_546     S
V10     V12    10.0   1_445     S
V10     V4    10.0   1_545     S
V11     V9    10.0   1_565     S
V11     V10    10.0   1_564     S
V11     V3    10.0   1_455     S
V11     V5    10.0   1_565     S
V12     V1    10.0   1_655     S
V12     V10    10.0   1_665     S
V12     V6    10.0   1_655     S
