data_uoh
_audit_creation_date              2020-02-02
_audit_creation_method            'Pymatgen'
_symmetry_space_group_name_H-M    'P1'
_symmetry_Int_Tables_number       1
loop_
_symmetry_equiv_pos_as_xyz
  x,y,z
_cell_length_a                    63.9083
_cell_length_b                    63.9083
_cell_length_c                    17.4308
_cell_angle_alpha                 90.0
_cell_angle_beta                 90.0
_cell_angle_gamma                 120.0
loop_
_atom_site_label
_atom_site_type_symbol
_atom_site_fract_x
_atom_site_fract_y
_atom_site_fract_z
V1     V     0.4998   0.9229   0.9489
V2     V     0.5002   0.0771   0.0511
V3     V     0.5769   0.0771   0.5511
V4     V     0.4231   0.9229   0.4489
V5     V     0.4998   0.5769   0.4489
V6     V     0.5002   0.4231   0.5511
V7     V     0.5769   0.4998   0.0511
V8     V     0.4231   0.5002   0.9489
V9     V     0.9229   0.4231   0.0511
V10     V     0.0771   0.5769   0.9489
V11     V     0.0771   0.5002   0.4489
V12     V     0.9229   0.4998   0.5511
V13     V     0.2436   0.8332   0.3844
V14     V     0.0898   0.8335   0.2822
V15     V     0.1668   0.7564   0.8844
V16     V     0.1665   0.9102   0.7822
V17     V     0.8335   0.7437   0.7178
V18     V     0.8332   0.5896   0.6156
V19     V     0.9102   0.7437   0.2178
V20     V     0.7564   0.5896   0.1156
V21     V     0.7437   0.8335   0.7822
V22     V     0.5896   0.8332   0.8844
V23     V     0.5896   0.7564   0.3844
V24     V     0.7437   0.9102   0.2822
V25     V     0.4104   0.1668   0.1156
V26     V     0.2563   0.1665   0.2178
V27     V     0.2563   0.0898   0.7178
V28     V     0.4104   0.2436   0.6156
V29     V     0.7564   0.1668   0.6156
V30     V     0.9102   0.1665   0.7178
V31     V     0.8332   0.2436   0.1156
V32     V     0.8335   0.0898   0.2178
V33     V     0.1668   0.4104   0.3844
V34     V     0.1665   0.2563   0.2822
V35     V     0.2436   0.4104   0.8844
V36     V     0.0898   0.2563   0.7822
loop_
_geom_bond_atom_site_label_1
_geom_bond_atom_site_label_2
_geom_bond_distance
_geom_bond_site_symmetry_2
_ccdc_geom_bond_type
V1     V2    10.0   1_566     S
V1     V4    10.0   .     S
V1     V4    10.0   1_556     S
V1     V22    10.0   .     S
V2     V1    10.0   1_544     S
V2     V3    10.0   1_554     S
V2     V3    10.0   .     S
V2     V25    10.0   .     S
V3     V4    10.0   1_545     S
V3     V2    10.0   1_556     S
V3     V29    10.0   .     S
V4     V3    10.0   1_565     S
V4     V1    10.0   1_554     S
V4     V13    10.0   .     S
V5     V6    10.0   .     S
V5     V8    10.0   .     S
V5     V8    10.0   1_554     S
V5     V23    10.0   .     S
V6     V7    10.0   1_556     S
V6     V7    10.0   .     S
V6     V28    10.0   .     S
V7     V6    10.0   1_554     S
V7     V8    10.0   1_554     S
V7     V20    10.0   .     S
V8     V7    10.0   1_556     S
V8     V5    10.0   1_556     S
V8     V35    10.0   .     S
V9     V10    10.0   1_654     S
V9     V12    10.0   1_554     S
V9     V12    10.0   .     S
V9     V31    10.0   .     S
V10     V9    10.0   1_456     S
V10     V11    10.0   .     S
V10     V11    10.0   1_556     S
V10     V15    10.0   .     S
V11     V12    10.0   1_455     S
V11     V10    10.0   1_554     S
V11     V33    10.0   .     S
V12     V11    10.0   1_655     S
V12     V9    10.0   1_556     S
V12     V18    10.0   .     S
V13     V14    10.0   .     S
V13     V15    10.0   .     S
V13     V15    10.0   1_554     S
V14     V16    10.0   .     S
V14     V16    10.0   1_554     S
V14     V19    10.0   1_455     S
V15     V13    10.0   1_556     S
V15     V16    10.0   .     S
V16     V14    10.0   1_556     S
V16     V27    10.0   1_565     S
V17     V18    10.0   .     S
V17     V19    10.0   1_556     S
V17     V19    10.0   .     S
V17     V21    10.0   .     S
V18     V20    10.0   1_556     S
V18     V20    10.0   .     S
V19     V20    10.0   .     S
V19     V17    10.0   1_554     S
V19     V14    10.0   1_655     S
V20     V18    10.0   1_554     S
V21     V22    10.0   .     S
V21     V24    10.0   .     S
V21     V24    10.0   1_556     S
V22     V23    10.0   .     S
V22     V23    10.0   1_556     S
V23     V22    10.0   1_554     S
V23     V24    10.0   .     S
V24     V21    10.0   1_554     S
V24     V32    10.0   1_565     S
V25     V26    10.0   .     S
V25     V28    10.0   1_554     S
V25     V28    10.0   .     S
V26     V27    10.0   1_554     S
V26     V27    10.0   .     S
V26     V34    10.0   .     S
V27     V16    10.0   1_545     S
V27     V26    10.0   1_556     S
V27     V28    10.0   .     S
V28     V25    10.0   1_556     S
V29     V30    10.0   .     S
V29     V31    10.0   1_556     S
V29     V31    10.0   .     S
V30     V32    10.0   1_556     S
V30     V32    10.0   .     S
V30     V36    10.0   1_655     S
V31     V32    10.0   .     S
V31     V29    10.0   1_554     S
V32     V24    10.0   1_545     S
V32     V30    10.0   1_554     S
V33     V34    10.0   .     S
V33     V35    10.0   .     S
V33     V35    10.0   1_554     S
V34     V36    10.0   .     S
V34     V36    10.0   1_554     S
V35     V36    10.0   .     S
V35     V33    10.0   1_556     S
V36     V30    10.0   1_455     S
V36     V34    10.0   1_556     S
