data_ure
_audit_creation_date              2020-02-02
_audit_creation_method            'Pymatgen'
_symmetry_space_group_name_H-M    'P1'
_symmetry_Int_Tables_number       1
loop_
_symmetry_equiv_pos_as_xyz
  x,y,z
_cell_length_a                    21.0133
_cell_length_b                    21.0133
_cell_length_c                    21.0133
_cell_angle_alpha                 90.0
_cell_angle_beta                 90.0
_cell_angle_gamma                 90.0
loop_
_atom_site_label
_atom_site_type_symbol
_atom_site_fract_x
_atom_site_fract_y
_atom_site_fract_z
V1     V     0.2376   0.7376   0.7624
V2     V     0.5124   0.9876   0.0124
V3     V     0.7376   0.7624   0.2376
V4     V     0.7376   0.2376   0.2624
V5     V     0.7624   0.2376   0.7376
V6     V     0.0124   0.5124   0.9876
V7     V     0.2624   0.7376   0.2376
V8     V     0.4876   0.5124   0.0124
V9     V     0.9876   0.0124   0.5124
V10     V     0.5124   0.0124   0.4876
V11     V     0.2376   0.2624   0.7376
V12     V     0.0124   0.4876   0.5124
V13     V     0.2624   0.2624   0.2624
V14     V     0.4876   0.4876   0.4876
V15     V     0.9876   0.9876   0.9876
V16     V     0.7624   0.7624   0.7624
loop_
_geom_bond_atom_site_label_1
_geom_bond_atom_site_label_2
_geom_bond_distance
_geom_bond_site_symmetry_2
_ccdc_geom_bond_type
V1     V16    10.0   1_455     S
V1     V11    10.0   .     S
V1     V7    10.0   1_556     S
V1     V10    10.0   1_565     S
V2     V15    10.0   1_554     S
V2     V10    10.0   1_565     S
V2     V8    10.0   .     S
V2     V11    10.0   1_564     S
V3     V16    10.0   1_554     S
V3     V4    10.0   1_565     S
V3     V7    10.0   .     S
V3     V12    10.0   1_655     S
V4     V3    10.0   1_545     S
V4     V5    10.0   .     S
V4     V13    10.0   .     S
V4     V6    10.0   1_654     S
V5     V16    10.0   1_545     S
V5     V11    10.0   1_655     S
V5     V8    10.0   1_556     S
V6     V15    10.0   1_455     S
V6     V12    10.0   .     S
V6     V8    10.0   1_556     S
V6     V4    10.0   1_456     S
V7     V1    10.0   1_554     S
V7     V13    10.0   .     S
V7     V9    10.0   1_465     S
V8     V6    10.0   1_554     S
V8     V14    10.0   .     S
V8     V5    10.0   1_554     S
V9     V15    10.0   1_545     S
V9     V10    10.0   .     S
V9     V12    10.0   1_655     S
V9     V7    10.0   1_645     S
V10     V2    10.0   1_545     S
V10     V14    10.0   .     S
V10     V1    10.0   1_545     S
V11     V5    10.0   1_455     S
V11     V13    10.0   .     S
V11     V2    10.0   1_546     S
V12     V9    10.0   1_455     S
V12     V14    10.0   .     S
V12     V3    10.0   1_455     S
V13     V15    10.0   1_444     S
V14     V16    10.0   .     S
V15     V2    10.0   1_556     S
V15     V6    10.0   1_655     S
V15     V9    10.0   1_565     S
V15     V13    10.0   1_666     S
V16     V3    10.0   1_556     S
V16     V1    10.0   1_655     S
V16     V5    10.0   1_565     S
