data_urfa
_audit_creation_date              2020-02-02
_audit_creation_method            'Pymatgen'
_symmetry_space_group_name_H-M    'P1'
_symmetry_Int_Tables_number       1
loop_
_symmetry_equiv_pos_as_xyz
  x,y,z
_cell_length_a                    87.2997
_cell_length_b                    87.2997
_cell_length_c                    87.2997
_cell_angle_alpha                 90.0
_cell_angle_beta                 90.0
_cell_angle_gamma                 90.0
loop_
_atom_site_label
_atom_site_type_symbol
_atom_site_fract_x
_atom_site_fract_y
_atom_site_fract_z
Ce1     Ce     0.25   0.25   0.331
Ce2     Ce     0.331   0.25   0.25
Ce3     Ce     0.25   0.331   0.25
Ce4     Ce     0.25   0.25   0.169
Ce5     Ce     0.25   0.169   0.25
Ce6     Ce     0.169   0.25   0.25
Ce7     Ce     0.25   0.331   0.75
Ce8     Ce     0.331   0.25   0.75
Ce9     Ce     0.169   0.25   0.75
Ce10     Ce     0.25   0.25   0.669
Ce11     Ce     0.25   0.169   0.75
Ce12     Ce     0.25   0.25   0.831
Ce13     Ce     0.75   0.25   0.331
Ce14     Ce     0.75   0.331   0.25
Ce15     Ce     0.75   0.25   0.169
Ce16     Ce     0.669   0.25   0.25
Ce17     Ce     0.75   0.169   0.25
Ce18     Ce     0.831   0.25   0.25
Ce19     Ce     0.25   0.75   0.331
Ce20     Ce     0.331   0.75   0.25
Ce21     Ce     0.25   0.75   0.169
Ce22     Ce     0.25   0.669   0.25
Ce23     Ce     0.169   0.75   0.25
Ce24     Ce     0.25   0.831   0.25
Ce25     Ce     0.75   0.75   0.331
Ce26     Ce     0.75   0.75   0.169
Ce27     Ce     0.75   0.831   0.25
Ce28     Ce     0.831   0.75   0.25
Ce29     Ce     0.669   0.75   0.25
Ce30     Ce     0.75   0.669   0.25
Ce31     Ce     0.331   0.75   0.75
Ce32     Ce     0.25   0.75   0.831
Ce33     Ce     0.25   0.831   0.75
Ce34     Ce     0.25   0.75   0.669
Ce35     Ce     0.25   0.669   0.75
Ce36     Ce     0.169   0.75   0.75
Ce37     Ce     0.75   0.331   0.75
Ce38     Ce     0.75   0.25   0.831
Ce39     Ce     0.75   0.169   0.75
Ce40     Ce     0.831   0.25   0.75
Ce41     Ce     0.75   0.25   0.669
Ce42     Ce     0.669   0.25   0.75
Ti43     Ti     0.7321   0.7321   0.4427
Ti44     Ti     0.7321   0.7321   0.5573
V45     V     0.662   0.662   0.5
Ti46     Ti     0.7321   0.5573   0.7321
Ti47     Ti     0.7321   0.4427   0.7321
V48     V     0.662   0.5   0.662
Ti49     Ti     0.4427   0.7321   0.7321
Ti50     Ti     0.5573   0.7321   0.7321
V51     V     0.5   0.662   0.662
Ti52     Ti     0.2679   0.7321   0.5573
Ti53     Ti     0.2679   0.7321   0.4427
V54     V     0.338   0.662   0.5
Ti55     Ti     0.7321   0.2679   0.5573
Ti56     Ti     0.7321   0.2679   0.4427
V57     V     0.662   0.338   0.5
Ti58     Ti     0.5573   0.7321   0.2679
Ti59     Ti     0.4427   0.7321   0.2679
V60     V     0.5   0.662   0.338
Ti61     Ti     0.7321   0.4427   0.2679
Ti62     Ti     0.7321   0.5573   0.2679
V63     V     0.662   0.5   0.338
Ti64     Ti     0.5573   0.2679   0.7321
Ti65     Ti     0.4427   0.2679   0.7321
V66     V     0.5   0.338   0.662
Ti67     Ti     0.2679   0.4427   0.7321
Ti68     Ti     0.2679   0.5573   0.7321
V69     V     0.338   0.5   0.662
Ti70     Ti     0.2679   0.2679   0.5573
Ti71     Ti     0.2679   0.2679   0.4427
V72     V     0.338   0.338   0.5
Ti73     Ti     0.2679   0.5573   0.2679
Ti74     Ti     0.2679   0.4427   0.2679
V75     V     0.338   0.5   0.338
Ti76     Ti     0.4427   0.2679   0.2679
Ti77     Ti     0.5573   0.2679   0.2679
V78     V     0.5   0.338   0.338
Er79     Er     0.5   0.581   0.581
Er80     Er     0.581   0.5   0.581
Er81     Er     0.581   0.581   0.5
Er82     Er     0.5   0.419   0.581
Er83     Er     0.581   0.419   0.5
Er84     Er     0.581   0.5   0.419
Er85     Er     0.5   0.581   0.419
Er86     Er     0.419   0.581   0.5
Er87     Er     0.419   0.5   0.581
Er88     Er     0.5   0.419   0.419
Er89     Er     0.419   0.5   0.419
Er90     Er     0.419   0.419   0.5
Ce91     Ce     0.75   0.75   0.831
Ce92     Ce     0.831   0.75   0.75
Ce93     Ce     0.75   0.75   0.669
Ce94     Ce     0.75   0.669   0.75
Ce95     Ce     0.669   0.75   0.75
Ce96     Ce     0.75   0.831   0.75
Ti97     Ti     0.7679   0.7679   0.9427
Ti98     Ti     0.7679   0.7679   0.0573
V99     V     0.838   0.838   0.0
Ti100     Ti     0.7679   0.2321   0.9427
Ti101     Ti     0.7679   0.2321   0.0573
V102     V     0.838   0.162   0.0
Ti103     Ti     0.2321   0.7679   0.9427
Ti104     Ti     0.2321   0.7679   0.0573
V105     V     0.162   0.838   0.0
Ti106     Ti     0.7679   0.9427   0.7679
Ti107     Ti     0.7679   0.0573   0.7679
V108     V     0.838   0.0   0.838
Ti109     Ti     0.9427   0.2321   0.7679
Ti110     Ti     0.0573   0.2321   0.7679
V111     V     0.0   0.162   0.838
Ti112     Ti     0.2321   0.9427   0.7679
Ti113     Ti     0.2321   0.0573   0.7679
V114     V     0.162   0.0   0.838
Ti115     Ti     0.9427   0.7679   0.7679
Ti116     Ti     0.0573   0.7679   0.7679
V117     V     0.0   0.838   0.838
Ti118     Ti     0.9427   0.7679   0.2321
Ti119     Ti     0.0573   0.7679   0.2321
V120     V     0.0   0.838   0.162
Ti121     Ti     0.7679   0.9427   0.2321
Ti122     Ti     0.7679   0.0573   0.2321
V123     V     0.838   0.0   0.162
Ti124     Ti     0.2321   0.2321   0.9427
Ti125     Ti     0.2321   0.2321   0.0573
V126     V     0.162   0.162   0.0
Er127     Er     0.081   0.081   0.0
Ti128     Ti     0.2321   0.9427   0.2321
Ti129     Ti     0.2321   0.0573   0.2321
V130     V     0.162   0.0   0.162
Er131     Er     0.081   0.0   0.081
Ti132     Ti     0.9427   0.2321   0.2321
Ti133     Ti     0.0573   0.2321   0.2321
V134     V     0.0   0.162   0.162
Er135     Er     0.0   0.081   0.081
Er136     Er     0.919   0.0   0.081
Er137     Er     0.0   0.919   0.081
Er138     Er     0.919   0.081   0.0
Er139     Er     0.919   0.919   0.0
Er140     Er     0.081   0.919   0.0
Er141     Er     0.081   0.0   0.919
Er142     Er     0.0   0.919   0.919
Er143     Er     0.0   0.081   0.919
Er144     Er     0.919   0.0   0.919
loop_
_geom_bond_atom_site_label_1
_geom_bond_atom_site_label_2
_geom_bond_distance
_geom_bond_site_symmetry_2
_ccdc_geom_bond_type
Ce1     Ti71    10.0   .     S
Ce1     Ce5    10.0   .     S
Ce1     Ce2    10.0   .     S
Ce1     Ce3    10.0   .     S
Ce1     Ce6    10.0   .     S
Ce2     Ti76    10.0   .     S
Ce2     Ce4    10.0   .     S
Ce2     Ce5    10.0   .     S
Ce2     Ce3    10.0   .     S
Ce3     Ti74    10.0   .     S
Ce3     Ce4    10.0   .     S
Ce3     Ce6    10.0   .     S
Ce4     Ti125    10.0   .     S
Ce4     Ce6    10.0   .     S
Ce4     Ce5    10.0   .     S
Ce5     Ti129    10.0   .     S
Ce5     Ce6    10.0   .     S
Ce6     Ti133    10.0   .     S
Ce7     Ti67    10.0   .     S
Ce7     Ce9    10.0   .     S
Ce7     Ce8    10.0   .     S
Ce7     Ce10    10.0   .     S
Ce7     Ce12    10.0   .     S
Ce8     Ti65    10.0   .     S
Ce8     Ce10    10.0   .     S
Ce8     Ce11    10.0   .     S
Ce8     Ce12    10.0   .     S
Ce9     Ti110    10.0   .     S
Ce9     Ce10    10.0   .     S
Ce9     Ce11    10.0   .     S
Ce9     Ce12    10.0   .     S
Ce10     Ti70    10.0   .     S
Ce10     Ce11    10.0   .     S
Ce11     Ti113    10.0   .     S
Ce11     Ce12    10.0   .     S
Ce12     Ti124    10.0   .     S
Ce13     Ti56    10.0   .     S
Ce13     Ce14    10.0   .     S
Ce13     Ce16    10.0   .     S
Ce13     Ce17    10.0   .     S
Ce13     Ce18    10.0   .     S
Ce14     Ti61    10.0   .     S
Ce14     Ce15    10.0   .     S
Ce14     Ce16    10.0   .     S
Ce14     Ce18    10.0   .     S
Ce15     Ti101    10.0   .     S
Ce15     Ce16    10.0   .     S
Ce15     Ce17    10.0   .     S
Ce15     Ce18    10.0   .     S
Ce16     Ti77    10.0   .     S
Ce16     Ce17    10.0   .     S
Ce17     Ti122    10.0   .     S
Ce17     Ce18    10.0   .     S
Ce18     Ti132    10.0   .     S
Ce19     Ti53    10.0   .     S
Ce19     Ce20    10.0   .     S
Ce19     Ce22    10.0   .     S
Ce19     Ce23    10.0   .     S
Ce19     Ce24    10.0   .     S
Ce20     Ti59    10.0   .     S
Ce20     Ce21    10.0   .     S
Ce20     Ce22    10.0   .     S
Ce20     Ce24    10.0   .     S
Ce21     Ti104    10.0   .     S
Ce21     Ce22    10.0   .     S
Ce21     Ce23    10.0   .     S
Ce21     Ce24    10.0   .     S
Ce22     Ti73    10.0   .     S
Ce22     Ce23    10.0   .     S
Ce23     Ti119    10.0   .     S
Ce23     Ce24    10.0   .     S
Ce24     Ti128    10.0   .     S
Ce25     Ti43    10.0   .     S
Ce25     Ce27    10.0   .     S
Ce25     Ce29    10.0   .     S
Ce25     Ce30    10.0   .     S
Ce25     Ce28    10.0   .     S
Ce26     Ti98    10.0   .     S
Ce26     Ce30    10.0   .     S
Ce26     Ce29    10.0   .     S
Ce26     Ce28    10.0   .     S
Ce26     Ce27    10.0   .     S
Ce27     Ti121    10.0   .     S
Ce27     Ce29    10.0   .     S
Ce27     Ce28    10.0   .     S
Ce28     Ti118    10.0   .     S
Ce28     Ce30    10.0   .     S
Ce29     Ti58    10.0   .     S
Ce29     Ce30    10.0   .     S
Ce30     Ti62    10.0   .     S
Ce31     Ti49    10.0   .     S
Ce31     Ce32    10.0   .     S
Ce31     Ce33    10.0   .     S
Ce31     Ce35    10.0   .     S
Ce31     Ce34    10.0   .     S
Ce32     Ti103    10.0   .     S
Ce32     Ce35    10.0   .     S
Ce32     Ce36    10.0   .     S
Ce32     Ce33    10.0   .     S
Ce33     Ti112    10.0   .     S
Ce33     Ce34    10.0   .     S
Ce33     Ce36    10.0   .     S
Ce34     Ti52    10.0   .     S
Ce34     Ce35    10.0   .     S
Ce34     Ce36    10.0   .     S
Ce35     Ti68    10.0   .     S
Ce35     Ce36    10.0   .     S
Ce36     Ti116    10.0   .     S
Ce37     Ti47    10.0   .     S
Ce37     Ce38    10.0   .     S
Ce37     Ce42    10.0   .     S
Ce37     Ce41    10.0   .     S
Ce37     Ce40    10.0   .     S
Ce38     Ti100    10.0   .     S
Ce38     Ce42    10.0   .     S
Ce38     Ce39    10.0   .     S
Ce38     Ce40    10.0   .     S
Ce39     Ti107    10.0   .     S
Ce39     Ce42    10.0   .     S
Ce39     Ce41    10.0   .     S
Ce39     Ce40    10.0   .     S
Ce40     Ti109    10.0   .     S
Ce40     Ce41    10.0   .     S
Ce41     Ti55    10.0   .     S
Ce41     Ce42    10.0   .     S
Ce42     Ti64    10.0   .     S
Ti43     V45    9.999   .     S
Ti43     Ti44    9.999   .     S
Ti44     V45    9.999   .     S
Ti44     Ce93    10.0   .     S
V45     Er81    10.0   .     S
Ti46     V48    9.999   .     S
Ti46     Ti47    9.999   .     S
Ti46     Ce94    10.0   .     S
Ti47     V48    9.999   .     S
V48     Er80    10.0   .     S
Ti49     V51    9.999   .     S
Ti49     Ti50    9.999   .     S
Ti50     V51    9.999   .     S
Ti50     Ce95    10.0   .     S
V51     Er79    10.0   .     S
Ti52     V54    9.999   .     S
Ti52     Ti53    9.999   .     S
Ti53     V54    9.999   .     S
V54     Er86    10.0   .     S
Ti55     V57    9.999   .     S
Ti55     Ti56    9.999   .     S
Ti56     V57    9.999   .     S
V57     Er83    10.0   .     S
Ti58     V60    9.999   .     S
Ti58     Ti59    9.999   .     S
Ti59     V60    9.999   .     S
V60     Er85    10.0   .     S
Ti61     V63    9.999   .     S
Ti61     Ti62    9.999   .     S
Ti62     V63    9.999   .     S
V63     Er84    10.0   .     S
Ti64     V66    9.999   .     S
Ti64     Ti65    9.999   .     S
Ti65     V66    9.999   .     S
V66     Er82    10.0   .     S
Ti67     V69    9.999   .     S
Ti67     Ti68    9.999   .     S
Ti68     V69    9.999   .     S
V69     Er87    10.0   .     S
Ti70     V72    9.999   .     S
Ti70     Ti71    9.999   .     S
Ti71     V72    9.999   .     S
V72     Er90    10.0   .     S
Ti73     V75    9.999   .     S
Ti73     Ti74    9.999   .     S
Ti74     V75    9.999   .     S
V75     Er89    10.0   .     S
Ti76     V78    9.999   .     S
Ti76     Ti77    9.999   .     S
Ti77     V78    9.999   .     S
V78     Er88    10.0   .     S
Er79     Er87    10.0   .     S
Er79     Er86    10.0   .     S
Er79     Er80    10.0   .     S
Er79     Er81    10.0   .     S
Er80     Er82    10.0   .     S
Er80     Er83    10.0   .     S
Er80     Er81    10.0   .     S
Er81     Er85    10.0   .     S
Er81     Er84    10.0   .     S
Er82     Er83    10.0   .     S
Er82     Er90    10.0   .     S
Er82     Er87    10.0   .     S
Er83     Er84    10.0   .     S
Er83     Er88    10.0   .     S
Er84     Er85    10.0   .     S
Er84     Er88    10.0   .     S
Er85     Er89    10.0   .     S
Er85     Er86    10.0   .     S
Er86     Er89    10.0   .     S
Er86     Er87    10.0   .     S
Er87     Er90    10.0   .     S
Er88     Er89    10.0   .     S
Er88     Er90    10.0   .     S
Er89     Er90    10.0   .     S
Ce91     Ti97    10.0   .     S
Ce91     Ce95    10.0   .     S
Ce91     Ce94    10.0   .     S
Ce91     Ce96    10.0   .     S
Ce91     Ce92    10.0   .     S
Ce92     Ti115    10.0   .     S
Ce92     Ce94    10.0   .     S
Ce92     Ce93    10.0   .     S
Ce92     Ce96    10.0   .     S
Ce93     Ce94    10.0   .     S
Ce93     Ce95    10.0   .     S
Ce93     Ce96    10.0   .     S
Ce94     Ce95    10.0   .     S
Ce95     Ce96    10.0   .     S
Ce96     Ti106    10.0   .     S
Ti97     V99    9.999   1_556     S
Ti97     Ti98    9.999   1_556     S
Ti98     V99    9.999   .     S
Ti98     Ti97    9.999   1_554     S
V99     Ti97    9.999   1_554     S
V99     Er139    10.0   .     S
Ti100     V102    9.999   1_556     S
Ti100     Ti101    9.999   1_556     S
Ti101     V102    9.999   .     S
Ti101     Ti100    9.999   1_554     S
V102     Ti100    9.999   1_554     S
V102     Er138    10.0   .     S
Ti103     V105    9.999   1_556     S
Ti103     Ti104    9.999   1_556     S
Ti104     V105    9.999   .     S
Ti104     Ti103    9.999   1_554     S
V105     Ti103    9.999   1_554     S
V105     Er140    10.0   .     S
Ti106     V108    9.999   1_565     S
Ti106     Ti107    9.999   1_565     S
Ti107     V108    9.999   .     S
Ti107     Ti106    9.999   1_545     S
V108     Ti106    9.999   1_545     S
V108     Er144    10.0   .     S
Ti109     V111    9.999   1_655     S
Ti109     Ti110    9.999   1_655     S
Ti110     V111    9.999   .     S
Ti110     Ti109    9.999   1_455     S
V111     Ti109    9.999   1_455     S
V111     Er143    10.0   .     S
Ti112     V114    9.999   1_565     S
Ti112     Ti113    9.999   1_565     S
Ti113     V114    9.999   .     S
Ti113     Ti112    9.999   1_545     S
V114     Ti112    9.999   1_545     S
V114     Er141    10.0   .     S
Ti115     V117    9.999   1_655     S
Ti115     Ti116    9.999   1_655     S
Ti116     V117    9.999   .     S
Ti116     Ti115    9.999   1_455     S
V117     Ti115    9.999   1_455     S
V117     Er142    10.0   .     S
Ti118     V120    9.999   1_655     S
Ti118     Ti119    9.999   1_655     S
Ti119     V120    9.999   .     S
Ti119     Ti118    9.999   1_455     S
V120     Ti118    9.999   1_455     S
V120     Er137    10.0   .     S
Ti121     V123    9.999   1_565     S
Ti121     Ti122    9.999   1_565     S
Ti122     V123    9.999   .     S
Ti122     Ti121    9.999   1_545     S
V123     Ti121    9.999   1_545     S
V123     Er136    10.0   .     S
Ti124     V126    9.999   1_556     S
Ti124     Ti125    9.999   1_556     S
Ti125     V126    9.999   .     S
Ti125     Ti124    9.999   1_554     S
V126     Ti124    9.999   1_554     S
V126     Er127    10.0   .     S
Er127     Er131    10.0   .     S
Er127     Er143    10.0   1_554     S
Er127     Er135    10.0   .     S
Er127     Er141    10.0   1_554     S
Ti128     V130    9.999   1_565     S
Ti128     Ti129    9.999   1_565     S
Ti129     V130    9.999   .     S
Ti129     Ti128    9.999   1_545     S
V130     Ti128    9.999   1_545     S
V130     Er131    10.0   .     S
Er131     Er135    10.0   .     S
Er131     Er137    10.0   1_545     S
Er131     Er140    10.0   1_545     S
Ti132     V134    9.999   1_655     S
Ti132     Ti133    9.999   1_655     S
Ti133     V134    9.999   .     S
Ti133     Ti132    9.999   1_455     S
V134     Ti132    9.999   1_455     S
V134     Er135    10.0   .     S
Er135     Er136    10.0   1_455     S
Er135     Er138    10.0   1_455     S
Er136     Er135    10.0   1_655     S
Er136     Er137    10.0   1_645     S
Er136     Er139    10.0   1_545     S
Er136     Er138    10.0   .     S
Er137     Er136    10.0   1_465     S
Er137     Er131    10.0   1_565     S
Er137     Er140    10.0   .     S
Er137     Er139    10.0   1_455     S
Er138     Er135    10.0   1_655     S
Er138     Er144    10.0   1_554     S
Er138     Er143    10.0   1_654     S
Er139     Er136    10.0   1_565     S
Er139     Er142    10.0   1_654     S
Er139     Er144    10.0   1_564     S
Er139     Er137    10.0   1_655     S
Er140     Er141    10.0   1_564     S
Er140     Er142    10.0   1_554     S
Er140     Er131    10.0   1_565     S
Er141     Er140    10.0   1_546     S
Er141     Er142    10.0   1_545     S
Er141     Er143    10.0   .     S
Er141     Er127    10.0   1_556     S
Er142     Er141    10.0   1_565     S
Er142     Er144    10.0   1_465     S
Er142     Er139    10.0   1_456     S
Er142     Er140    10.0   1_556     S
Er143     Er144    10.0   1_455     S
Er143     Er127    10.0   1_556     S
Er143     Er138    10.0   1_456     S
Er144     Er143    10.0   1_655     S
Er144     Er142    10.0   1_645     S
Er144     Er138    10.0   1_556     S
Er144     Er139    10.0   1_546     S
