data_uria
_audit_creation_date              2020-02-02
_audit_creation_method            'Pymatgen'
_symmetry_space_group_name_H-M    'P1'
_symmetry_Int_Tables_number       1
loop_
_symmetry_equiv_pos_as_xyz
  x,y,z
_cell_length_a                    64.5137
_cell_length_b                    64.5137
_cell_length_c                    64.5137
_cell_angle_alpha                 90.0
_cell_angle_beta                 90.0
_cell_angle_gamma                 90.0
loop_
_atom_site_label
_atom_site_type_symbol
_atom_site_fract_x
_atom_site_fract_y
_atom_site_fract_z
Ti1     Ti     0.305   0.2365   0.1786
Ti2     Ti     0.1786   0.305   0.2365
Ti3     Ti     0.2365   0.1786   0.305
Er4     Er     0.167   0.167   0.167
Ti5     Ti     0.8214   0.305   0.2365
Ti6     Ti     0.7635   0.1786   0.305
Ti7     Ti     0.695   0.2365   0.1786
Er8     Er     0.833   0.167   0.167
Ti9     Ti     0.305   0.2365   0.8214
Ti10     Ti     0.1786   0.305   0.7635
Ti11     Ti     0.2365   0.1786   0.695
Er12     Er     0.167   0.167   0.833
Ce13     Ce     0.5775   0.2344   0.9225
Ce14     Ce     0.4225   0.2344   0.9225
Ce15     Ce     0.4225   0.2344   0.0775
Ce16     Ce     0.5775   0.2344   0.0775
Ti17     Ti     0.8214   0.305   0.7635
Ti18     Ti     0.695   0.2365   0.8214
Ti19     Ti     0.7635   0.1786   0.695
Er20     Er     0.833   0.167   0.833
Ce21     Ce     0.2344   0.9225   0.5775
Ce22     Ce     0.2344   0.9225   0.4225
Ce23     Ce     0.2344   0.0775   0.4225
Ce24     Ce     0.2344   0.0775   0.5775
Ti25     Ti     0.305   0.7635   0.8214
Ti26     Ti     0.2365   0.8214   0.695
Ti27     Ti     0.1786   0.695   0.7635
Er28     Er     0.167   0.833   0.833
Ce29     Ce     0.7656   0.9225   0.5775
Ce30     Ce     0.7656   0.9225   0.4225
Ce31     Ce     0.7656   0.0775   0.5775
Ce32     Ce     0.7656   0.0775   0.4225
Ce33     Ce     0.9225   0.5775   0.7656
Ce34     Ce     0.9225   0.4225   0.7656
Ce35     Ce     0.0775   0.5775   0.7656
Ce36     Ce     0.0775   0.4225   0.7656
Ce37     Ce     0.5775   0.7656   0.0775
Ce38     Ce     0.4225   0.7656   0.0775
Ce39     Ce     0.4225   0.7656   0.9225
Ce40     Ce     0.5775   0.7656   0.9225
Ti41     Ti     0.8214   0.695   0.7635
Ti42     Ti     0.7635   0.8214   0.695
Ti43     Ti     0.695   0.7635   0.8214
Er44     Er     0.833   0.833   0.833
Ti45     Ti     0.305   0.7635   0.1786
Ti46     Ti     0.2365   0.8214   0.305
Ti47     Ti     0.1786   0.695   0.2365
Er48     Er     0.167   0.833   0.167
Ce49     Ce     0.0775   0.4225   0.2344
Ce50     Ce     0.0775   0.5775   0.2344
Ce51     Ce     0.9225   0.4225   0.2344
Ce52     Ce     0.9225   0.5775   0.2344
Ti53     Ti     0.7635   0.8214   0.305
Ti54     Ti     0.8214   0.695   0.2365
Ti55     Ti     0.695   0.7635   0.1786
Er56     Er     0.833   0.833   0.167
V57     V     0.9225   0.9225   0.9225
V58     V     0.9225   0.9225   0.0775
V59     V     0.0775   0.9225   0.9225
V60     V     0.0775   0.9225   0.0775
V61     V     0.9225   0.0775   0.9225
V62     V     0.9225   0.0775   0.0775
V63     V     0.0775   0.0775   0.9225
V64     V     0.0775   0.0775   0.0775
loop_
_geom_bond_atom_site_label_1
_geom_bond_atom_site_label_2
_geom_bond_distance
_geom_bond_site_symmetry_2
_ccdc_geom_bond_type
Ti1     Ti2    10.0   .     S
Ti1     Er4    10.0   .     S
Ti1     Ti3    10.0   .     S
Ti1     Ce15    10.0   .     S
Ti2     Ti3    10.0   .     S
Ti2     Er4    10.0   .     S
Ti2     Ce49    10.0   .     S
Ti3     Er4    10.0   .     S
Ti3     Ce23    10.0   .     S
Er4     V64    10.001   .     S
Ti5     Ti6    10.0   .     S
Ti5     Er8    10.0   .     S
Ti5     Ti7    10.0   .     S
Ti5     Ce51    10.0   .     S
Ti6     Ti7    10.0   .     S
Ti6     Er8    10.0   .     S
Ti6     Ce32    10.0   .     S
Ti7     Er8    10.0   .     S
Ti7     Ce16    10.0   .     S
Er8     V62    10.001   .     S
Ti9     Ti10    10.0   .     S
Ti9     Er12    10.0   .     S
Ti9     Ti11    10.0   .     S
Ti9     Ce14    10.0   .     S
Ti10     Ti11    10.0   .     S
Ti10     Er12    10.0   .     S
Ti10     Ce36    10.0   .     S
Ti11     Er12    10.0   .     S
Ti11     Ce24    10.0   .     S
Er12     V63    10.001   .     S
Ce13     Ce16    10.0   1_556     S
Ce13     Ce14    10.0   .     S
Ce13     Ti18    10.0   .     S
Ce14     Ce15    10.0   1_556     S
Ce15     Ce14    10.0   1_554     S
Ce15     Ce16    10.0   .     S
Ce16     Ce13    10.0   1_554     S
Ti17     Ti19    10.0   .     S
Ti17     Er20    10.0   .     S
Ti17     Ti18    10.0   .     S
Ti17     Ce34    10.0   .     S
Ti18     Er20    10.0   .     S
Ti18     Ti19    10.0   .     S
Ti19     Er20    10.0   .     S
Ti19     Ce31    10.0   .     S
Er20     V61    10.001   .     S
Ce21     Ce24    10.0   1_565     S
Ce21     Ce22    10.0   .     S
Ce21     Ti26    10.0   .     S
Ce22     Ce23    10.0   1_565     S
Ce22     Ti46    10.0   .     S
Ce23     Ce22    10.0   1_545     S
Ce23     Ce24    10.0   .     S
Ce24     Ce21    10.0   1_545     S
Ti25     Ti27    10.0   .     S
Ti25     Er28    10.0   .     S
Ti25     Ti26    10.0   .     S
Ti25     Ce39    10.0   .     S
Ti26     Er28    10.0   .     S
Ti26     Ti27    10.0   .     S
Ti27     Er28    10.0   .     S
Ti27     Ce35    10.0   .     S
Er28     V59    10.001   .     S
Ce29     Ce31    10.0   1_565     S
Ce29     Ce30    10.0   .     S
Ce29     Ti42    10.0   .     S
Ce30     Ce32    10.0   1_565     S
Ce30     Ti53    10.0   .     S
Ce31     Ce29    10.0   1_545     S
Ce31     Ce32    10.0   .     S
Ce32     Ce30    10.0   1_545     S
Ce33     Ce35    10.0   1_655     S
Ce33     Ce34    10.0   .     S
Ce33     Ti41    10.0   .     S
Ce34     Ce36    10.0   1_655     S
Ce35     Ce33    10.0   1_455     S
Ce35     Ce36    10.0   .     S
Ce36     Ce34    10.0   1_455     S
Ce37     Ce38    10.0   .     S
Ce37     Ce40    10.0   1_554     S
Ce37     Ti55    10.0   .     S
Ce38     Ce39    10.0   1_554     S
Ce38     Ti45    10.0   .     S
Ce39     Ce38    10.0   1_556     S
Ce39     Ce40    10.0   .     S
Ce40     Ce37    10.0   1_556     S
Ce40     Ti43    10.0   .     S
Ti41     Ti42    10.0   .     S
Ti41     Er44    10.0   .     S
Ti41     Ti43    10.0   .     S
Ti42     Ti43    10.0   .     S
Ti42     Er44    10.0   .     S
Ti43     Er44    10.0   .     S
Er44     V57    10.001   .     S
Ti45     Ti47    10.0   .     S
Ti45     Er48    10.0   .     S
Ti45     Ti46    10.0   .     S
Ti46     Er48    10.0   .     S
Ti46     Ti47    10.0   .     S
Ti47     Er48    10.0   .     S
Ti47     Ce50    10.0   .     S
Er48     V60    10.001   .     S
Ce49     Ce50    10.0   .     S
Ce49     Ce51    10.0   1_455     S
Ce50     Ce52    10.0   1_455     S
Ce51     Ce49    10.0   1_655     S
Ce51     Ce52    10.0   .     S
Ce52     Ce50    10.0   1_655     S
Ce52     Ti54    10.0   .     S
Ti53     Ti55    10.0   .     S
Ti53     Er56    10.0   .     S
Ti53     Ti54    10.0   .     S
Ti54     Er56    10.0   .     S
Ti54     Ti55    10.0   .     S
Ti55     Er56    10.0   .     S
Er56     V58    10.001   .     S
V57     V58    10.0   1_556     S
V57     V59    10.0   1_655     S
V57     V61    10.0   1_565     S
V58     V57    10.0   1_554     S
V58     V60    10.0   1_655     S
V58     V62    10.0   1_565     S
V59     V57    10.0   1_455     S
V59     V60    10.0   1_556     S
V59     V63    10.0   1_565     S
V60     V58    10.0   1_455     S
V60     V59    10.0   1_554     S
V60     V64    10.0   1_565     S
V61     V57    10.0   1_545     S
V61     V62    10.0   1_556     S
V61     V63    10.0   1_655     S
V62     V58    10.0   1_545     S
V62     V61    10.0   1_554     S
V62     V64    10.0   1_655     S
V63     V59    10.0   1_545     S
V63     V61    10.0   1_455     S
V63     V64    10.0   1_556     S
V64     V60    10.0   1_545     S
V64     V62    10.0   1_455     S
V64     V63    10.0   1_554     S
