data_urna
_audit_creation_date              2020-02-02
_audit_creation_method            'Pymatgen'
_symmetry_space_group_name_H-M    'P1'
_symmetry_Int_Tables_number       1
loop_
_symmetry_equiv_pos_as_xyz
  x,y,z
_cell_length_a                    113.8842
_cell_length_b                    113.8842
_cell_length_c                    113.8842
_cell_angle_alpha                 90.0
_cell_angle_beta                 90.0
_cell_angle_gamma                 90.0
loop_
_atom_site_label
_atom_site_type_symbol
_atom_site_fract_x
_atom_site_fract_y
_atom_site_fract_z
Ce1     Ce     0.5439   0.0439   0.0439
Ce2     Ce     0.4561   0.0439   0.0439
Ce3     Ce     0.5439   0.0439   0.9561
Ce4     Ce     0.4561   0.0439   0.9561
Ce5     Ce     0.4561   0.9561   0.0439
Ce6     Ce     0.5439   0.9561   0.0439
Ce7     Ce     0.4561   0.9561   0.9561
Ce8     Ce     0.5439   0.9561   0.9561
Ce9     Ce     0.0439   0.5439   0.9561
Ce10     Ce     0.0439   0.4561   0.9561
Ce11     Ce     0.0439   0.5439   0.0439
Ce12     Ce     0.0439   0.4561   0.0439
Ce13     Ce     0.9561   0.5439   0.0439
Ce14     Ce     0.9561   0.4561   0.0439
Ce15     Ce     0.9561   0.4561   0.9561
Ce16     Ce     0.9561   0.5439   0.9561
Ce17     Ce     0.0439   0.0439   0.5439
Ce18     Ce     0.0439   0.9561   0.5439
Ce19     Ce     0.0439   0.9561   0.4561
Ce20     Ce     0.0439   0.0439   0.4561
Ce21     Ce     0.9561   0.0439   0.5439
Ce22     Ce     0.9561   0.0439   0.4561
Ce23     Ce     0.9561   0.9561   0.4561
Ce24     Ce     0.9561   0.9561   0.5439
Ti25     Ti     0.9288   0.9288   0.6228
Ti26     Ti     0.6228   0.9288   0.9288
Ti27     Ti     0.9288   0.6228   0.9288
Ti28     Ti     0.6228   0.9288   0.0712
Ti29     Ti     0.0712   0.6228   0.9288
Ti30     Ti     0.9288   0.0712   0.6228
Ti31     Ti     0.6228   0.0712   0.0712
Ti32     Ti     0.9288   0.6228   0.0712
Ti33     Ti     0.6228   0.0712   0.9288
Ti34     Ti     0.0712   0.6228   0.0712
Ti35     Ti     0.0712   0.0712   0.6228
Ti36     Ti     0.0712   0.9288   0.6228
Ti37     Ti     0.9288   0.3772   0.9288
Ti38     Ti     0.3772   0.9288   0.9288
Ti39     Ti     0.9288   0.9288   0.3772
Ti40     Ti     0.9288   0.3772   0.0712
Ti41     Ti     0.3772   0.0712   0.9288
Ti42     Ti     0.0712   0.9288   0.3772
Ti43     Ti     0.3772   0.9288   0.0712
Ti44     Ti     0.0712   0.3772   0.0712
Ti45     Ti     0.0712   0.3772   0.9288
Ti46     Ti     0.3772   0.0712   0.0712
Ti47     Ti     0.9288   0.0712   0.3772
Ti48     Ti     0.0712   0.0712   0.3772
V49     V     0.875   0.9371   0.6917
V50     V     0.9371   0.875   0.6917
Er51     Er     0.8146   0.0439   0.7525
Er52     Er     0.8146   0.9561   0.7525
Er53     Er     0.7525   0.0439   0.8146
Er54     Er     0.7525   0.9561   0.8146
V55     V     0.6917   0.875   0.9371
V56     V     0.6917   0.9371   0.875
Er57     Er     0.7525   0.8146   0.0439
Er58     Er     0.7525   0.8146   0.9561
Er59     Er     0.8146   0.7525   0.0439
Er60     Er     0.8146   0.7525   0.9561
Er61     Er     0.0439   0.7525   0.8146
Er62     Er     0.9561   0.7525   0.8146
Er63     Er     0.0439   0.8146   0.7525
Er64     Er     0.9561   0.8146   0.7525
V65     V     0.9371   0.6917   0.875
V66     V     0.875   0.6917   0.9371
V67     V     0.125   0.3083   0.0629
V68     V     0.0629   0.3083   0.125
V69     V     0.125   0.3083   0.9371
V70     V     0.0629   0.3083   0.875
Er71     Er     0.1854   0.2475   0.0439
Er72     Er     0.1854   0.2475   0.9561
Er73     Er     0.2475   0.1854   0.0439
Er74     Er     0.2475   0.1854   0.9561
V75     V     0.3083   0.125   0.9371
V76     V     0.3083   0.0629   0.875
V77     V     0.3083   0.0629   0.125
V78     V     0.3083   0.125   0.0629
V79     V     0.3083   0.9371   0.125
V80     V     0.3083   0.875   0.0629
Er81     Er     0.2475   0.0439   0.1854
Er82     Er     0.2475   0.9561   0.1854
Er83     Er     0.1854   0.0439   0.2475
Er84     Er     0.1854   0.9561   0.2475
V85     V     0.125   0.9371   0.3083
V86     V     0.0629   0.875   0.3083
V87     V     0.0629   0.125   0.3083
V88     V     0.125   0.0629   0.3083
V89     V     0.9371   0.125   0.3083
V90     V     0.875   0.0629   0.3083
Er91     Er     0.0439   0.2475   0.1854
Er92     Er     0.9561   0.2475   0.1854
Er93     Er     0.0439   0.1854   0.2475
Er94     Er     0.9561   0.1854   0.2475
V95     V     0.9371   0.3083   0.125
V96     V     0.875   0.3083   0.0629
V97     V     0.9371   0.875   0.3083
V98     V     0.875   0.9371   0.3083
Er99     Er     0.0439   0.7525   0.1854
Er100     Er     0.9561   0.7525   0.1854
Er101     Er     0.0439   0.8146   0.2475
Er102     Er     0.9561   0.8146   0.2475
V103     V     0.9371   0.6917   0.125
V104     V     0.875   0.6917   0.0629
V105     V     0.125   0.6917   0.0629
V106     V     0.0629   0.6917   0.125
Er107     Er     0.1854   0.7525   0.0439
Er108     Er     0.1854   0.7525   0.9561
Er109     Er     0.2475   0.8146   0.0439
Er110     Er     0.2475   0.8146   0.9561
V111     V     0.125   0.6917   0.9371
V112     V     0.0629   0.6917   0.875
V113     V     0.3083   0.9371   0.875
V114     V     0.3083   0.875   0.9371
Er115     Er     0.1854   0.0439   0.7525
Er116     Er     0.1854   0.9561   0.7525
Er117     Er     0.2475   0.0439   0.8146
Er118     Er     0.2475   0.9561   0.8146
V119     V     0.125   0.9371   0.6917
V120     V     0.0629   0.875   0.6917
V121     V     0.0629   0.125   0.6917
V122     V     0.125   0.0629   0.6917
Er123     Er     0.0439   0.1854   0.7525
Er124     Er     0.9561   0.1854   0.7525
Er125     Er     0.0439   0.2475   0.8146
Er126     Er     0.9561   0.2475   0.8146
V127     V     0.9371   0.125   0.6917
V128     V     0.875   0.0629   0.6917
V129     V     0.875   0.3083   0.9371
V130     V     0.9371   0.3083   0.875
Er131     Er     0.7525   0.1854   0.0439
Er132     Er     0.7525   0.1854   0.9561
Er133     Er     0.8146   0.2475   0.0439
Er134     Er     0.8146   0.2475   0.9561
V135     V     0.6917   0.125   0.9371
V136     V     0.6917   0.0629   0.875
V137     V     0.6917   0.0629   0.125
V138     V     0.6917   0.125   0.0629
Er139     Er     0.7525   0.0439   0.1854
Er140     Er     0.7525   0.9561   0.1854
Er141     Er     0.8146   0.0439   0.2475
Er142     Er     0.8146   0.9561   0.2475
V143     V     0.6917   0.9371   0.125
V144     V     0.6917   0.875   0.0629
loop_
_geom_bond_atom_site_label_1
_geom_bond_atom_site_label_2
_geom_bond_distance
_geom_bond_site_symmetry_2
_ccdc_geom_bond_type
Ce1     Ce3    9.999   1_554     S
Ce1     Ce6    9.999   1_545     S
Ce1     Ce2    9.999   .     S
Ce1     Ti31    10.001   .     S
Ce2     Ce4    9.999   1_554     S
Ce2     Ce5    9.999   1_545     S
Ce2     Ti46    10.001   .     S
Ce3     Ce1    9.999   1_556     S
Ce3     Ce8    9.999   1_545     S
Ce3     Ce4    9.999   .     S
Ce3     Ti33    10.001   .     S
Ce4     Ce2    9.999   1_556     S
Ce4     Ce7    9.999   1_545     S
Ce4     Ti41    10.001   .     S
Ce5     Ce2    9.999   1_565     S
Ce5     Ce6    9.999   .     S
Ce5     Ce7    9.999   1_554     S
Ce5     Ti43    10.001   .     S
Ce6     Ce1    9.999   1_565     S
Ce6     Ce8    9.999   1_554     S
Ce6     Ti28    10.001   .     S
Ce7     Ce4    9.999   1_565     S
Ce7     Ce5    9.999   1_556     S
Ce7     Ce8    9.999   .     S
Ce7     Ti38    10.001   .     S
Ce8     Ce3    9.999   1_565     S
Ce8     Ce6    9.999   1_556     S
Ce8     Ti26    10.001   .     S
Ce9     Ce16    9.999   1_455     S
Ce9     Ce10    9.999   .     S
Ce9     Ce11    9.999   1_556     S
Ce9     Ti29    10.001   .     S
Ce10     Ce15    9.999   1_455     S
Ce10     Ce12    9.999   1_556     S
Ce10     Ti45    10.001   .     S
Ce11     Ce9    9.999   1_554     S
Ce11     Ce13    9.999   1_455     S
Ce11     Ce12    9.999   .     S
Ce11     Ti34    10.001   .     S
Ce12     Ce14    9.999   1_455     S
Ce12     Ce10    9.999   1_554     S
Ce12     Ti44    10.001   .     S
Ce13     Ce11    9.999   1_655     S
Ce13     Ce16    9.999   1_554     S
Ce13     Ce14    9.999   .     S
Ce13     Ti32    10.001   .     S
Ce14     Ce12    9.999   1_655     S
Ce14     Ce15    9.999   1_554     S
Ce14     Ti40    10.001   .     S
Ce15     Ce10    9.999   1_655     S
Ce15     Ce14    9.999   1_556     S
Ce15     Ce16    9.999   .     S
Ce15     Ti37    10.001   .     S
Ce16     Ce9    9.999   1_655     S
Ce16     Ce13    9.999   1_556     S
Ce16     Ti27    10.001   .     S
Ce17     Ce18    9.999   1_545     S
Ce17     Ce21    9.999   1_455     S
Ce17     Ce20    9.999   .     S
Ce17     Ti35    10.001   .     S
Ce18     Ce17    9.999   1_565     S
Ce18     Ce24    9.999   1_455     S
Ce18     Ce19    9.999   .     S
Ce18     Ti36    10.001   .     S
Ce19     Ce23    9.999   1_455     S
Ce19     Ce20    9.999   1_565     S
Ce19     Ti42    10.001   .     S
Ce20     Ce22    9.999   1_455     S
Ce20     Ce19    9.999   1_545     S
Ce20     Ti48    10.001   .     S
Ce21     Ce17    9.999   1_655     S
Ce21     Ce24    9.999   1_545     S
Ce21     Ce22    9.999   .     S
Ce21     Ti30    10.001   .     S
Ce22     Ce20    9.999   1_655     S
Ce22     Ce23    9.999   1_545     S
Ce22     Ti47    10.001   .     S
Ce23     Ce19    9.999   1_655     S
Ce23     Ce22    9.999   1_565     S
Ce23     Ce24    9.999   .     S
Ce23     Ti39    10.001   .     S
Ce24     Ce18    9.999   1_655     S
Ce24     Ce21    9.999   1_565     S
Ce24     Ti25    10.001   .     S
Ti25     V49    10.0   .     S
Ti25     V50    10.0   .     S
Ti26     V55    10.0   .     S
Ti26     V56    10.0   .     S
Ti27     V65    10.0   .     S
Ti27     V66    10.0   .     S
Ti28     V143    10.0   .     S
Ti28     V144    10.0   .     S
Ti29     V111    10.0   .     S
Ti29     V112    10.0   .     S
Ti30     V127    10.0   .     S
Ti30     V128    10.0   .     S
Ti31     V138    10.0   .     S
Ti31     V137    10.0   .     S
Ti32     V104    10.0   .     S
Ti32     V103    10.0   .     S
Ti33     V136    10.0   .     S
Ti33     V135    10.0   .     S
Ti34     V106    10.0   .     S
Ti34     V105    10.0   .     S
Ti35     V122    10.0   .     S
Ti35     V121    10.0   .     S
Ti36     V120    10.0   .     S
Ti36     V119    10.0   .     S
Ti37     V129    10.0   .     S
Ti37     V130    10.0   .     S
Ti38     V113    10.0   .     S
Ti38     V114    10.0   .     S
Ti39     V97    10.0   .     S
Ti39     V98    10.0   .     S
Ti40     V95    10.0   .     S
Ti40     V96    10.0   .     S
Ti41     V75    10.0   .     S
Ti41     V76    10.0   .     S
Ti42     V85    10.0   .     S
Ti42     V86    10.0   .     S
Ti43     V80    10.0   .     S
Ti43     V79    10.0   .     S
Ti44     V67    10.0   .     S
Ti44     V68    10.0   .     S
Ti45     V70    10.0   .     S
Ti45     V69    10.0   .     S
Ti46     V77    10.0   .     S
Ti46     V78    10.0   .     S
Ti47     V90    10.0   .     S
Ti47     V89    10.0   .     S
Ti48     V87    10.0   .     S
Ti48     V88    10.0   .     S
V49     V50    10.0   .     S
V49     Er52    10.0   .     S
V50     Er64    10.0   .     S
Er51     Er52    9.999   1_545     S
Er51     Er53    10.0   .     S
Er51     V128    10.0   .     S
Er52     Er51    9.999   1_565     S
Er52     Er54    10.0   .     S
Er53     Er54    9.999   1_545     S
Er53     V136    10.0   .     S
Er54     Er53    9.999   1_565     S
Er54     V56    10.0   .     S
V55     V56    10.0   .     S
V55     Er58    10.0   .     S
Er57     Er58    9.999   1_554     S
Er57     Er59    10.0   .     S
Er57     V144    10.0   .     S
Er58     Er57    9.999   1_556     S
Er58     Er60    10.0   .     S
Er59     Er60    9.999   1_554     S
Er59     V104    10.0   .     S
Er60     Er59    9.999   1_556     S
Er60     V66    10.0   .     S
Er61     Er62    9.999   1_455     S
Er61     Er63    10.0   .     S
Er61     V112    10.0   .     S
Er62     Er61    9.999   1_655     S
Er62     Er64    10.0   .     S
Er62     V65    10.0   .     S
Er63     Er64    9.999   1_455     S
Er63     V120    10.0   .     S
Er64     Er63    9.999   1_655     S
V65     V66    10.0   .     S
V67     V68    10.0   .     S
V67     Er71    10.0   .     S
V68     Er91    10.0   .     S
V69     V70    10.0   .     S
V69     Er72    10.0   .     S
V70     Er125    10.0   .     S
Er71     Er72    9.999   1_554     S
Er71     Er73    10.0   .     S
Er72     Er71    9.999   1_556     S
Er72     Er74    10.0   .     S
Er73     Er74    9.999   1_554     S
Er73     V78    10.0   .     S
Er74     Er73    9.999   1_556     S
Er74     V75    10.0   .     S
V75     V76    10.0   .     S
V76     Er117    10.0   .     S
V77     V78    10.0   .     S
V77     Er81    10.0   .     S
V79     V80    10.0   .     S
V79     Er82    10.0   .     S
V80     Er109    10.0   .     S
Er81     Er82    9.999   1_545     S
Er81     Er83    10.0   .     S
Er82     Er81    9.999   1_565     S
Er82     Er84    10.0   .     S
Er83     Er84    9.999   1_545     S
Er83     V88    10.0   .     S
Er84     Er83    9.999   1_565     S
Er84     V85    10.0   .     S
V85     V86    10.0   .     S
V86     Er101    10.0   .     S
V87     V88    10.0   .     S
V87     Er93    10.0   .     S
V89     V90    10.0   .     S
V89     Er94    10.0   .     S
V90     Er141    10.0   .     S
Er91     Er92    9.999   1_455     S
Er91     Er93    10.0   .     S
Er92     Er91    9.999   1_655     S
Er92     Er94    10.0   .     S
Er92     V95    10.0   .     S
Er93     Er94    9.999   1_455     S
Er94     Er93    9.999   1_655     S
V95     V96    10.0   .     S
V96     Er133    10.0   .     S
V97     V98    10.0   .     S
V97     Er102    10.0   .     S
V98     Er142    10.0   .     S
Er99     Er100    9.999   1_455     S
Er99     Er101    10.0   .     S
Er99     V106    10.0   .     S
Er100     Er99    9.999   1_655     S
Er100     Er102    10.0   .     S
Er100     V103    10.0   .     S
Er101     Er102    9.999   1_455     S
Er102     Er101    9.999   1_655     S
V103     V104    10.0   .     S
V105     V106    10.0   .     S
V105     Er107    10.0   .     S
Er107     Er108    9.999   1_554     S
Er107     Er109    10.0   .     S
Er108     Er107    9.999   1_556     S
Er108     Er110    10.0   .     S
Er108     V111    10.0   .     S
Er109     Er110    9.999   1_554     S
Er110     Er109    9.999   1_556     S
Er110     V114    10.0   .     S
V111     V112    10.0   .     S
V113     V114    10.0   .     S
V113     Er118    10.0   .     S
Er115     Er116    9.999   1_545     S
Er115     Er117    10.0   .     S
Er115     V122    10.0   .     S
Er116     Er115    9.999   1_565     S
Er116     Er118    10.0   .     S
Er116     V119    10.0   .     S
Er117     Er118    9.999   1_545     S
Er118     Er117    9.999   1_565     S
V119     V120    10.0   .     S
V121     V122    10.0   .     S
V121     Er123    10.0   .     S
Er123     Er124    9.999   1_455     S
Er123     Er125    10.0   .     S
Er124     Er123    9.999   1_655     S
Er124     Er126    10.0   .     S
Er124     V127    10.0   .     S
Er125     Er126    9.999   1_455     S
Er126     Er125    9.999   1_655     S
Er126     V130    10.0   .     S
V127     V128    10.0   .     S
V129     V130    10.0   .     S
V129     Er134    10.0   .     S
Er131     Er132    9.999   1_554     S
Er131     Er133    10.0   .     S
Er131     V138    10.0   .     S
Er132     Er131    9.999   1_556     S
Er132     Er134    10.0   .     S
Er132     V135    10.0   .     S
Er133     Er134    9.999   1_554     S
Er134     Er133    9.999   1_556     S
V135     V136    10.0   .     S
V137     V138    10.0   .     S
V137     Er139    10.0   .     S
Er139     Er140    9.999   1_545     S
Er139     Er141    10.0   .     S
Er140     Er139    9.999   1_565     S
Er140     Er142    10.0   .     S
Er140     V143    10.0   .     S
Er141     Er142    9.999   1_545     S
Er142     Er141    9.999   1_565     S
V143     V144    10.0   .     S
