data_urqa
_audit_creation_date              2020-02-02
_audit_creation_method            'Pymatgen'
_symmetry_space_group_name_H-M    'P1'
_symmetry_Int_Tables_number       1
loop_
_symmetry_equiv_pos_as_xyz
  x,y,z
_cell_length_a                    72.7784
_cell_length_b                    72.7784
_cell_length_c                    72.7784
_cell_angle_alpha                 90.0
_cell_angle_beta                 90.0
_cell_angle_gamma                 90.0
loop_
_atom_site_label
_atom_site_type_symbol
_atom_site_fract_x
_atom_site_fract_y
_atom_site_fract_z
Ce1     Ce     0.4313   0.4313   0.3341
Ce2     Ce     0.4313   0.5687   0.3341
Ce3     Ce     0.5687   0.5687   0.3341
Ce4     Ce     0.5687   0.4313   0.3341
Ce5     Ce     0.3341   0.4313   0.5687
Ce6     Ce     0.3341   0.4313   0.4313
Ce7     Ce     0.3341   0.5687   0.4313
Ce8     Ce     0.3341   0.5687   0.5687
Ce9     Ce     0.4313   0.3341   0.5687
Ce10     Ce     0.4313   0.3341   0.4313
Ce11     Ce     0.5687   0.3341   0.4313
Ce12     Ce     0.5687   0.3341   0.5687
Ce13     Ce     0.6659   0.5687   0.4313
Ce14     Ce     0.6659   0.5687   0.5687
Ce15     Ce     0.6659   0.4313   0.4313
Ce16     Ce     0.6659   0.4313   0.5687
Ce17     Ce     0.4313   0.6659   0.5687
Ce18     Ce     0.4313   0.6659   0.4313
Ce19     Ce     0.5687   0.6659   0.4313
Ce20     Ce     0.5687   0.6659   0.5687
Ce21     Ce     0.4313   0.4313   0.6659
Ce22     Ce     0.4313   0.5687   0.6659
Ce23     Ce     0.5687   0.4313   0.6659
Ce24     Ce     0.5687   0.5687   0.6659
Ti25     Ti     0.3754   0.3754   0.7783
Er26     Er     0.3747   0.2775   0.8747
Er27     Er     0.2775   0.3747   0.8747
Ti28     Ti     0.7783   0.3754   0.3754
Er29     Er     0.8747   0.3747   0.2775
Er30     Er     0.8747   0.2775   0.3747
Ti31     Ti     0.3754   0.7783   0.3754
Er32     Er     0.2775   0.8747   0.3747
Er33     Er     0.3747   0.8747   0.2775
Ti34     Ti     0.3754   0.3754   0.2217
Er35     Er     0.2775   0.3747   0.1253
Er36     Er     0.3747   0.2775   0.1253
Ti37     Ti     0.3754   0.2217   0.3754
Er38     Er     0.3747   0.1253   0.2775
Er39     Er     0.2775   0.1253   0.3747
Ti40     Ti     0.2217   0.3754   0.3754
Er41     Er     0.1253   0.2775   0.3747
Er42     Er     0.1253   0.3747   0.2775
Ti43     Ti     0.3754   0.6246   0.7783
Er44     Er     0.2775   0.6253   0.8747
Er45     Er     0.3747   0.7225   0.8747
Ti46     Ti     0.7783   0.3754   0.6246
Er47     Er     0.8747   0.2775   0.6253
Er48     Er     0.8747   0.3747   0.7225
Ti49     Ti     0.6246   0.7783   0.3754
Er50     Er     0.6253   0.8747   0.2775
Er51     Er     0.7225   0.8747   0.3747
Ti52     Ti     0.6246   0.3754   0.7783
Er53     Er     0.6253   0.2775   0.8747
Er54     Er     0.7225   0.3747   0.8747
Ti55     Ti     0.3754   0.7783   0.6246
Er56     Er     0.2775   0.8747   0.6253
Er57     Er     0.3747   0.8747   0.7225
Ti58     Ti     0.7783   0.6246   0.3754
Er59     Er     0.8747   0.6253   0.2775
Er60     Er     0.8747   0.7225   0.3747
Ti61     Ti     0.6246   0.6246   0.7783
Er62     Er     0.6253   0.7225   0.8747
Er63     Er     0.7225   0.6253   0.8747
Ti64     Ti     0.6246   0.3754   0.2217
Er65     Er     0.6253   0.2775   0.1253
Er66     Er     0.7225   0.3747   0.1253
Ti67     Ti     0.3754   0.2217   0.6246
Er68     Er     0.2775   0.1253   0.6253
Er69     Er     0.3747   0.1253   0.7225
Ti70     Ti     0.2217   0.6246   0.3754
Er71     Er     0.1253   0.6253   0.2775
Er72     Er     0.1253   0.7225   0.3747
Ti73     Ti     0.3754   0.6246   0.2217
Er74     Er     0.2775   0.6253   0.1253
Er75     Er     0.3747   0.7225   0.1253
Ti76     Ti     0.7783   0.6246   0.6246
Er77     Er     0.8747   0.6253   0.7225
Er78     Er     0.8747   0.7225   0.6253
Ti79     Ti     0.2217   0.3754   0.6246
Er80     Er     0.1253   0.2775   0.6253
Er81     Er     0.1253   0.3747   0.7225
Ti82     Ti     0.6246   0.7783   0.6246
Er83     Er     0.7225   0.8747   0.6253
Er84     Er     0.6253   0.8747   0.7225
Ti85     Ti     0.6246   0.2217   0.3754
Er86     Er     0.6253   0.1253   0.2775
Er87     Er     0.7225   0.1253   0.3747
V88     V     0.1659   0.5687   0.9313
V89     V     0.1659   0.4313   0.9313
V90     V     0.1659   0.5687   0.0687
V91     V     0.1659   0.4313   0.0687
V92     V     0.9313   0.5687   0.1659
V93     V     0.9313   0.4313   0.1659
V94     V     0.0687   0.4313   0.1659
V95     V     0.0687   0.5687   0.1659
V96     V     0.9313   0.4313   0.8341
V97     V     0.9313   0.5687   0.8341
V98     V     0.0687   0.5687   0.8341
V99     V     0.0687   0.4313   0.8341
V100     V     0.8341   0.5687   0.9313
V101     V     0.8341   0.4313   0.9313
V102     V     0.8341   0.5687   0.0687
V103     V     0.8341   0.4313   0.0687
Ti104     Ti     0.6246   0.6246   0.2217
Er105     Er     0.6253   0.7225   0.1253
Er106     Er     0.7225   0.6253   0.1253
V107     V     0.5687   0.1659   0.9313
V108     V     0.4313   0.1659   0.9313
V109     V     0.4313   0.1659   0.0687
V110     V     0.5687   0.1659   0.0687
V111     V     0.4313   0.9313   0.1659
V112     V     0.5687   0.9313   0.1659
V113     V     0.5687   0.0687   0.1659
V114     V     0.4313   0.0687   0.1659
V115     V     0.5687   0.8341   0.9313
V116     V     0.4313   0.8341   0.9313
V117     V     0.4313   0.8341   0.0687
V118     V     0.5687   0.8341   0.0687
V119     V     0.5687   0.9313   0.8341
V120     V     0.4313   0.9313   0.8341
V121     V     0.5687   0.0687   0.8341
V122     V     0.4313   0.0687   0.8341
Ti123     Ti     0.6246   0.2217   0.6246
Er124     Er     0.7225   0.1253   0.6253
Er125     Er     0.6253   0.1253   0.7225
Ti126     Ti     0.2217   0.6246   0.6246
Er127     Er     0.1253   0.7225   0.6253
Er128     Er     0.1253   0.6253   0.7225
V129     V     0.1659   0.9313   0.5687
V130     V     0.1659   0.9313   0.4313
V131     V     0.1659   0.0687   0.4313
V132     V     0.1659   0.0687   0.5687
V133     V     0.9313   0.1659   0.5687
V134     V     0.9313   0.1659   0.4313
V135     V     0.0687   0.1659   0.4313
V136     V     0.0687   0.1659   0.5687
V137     V     0.9313   0.8341   0.5687
V138     V     0.9313   0.8341   0.4313
V139     V     0.0687   0.8341   0.4313
V140     V     0.0687   0.8341   0.5687
V141     V     0.8341   0.9313   0.5687
V142     V     0.8341   0.9313   0.4313
V143     V     0.8341   0.0687   0.4313
V144     V     0.8341   0.0687   0.5687
loop_
_geom_bond_atom_site_label_1
_geom_bond_atom_site_label_2
_geom_bond_distance
_geom_bond_site_symmetry_2
_ccdc_geom_bond_type
Ce1     Ce2    10.0   .     S
Ce1     Ce4    10.0   .     S
Ce1     Ti34    10.0   .     S
Ce1     Ce10    10.0   .     S
Ce1     Ce6    10.0   .     S
Ce2     Ce3    10.0   .     S
Ce2     Ti73    10.0   .     S
Ce2     Ce18    10.0   .     S
Ce2     Ce7    10.0   .     S
Ce3     Ce4    10.0   .     S
Ce3     Ti104    10.0   .     S
Ce3     Ce13    10.0   .     S
Ce3     Ce19    10.0   .     S
Ce4     Ti64    10.0   .     S
Ce4     Ce15    10.0   .     S
Ce4     Ce11    10.0   .     S
Ce5     Ce6    10.0   .     S
Ce5     Ce8    10.0   .     S
Ce5     Ti79    10.0   .     S
Ce5     Ce21    10.0   .     S
Ce5     Ce9    10.0   .     S
Ce6     Ce10    10.0   .     S
Ce6     Ce7    10.0   .     S
Ce6     Ti40    10.0   .     S
Ce7     Ce8    10.0   .     S
Ce7     Ti70    10.0   .     S
Ce7     Ce18    10.0   .     S
Ce8     Ti126    10.0   .     S
Ce8     Ce17    10.0   .     S
Ce8     Ce22    10.0   .     S
Ce9     Ce10    10.0   .     S
Ce9     Ce12    10.0   .     S
Ce9     Ti67    10.0   .     S
Ce9     Ce21    10.0   .     S
Ce10     Ce11    10.0   .     S
Ce10     Ti37    10.0   .     S
Ce11     Ce12    10.0   .     S
Ce11     Ti85    10.0   .     S
Ce11     Ce15    10.0   .     S
Ce12     Ti123    10.0   .     S
Ce12     Ce16    10.0   .     S
Ce12     Ce23    10.0   .     S
Ce13     Ce14    10.0   .     S
Ce13     Ce15    10.0   .     S
Ce13     Ti58    10.0   .     S
Ce13     Ce19    10.0   .     S
Ce14     Ce16    10.0   .     S
Ce14     Ti76    10.0   .     S
Ce14     Ce20    10.0   .     S
Ce14     Ce24    10.0   .     S
Ce15     Ce16    10.0   .     S
Ce15     Ti28    10.0   .     S
Ce16     Ti46    10.0   .     S
Ce16     Ce23    10.0   .     S
Ce17     Ce18    10.0   .     S
Ce17     Ce20    10.0   .     S
Ce17     Ti55    10.0   .     S
Ce17     Ce22    10.0   .     S
Ce18     Ce19    10.0   .     S
Ce18     Ti31    10.0   .     S
Ce19     Ce20    10.0   .     S
Ce19     Ti49    10.0   .     S
Ce20     Ti82    10.0   .     S
Ce20     Ce24    10.0   .     S
Ce21     Ce22    10.0   .     S
Ce21     Ce23    10.0   .     S
Ce21     Ti25    10.0   .     S
Ce22     Ce24    10.0   .     S
Ce22     Ti43    10.0   .     S
Ce23     Ce24    10.0   .     S
Ce23     Ti52    10.0   .     S
Ce24     Ti61    10.0   .     S
Ti25     Er26    10.0   .     S
Ti25     Er27    10.0   .     S
Er26     Er27    10.0   .     S
Er26     V108    10.0   .     S
Er27     V89    10.0   .     S
Ti28     Er29    10.0   .     S
Ti28     Er30    10.0   .     S
Er29     Er30    10.0   .     S
Er29     V93    10.0   .     S
Er30     V134    10.0   .     S
Ti31     Er32    10.0   .     S
Ti31     Er33    10.0   .     S
Er32     Er33    10.0   .     S
Er32     V130    10.0   .     S
Er33     V111    10.0   .     S
Ti34     Er35    10.0   .     S
Ti34     Er36    10.0   .     S
Er35     Er36    10.0   .     S
Er35     V91    10.0   .     S
Er36     V109    10.0   .     S
Ti37     Er38    10.0   .     S
Ti37     Er39    10.0   .     S
Er38     Er39    10.0   .     S
Er38     V114    10.0   .     S
Er39     V131    10.0   .     S
Ti40     Er41    10.0   .     S
Ti40     Er42    10.0   .     S
Er41     Er42    10.0   .     S
Er41     V135    10.0   .     S
Er42     V94    10.0   .     S
Ti43     Er44    10.0   .     S
Ti43     Er45    10.0   .     S
Er44     Er45    10.0   .     S
Er44     V88    10.0   .     S
Er45     V116    10.0   .     S
Ti46     Er47    10.0   .     S
Ti46     Er48    10.0   .     S
Er47     Er48    10.0   .     S
Er47     V133    10.0   .     S
Er48     V96    10.0   .     S
Ti49     Er50    10.0   .     S
Ti49     Er51    10.0   .     S
Er50     Er51    10.0   .     S
Er50     V112    10.0   .     S
Er51     V142    10.0   .     S
Ti52     Er54    10.0   .     S
Ti52     Er53    10.0   .     S
Er53     Er54    10.0   .     S
Er53     V107    10.0   .     S
Er54     V101    10.0   .     S
Ti55     Er57    10.0   .     S
Ti55     Er56    10.0   .     S
Er56     Er57    10.0   .     S
Er56     V129    10.0   .     S
Er57     V120    10.0   .     S
Ti58     Er60    10.0   .     S
Ti58     Er59    10.0   .     S
Er59     Er60    10.0   .     S
Er59     V92    10.0   .     S
Er60     V138    10.0   .     S
Ti61     Er62    10.0   .     S
Ti61     Er63    10.0   .     S
Er62     Er63    10.0   .     S
Er62     V115    10.0   .     S
Er63     V100    10.0   .     S
Ti64     Er65    10.0   .     S
Ti64     Er66    10.0   .     S
Er65     Er66    10.0   .     S
Er65     V110    10.0   .     S
Er66     V103    10.0   .     S
Ti67     Er68    10.0   .     S
Ti67     Er69    10.0   .     S
Er68     Er69    10.0   .     S
Er68     V132    10.0   .     S
Er69     V122    10.0   .     S
Ti70     Er71    10.0   .     S
Ti70     Er72    10.0   .     S
Er71     Er72    10.0   .     S
Er71     V95    10.0   .     S
Er72     V139    10.0   .     S
Ti73     Er75    10.0   .     S
Ti73     Er74    10.0   .     S
Er74     Er75    10.0   .     S
Er74     V90    10.0   .     S
Er75     V117    10.0   .     S
Ti76     Er77    10.0   .     S
Ti76     Er78    10.0   .     S
Er77     Er78    10.0   .     S
Er77     V97    10.0   .     S
Er78     V137    10.0   .     S
Ti79     Er81    10.0   .     S
Ti79     Er80    10.0   .     S
Er80     Er81    10.0   .     S
Er80     V136    10.0   .     S
Er81     V99    10.0   .     S
Ti82     Er83    10.0   .     S
Ti82     Er84    10.0   .     S
Er83     Er84    10.0   .     S
Er83     V141    10.0   .     S
Er84     V119    10.0   .     S
Ti85     Er87    10.0   .     S
Ti85     Er86    10.0   .     S
Er86     Er87    10.0   .     S
Er86     V113    10.0   .     S
Er87     V143    10.0   .     S
V88     V90    10.0   1_556     S
V88     V89    10.0   .     S
V88     V98    10.0   .     S
V89     V91    10.0   1_556     S
V89     V99    10.0   .     S
V90     V88    10.0   1_554     S
V90     V91    10.0   .     S
V90     V95    10.0   .     S
V91     V89    10.0   1_554     S
V91     V94    10.0   .     S
V92     V95    10.0   1_655     S
V92     V93    10.0   .     S
V92     V102    10.0   .     S
V93     V94    10.0   1_655     S
V93     V103    10.0   .     S
V94     V93    10.0   1_455     S
V94     V95    10.0   .     S
V95     V92    10.0   1_455     S
V96     V99    10.0   1_655     S
V96     V97    10.0   .     S
V96     V101    10.0   .     S
V97     V98    10.0   1_655     S
V97     V100    10.0   .     S
V98     V97    10.0   1_455     S
V98     V99    10.0   .     S
V98     Er128    10.0   .     S
V99     V96    10.0   1_455     S
V100     V102    10.0   1_556     S
V100     V101    10.0   .     S
V101     V103    10.0   1_556     S
V102     V100    10.0   1_554     S
V102     V103    10.0   .     S
V102     Er106    10.0   .     S
V103     V101    10.0   1_554     S
Ti104     Er106    10.0   .     S
Ti104     Er105    10.0   .     S
Er105     Er106    10.0   .     S
Er105     V118    10.0   .     S
V107     V110    10.0   1_556     S
V107     V108    10.0   .     S
V107     V121    10.0   .     S
V108     V109    10.0   1_556     S
V108     V122    10.0   .     S
V109     V108    10.0   1_554     S
V109     V110    10.0   .     S
V109     V114    10.0   .     S
V110     V107    10.0   1_554     S
V110     V113    10.0   .     S
V111     V114    10.0   1_565     S
V111     V112    10.0   .     S
V111     V117    10.0   .     S
V112     V113    10.0   1_565     S
V112     V118    10.0   .     S
V113     V112    10.0   1_545     S
V113     V114    10.0   .     S
V114     V111    10.0   1_545     S
V115     V118    10.0   1_556     S
V115     V116    10.0   .     S
V115     V119    10.0   .     S
V116     V117    10.0   1_556     S
V116     V120    10.0   .     S
V117     V116    10.0   1_554     S
V117     V118    10.0   .     S
V118     V115    10.0   1_554     S
V119     V121    10.0   1_565     S
V119     V120    10.0   .     S
V120     V122    10.0   1_565     S
V121     V119    10.0   1_545     S
V121     V122    10.0   .     S
V121     Er125    10.0   .     S
V122     V120    10.0   1_545     S
Ti123     Er125    10.0   .     S
Ti123     Er124    10.0   .     S
Er124     Er125    10.0   .     S
Er124     V144    10.0   .     S
Ti126     Er127    10.0   .     S
Ti126     Er128    10.0   .     S
Er127     Er128    10.0   .     S
Er127     V140    10.0   .     S
V129     V132    10.0   1_565     S
V129     V130    10.0   .     S
V129     V140    10.0   .     S
V130     V131    10.0   1_565     S
V130     V139    10.0   .     S
V131     V130    10.0   1_545     S
V131     V132    10.0   .     S
V131     V135    10.0   .     S
V132     V129    10.0   1_545     S
V132     V136    10.0   .     S
V133     V136    10.0   1_655     S
V133     V134    10.0   .     S
V133     V144    10.0   .     S
V134     V135    10.0   1_655     S
V134     V143    10.0   .     S
V135     V134    10.0   1_455     S
V135     V136    10.0   .     S
V136     V133    10.0   1_455     S
V137     V140    10.0   1_655     S
V137     V138    10.0   .     S
V137     V141    10.0   .     S
V138     V139    10.0   1_655     S
V138     V142    10.0   .     S
V139     V138    10.0   1_455     S
V139     V140    10.0   .     S
V140     V137    10.0   1_455     S
V141     V144    10.0   1_565     S
V141     V142    10.0   .     S
V142     V143    10.0   1_565     S
V143     V142    10.0   1_545     S
V143     V144    10.0   .     S
V144     V141    10.0   1_545     S
