data_urs
_audit_creation_date              2020-02-02
_audit_creation_method            'Pymatgen'
_symmetry_space_group_name_H-M    'P1'
_symmetry_Int_Tables_number       1
loop_
_symmetry_equiv_pos_as_xyz
  x,y,z
_cell_length_a                    17.3239
_cell_length_b                    17.3239
_cell_length_c                    24.4854
_cell_angle_alpha                 90.0
_cell_angle_beta                 90.0
_cell_angle_gamma                 90.0
loop_
_atom_site_label
_atom_site_type_symbol
_atom_site_fract_x
_atom_site_fract_y
_atom_site_fract_z
V1     V     0.0   0.0   0.0
Ti2     Ti     0.1668   0.5   0.1665
Ti3     Ti     0.5   0.1668   0.1665
Ti4     Ti     0.8332   0.5   0.1665
Ti5     Ti     0.5   0.8332   0.1665
Ti6     Ti     0.1668   0.5   0.8335
Ti7     Ti     0.5   0.1668   0.8335
Ti8     Ti     0.8332   0.5   0.8335
Ti9     Ti     0.5   0.8332   0.8335
Er10     Er     0.5   0.5   0.5
loop_
_geom_bond_atom_site_label_1
_geom_bond_atom_site_label_2
_geom_bond_distance
_geom_bond_site_symmetry_2
_ccdc_geom_bond_type
V1     Ti5    10.0   1_545     S
V1     Ti3    10.0   .     S
V1     Ti7    10.0   1_554     S
V1     Ti9    10.0   1_544     S
V1     Ti2    10.0   .     S
V1     Ti4    10.0   1_455     S
V1     Ti8    10.0   1_454     S
V1     Ti6    10.0   1_554     S
V1     Ti3    10.0   1_455     S
V1     Ti5    10.0   1_445     S
V1     Ti9    10.0   1_444     S
V1     Ti7    10.0   1_454     S
V1     Ti4    10.0   1_445     S
V1     Ti2    10.0   1_545     S
V1     Ti6    10.0   1_544     S
V1     Ti8    10.0   1_444     S
Ti2     V1    10.0   1_565     S
Ti2     Er10    10.0   .     S
Ti3     V1    10.0   1_655     S
Ti3     Er10    10.0   .     S
Ti4     V1    10.0   1_655     S
Ti4     V1    10.0   1_665     S
Ti4     Er10    10.0   .     S
Ti5     V1    10.0   1_565     S
Ti5     V1    10.0   1_665     S
Ti5     Er10    10.0   .     S
Ti6     Er10    10.0   .     S
Ti6     V1    10.0   1_556     S
Ti6     V1    10.0   1_566     S
Ti7     Er10    10.0   .     S
Ti7     V1    10.0   1_556     S
Ti7     V1    10.0   1_656     S
Ti8     Er10    10.0   .     S
Ti8     V1    10.0   1_656     S
Ti8     V1    10.0   1_666     S
Ti9     Er10    10.0   .     S
Ti9     V1    10.0   1_566     S
Ti9     V1    10.0   1_666     S
