data_urta
_audit_creation_date              2020-02-02
_audit_creation_method            'Pymatgen'
_symmetry_space_group_name_H-M    'P1'
_symmetry_Int_Tables_number       1
loop_
_symmetry_equiv_pos_as_xyz
  x,y,z
_cell_length_a                    80.798
_cell_length_b                    80.798
_cell_length_c                    107.9511
_cell_angle_alpha                 90.0
_cell_angle_beta                 90.0
_cell_angle_gamma                 90.0
loop_
_atom_site_label
_atom_site_type_symbol
_atom_site_fract_x
_atom_site_fract_y
_atom_site_fract_z
Ce1     Ce     0.0619   0.7826   0.1893
Ce2     Ce     0.9381   0.7826   0.1893
Ti3     Ti     0.1671   0.7453   0.2292
Ti4     Ti     0.8329   0.7453   0.2292
Ce5     Ce     0.7826   0.0619   0.1893
Ce6     Ce     0.7826   0.9381   0.1893
Ti7     Ti     0.7453   0.1671   0.2292
Ti8     Ti     0.7453   0.8329   0.2292
Ce9     Ce     0.2174   0.0619   0.1893
Ce10     Ce     0.2174   0.9381   0.1893
Ti11     Ti     0.2547   0.1671   0.2292
Ti12     Ti     0.2547   0.8329   0.2292
Ce13     Ce     0.0619   0.2174   0.1893
Ce14     Ce     0.9381   0.2174   0.1893
Ti15     Ti     0.1671   0.2547   0.2292
Ti16     Ti     0.8329   0.2547   0.2292
Ce17     Ce     0.4381   0.7174   0.3107
Ce18     Ce     0.5619   0.7174   0.3107
Ti19     Ti     0.6671   0.7547   0.2708
Ti20     Ti     0.3329   0.7547   0.2708
Ce21     Ce     0.4381   0.2826   0.3107
Ce22     Ce     0.5619   0.2826   0.3107
Ti23     Ti     0.6671   0.2453   0.2708
Ti24     Ti     0.3329   0.2453   0.2708
Ce25     Ce     0.2826   0.4381   0.3107
Ce26     Ce     0.2826   0.5619   0.3107
Ti27     Ti     0.2453   0.6671   0.2708
Ti28     Ti     0.2453   0.3329   0.2708
Ti29     Ti     0.7547   0.3329   0.2708
Ce30     Ce     0.7174   0.4381   0.3107
Ce31     Ce     0.7174   0.5619   0.3107
Ti32     Ti     0.7547   0.6671   0.2708
Er33     Er     0.8433   0.0   0.8769
Er34     Er     0.0   0.8433   0.8769
V35     V     0.0   0.9125   0.9537
V36     V     0.9125   0.0   0.9537
V37     V     0.0   0.0875   0.9537
V38     V     0.0875   0.0   0.9537
Er39     Er     0.1567   0.0   0.8769
Er40     Er     0.0   0.1567   0.8769
Er41     Er     0.0   0.8433   0.1231
Er42     Er     0.8433   0.0   0.1231
Er43     Er     0.1567   0.0   0.1231
V44     V     0.9125   0.0   0.0463
V45     V     0.0   0.9125   0.0463
V46     V     0.0875   0.0   0.0463
V47     V     0.0   0.0875   0.0463
Er48     Er     0.0   0.1567   0.1231
Ti49     Ti     0.7453   0.1671   0.7708
Ce50     Ce     0.7826   0.0619   0.8107
Ce51     Ce     0.7826   0.9381   0.8107
Ti52     Ti     0.7453   0.8329   0.7708
Ti53     Ti     0.1671   0.7453   0.7708
Ce54     Ce     0.0619   0.7826   0.8107
Ce55     Ce     0.9381   0.7826   0.8107
Ti56     Ti     0.8329   0.7453   0.7708
Ti57     Ti     0.1671   0.2547   0.7708
Ce58     Ce     0.0619   0.2174   0.8107
Ce59     Ce     0.9381   0.2174   0.8107
Ti60     Ti     0.8329   0.2547   0.7708
Ti61     Ti     0.2547   0.1671   0.7708
Ce62     Ce     0.2174   0.0619   0.8107
Ce63     Ce     0.2174   0.9381   0.8107
Ti64     Ti     0.2547   0.8329   0.7708
Ti65     Ti     0.7547   0.3329   0.7292
Ce66     Ce     0.7174   0.4381   0.6893
Ce67     Ce     0.7174   0.5619   0.6893
Ti68     Ti     0.7547   0.6671   0.7292
Ti69     Ti     0.2453   0.3329   0.7292
Ce70     Ce     0.2826   0.4381   0.6893
Ce71     Ce     0.2826   0.5619   0.6893
Ti72     Ti     0.2453   0.6671   0.7292
Ti73     Ti     0.3329   0.2453   0.7292
Ce74     Ce     0.4381   0.2826   0.6893
Ce75     Ce     0.5619   0.2826   0.6893
Ti76     Ti     0.6671   0.2453   0.7292
Ti77     Ti     0.3329   0.7547   0.7292
Ce78     Ce     0.4381   0.7174   0.6893
Ce79     Ce     0.5619   0.7174   0.6893
Ti80     Ti     0.6671   0.7547   0.7292
V81     V     0.4125   0.5   0.5463
V82     V     0.5   0.5875   0.5463
V83     V     0.5875   0.5   0.5463
V84     V     0.5   0.4125   0.5463
Er85     Er     0.5   0.6567   0.6231
Er86     Er     0.6567   0.5   0.6231
Er87     Er     0.3433   0.5   0.6231
Er88     Er     0.5   0.3433   0.6231
Er89     Er     0.5   0.6567   0.3769
Er90     Er     0.6567   0.5   0.3769
Er91     Er     0.3433   0.5   0.3769
V92     V     0.5   0.5875   0.4537
V93     V     0.5875   0.5   0.4537
V94     V     0.5   0.4125   0.4537
V95     V     0.4125   0.5   0.4537
Er96     Er     0.5   0.3433   0.3769
loop_
_geom_bond_atom_site_label_1
_geom_bond_atom_site_label_2
_geom_bond_distance
_geom_bond_site_symmetry_2
_ccdc_geom_bond_type
Ce1     Ce2    10.0   1_455     S
Ce1     Ti3    10.0   .     S
Ce1     Er41    10.0   .     S
Ce2     Ce1    10.0   1_655     S
Ce2     Ti4    10.0   .     S
Ce2     Er41    10.0   1_655     S
Ti3     Ti12    10.001   .     S
Ti3     Ti27    10.001   .     S
Ti4     Ti8    10.001   .     S
Ti4     Ti32    10.001   .     S
Ce5     Ce6    10.0   1_545     S
Ce5     Ti7    10.0   .     S
Ce5     Er42    10.0   .     S
Ce6     Ce5    10.0   1_565     S
Ce6     Ti8    10.0   .     S
Ce6     Er42    10.0   1_565     S
Ti7     Ti16    10.001   .     S
Ti7     Ti23    10.001   .     S
Ti8     Ti19    10.001   .     S
Ce9     Ce10    10.0   1_545     S
Ce9     Ti11    10.0   .     S
Ce9     Er43    10.0   .     S
Ce10     Ce9    10.0   1_565     S
Ce10     Ti12    10.0   .     S
Ce10     Er43    10.0   1_565     S
Ti11     Ti15    10.001   .     S
Ti11     Ti24    10.001   .     S
Ti12     Ti20    10.001   .     S
Ce13     Ce14    10.0   1_455     S
Ce13     Ti15    10.0   .     S
Ce13     Er48    10.0   .     S
Ce14     Ce13    10.0   1_655     S
Ce14     Ti16    10.0   .     S
Ce14     Er48    10.0   1_655     S
Ti15     Ti28    10.001   .     S
Ti16     Ti29    10.001   .     S
Ce17     Ce18    10.0   .     S
Ce17     Ti20    10.0   .     S
Ce17     Er89    10.0   .     S
Ce18     Ti19    10.0   .     S
Ce18     Er89    10.0   .     S
Ti19     Ti32    10.001   .     S
Ti20     Ti27    10.001   .     S
Ce21     Ce22    10.0   .     S
Ce21     Ti24    10.0   .     S
Ce21     Er96    10.0   .     S
Ce22     Ti23    10.0   .     S
Ce22     Er96    10.0   .     S
Ti23     Ti29    10.001   .     S
Ti24     Ti28    10.001   .     S
Ce25     Ce26    10.0   .     S
Ce25     Ti28    10.0   .     S
Ce25     Er91    10.0   .     S
Ce26     Ti27    10.0   .     S
Ce26     Er91    10.0   .     S
Ti29     Ce30    10.0   .     S
Ce30     Ce31    10.0   .     S
Ce30     Er90    10.0   .     S
Ce31     Ti32    10.0   .     S
Ce31     Er90    10.0   .     S
Er33     Ce51    10.0   1_545     S
Er33     Ce50    10.0   .     S
Er33     V36    10.0   .     S
Er34     Ce54    10.0   .     S
Er34     Ce55    10.0   1_455     S
Er34     V35    10.0   .     S
V35     V36    9.999   1_465     S
V35     V38    9.999   1_565     S
V35     V45    10.001   1_556     S
V36     V35    9.999   1_645     S
V36     V37    9.999   1_655     S
V36     V44    10.001   1_556     S
V37     V36    9.999   1_455     S
V37     V38    9.999   .     S
V37     Er40    10.0   .     S
V37     V47    10.001   1_556     S
V38     V35    9.999   1_545     S
V38     Er39    10.0   .     S
V38     V46    10.001   1_556     S
Er39     Ce62    10.0   .     S
Er39     Ce63    10.0   1_545     S
Er40     Ce59    10.0   1_455     S
Er40     Ce58    10.0   .     S
Er41     Ce2    10.0   1_455     S
Er41     V45    10.0   .     S
Er42     Ce6    10.0   1_545     S
Er42     V44    10.0   .     S
Er43     Ce10    10.0   1_545     S
Er43     V46    10.0   .     S
V44     V45    9.999   1_645     S
V44     V47    9.999   1_655     S
V44     V36    10.001   1_554     S
V45     V44    9.999   1_465     S
V45     V46    9.999   1_565     S
V45     V35    10.001   1_554     S
V46     V45    9.999   1_545     S
V46     V47    9.999   .     S
V46     V38    10.001   1_554     S
V47     V44    9.999   1_455     S
V47     Er48    10.0   .     S
V47     V37    10.001   1_554     S
Er48     Ce14    10.0   1_455     S
Ti49     Ce50    10.0   .     S
Ti49     Ti60    10.001   .     S
Ti49     Ti76    10.001   .     S
Ce50     Ce51    10.0   1_545     S
Ce51     Er33    10.0   1_565     S
Ce51     Ce50    10.0   1_565     S
Ce51     Ti52    10.0   .     S
Ti52     Ti56    10.001   .     S
Ti52     Ti80    10.001   .     S
Ti53     Ce54    10.0   .     S
Ti53     Ti64    10.001   .     S
Ti53     Ti72    10.001   .     S
Ce54     Ce55    10.0   1_455     S
Ce55     Er34    10.0   1_655     S
Ce55     Ce54    10.0   1_655     S
Ce55     Ti56    10.0   .     S
Ti56     Ti68    10.001   .     S
Ti57     Ce58    10.0   .     S
Ti57     Ti61    10.001   .     S
Ti57     Ti69    10.001   .     S
Ce58     Ce59    10.0   1_455     S
Ce59     Er40    10.0   1_655     S
Ce59     Ce58    10.0   1_655     S
Ce59     Ti60    10.0   .     S
Ti60     Ti65    10.001   .     S
Ti61     Ce62    10.0   .     S
Ti61     Ti73    10.001   .     S
Ce62     Ce63    10.0   1_545     S
Ce63     Er39    10.0   1_565     S
Ce63     Ce62    10.0   1_565     S
Ce63     Ti64    10.0   .     S
Ti64     Ti77    10.001   .     S
Ti65     Ce66    10.0   .     S
Ti65     Ti76    10.001   .     S
Ce66     Ce67    10.0   .     S
Ce66     Er86    10.0   .     S
Ce67     Ti68    10.0   .     S
Ce67     Er86    10.0   .     S
Ti68     Ti80    10.001   .     S
Ti69     Ce70    10.0   .     S
Ti69     Ti73    10.001   .     S
Ce70     Ce71    10.0   .     S
Ce70     Er87    10.0   .     S
Ce71     Ti72    10.0   .     S
Ce71     Er87    10.0   .     S
Ti72     Ti77    10.001   .     S
Ti73     Ce74    10.0   .     S
Ce74     Ce75    10.0   .     S
Ce74     Er88    10.0   .     S
Ce75     Ti76    10.0   .     S
Ce75     Er88    10.0   .     S
Ti77     Ce78    10.0   .     S
Ce78     Ce79    10.0   .     S
Ce78     Er85    10.0   .     S
Ce79     Ti80    10.0   .     S
Ce79     Er85    10.0   .     S
V81     V82    9.999   .     S
V81     V84    9.999   .     S
V81     Er87    10.0   .     S
V81     V95    10.001   .     S
V82     V83    9.999   .     S
V82     Er85    10.0   .     S
V82     V92    10.001   .     S
V83     V84    9.999   .     S
V83     Er86    10.0   .     S
V83     V93    10.001   .     S
V84     Er88    10.0   .     S
V84     V94    10.001   .     S
Er89     V92    10.0   .     S
Er90     V93    10.0   .     S
Er91     V95    10.0   .     S
V92     V93    9.999   .     S
V92     V95    9.999   .     S
V93     V94    9.999   .     S
V94     V95    9.999   .     S
V94     Er96    10.0   .     S
