data_urxa
_audit_creation_date              2020-02-02
_audit_creation_method            'Pymatgen'
_symmetry_space_group_name_H-M    'P1'
_symmetry_Int_Tables_number       1
loop_
_symmetry_equiv_pos_as_xyz
  x,y,z
_cell_length_a                    48.189
_cell_length_b                    48.189
_cell_length_c                    121.5977
_cell_angle_alpha                 90.0
_cell_angle_beta                 90.0
_cell_angle_gamma                 120.0
loop_
_atom_site_label
_atom_site_type_symbol
_atom_site_fract_x
_atom_site_fract_y
_atom_site_fract_z
Ce1     Ce     0.1131   0.2262   0.1101
Ce2     Ce     0.2262   0.1131   0.8899
Ce3     Ce     0.1131   0.8869   0.1101
Ce4     Ce     0.7738   0.8869   0.1101
Ce5     Ce     0.8869   0.1131   0.8899
Ce6     Ce     0.8869   0.7738   0.8899
Ti7     Ti     0.0692   0.9308   0.0336
Ti8     Ti     0.9308   0.8617   0.9664
Ti9     Ti     0.0692   0.1383   0.0336
Ti10     Ti     0.8617   0.9308   0.0336
Ti11     Ti     0.9308   0.0692   0.9664
Ti12     Ti     0.1383   0.0692   0.9664
V13     V     0.6667   0.1258   0.2911
V14     V     0.8742   0.3333   0.2911
Er15     Er     0.7019   0.9547   0.3231
Er16     Er     0.7019   0.7472   0.3231
Er17     Er     0.0453   0.7472   0.3231
Er18     Er     0.2528   0.9547   0.3231
V19     V     0.8742   0.5409   0.2911
V20     V     0.6667   0.5409   0.2911
Er21     Er     0.0453   0.2981   0.3231
Er22     Er     0.2528   0.2981   0.3231
V23     V     0.4592   0.3333   0.2911
V24     V     0.4592   0.1258   0.2911
Er25     Er     0.7019   0.9547   0.1769
Er26     Er     0.7019   0.7472   0.1769
V27     V     0.6667   0.1258   0.2089
V28     V     0.8742   0.3333   0.2089
V29     V     0.6667   0.5409   0.2089
V30     V     0.4592   0.3333   0.2089
V31     V     0.4592   0.1258   0.2089
Er32     Er     0.0453   0.2981   0.1769
Er33     Er     0.2528   0.2981   0.1769
V34     V     0.8742   0.5409   0.2089
Er35     Er     0.0453   0.7472   0.1769
Er36     Er     0.2528   0.9547   0.1769
Er37     Er     0.9547   0.7019   0.8231
Er38     Er     0.7472   0.7019   0.8231
V39     V     0.1258   0.6667   0.7911
V40     V     0.3333   0.8742   0.7911
V41     V     0.5409   0.6667   0.7911
V42     V     0.5409   0.8742   0.7911
Er43     Er     0.9547   0.2528   0.8231
Er44     Er     0.7472   0.0453   0.8231
Er45     Er     0.2981   0.0453   0.8231
Er46     Er     0.2981   0.2528   0.8231
V47     V     0.1258   0.4592   0.7911
V48     V     0.3333   0.4592   0.7911
V49     V     0.5409   0.8742   0.7089
V50     V     0.1258   0.4592   0.7089
V51     V     0.3333   0.4592   0.7089
Er52     Er     0.9547   0.2528   0.6769
Er53     Er     0.7472   0.0453   0.6769
V54     V     0.5409   0.6667   0.7089
Er55     Er     0.9547   0.7019   0.6769
Er56     Er     0.7472   0.7019   0.6769
V57     V     0.1258   0.6667   0.7089
V58     V     0.3333   0.8742   0.7089
Er59     Er     0.2981   0.2528   0.6769
Er60     Er     0.2981   0.0453   0.6769
Ce61     Ce     0.1131   0.2262   0.3899
Ce62     Ce     0.1131   0.8869   0.3899
Ce63     Ce     0.7738   0.8869   0.3899
Ce64     Ce     0.8869   0.1131   0.6101
Ce65     Ce     0.2262   0.1131   0.6101
Ce66     Ce     0.8869   0.7738   0.6101
Ti67     Ti     0.0692   0.1383   0.4664
Ti68     Ti     0.0692   0.9308   0.4664
Ti69     Ti     0.8617   0.9308   0.4664
Ti70     Ti     0.9308   0.8617   0.5336
Ti71     Ti     0.9308   0.0692   0.5336
Ti72     Ti     0.1383   0.0692   0.5336
loop_
_geom_bond_atom_site_label_1
_geom_bond_atom_site_label_2
_geom_bond_distance
_geom_bond_site_symmetry_2
_ccdc_geom_bond_type
Ce1     Er32    10.0   .     S
Ce1     Er33    10.0   .     S
Ce1     Ti9    10.001   .     S
Ce2     Er45    10.0   .     S
Ce2     Er46    10.0   .     S
Ce2     Ti12    10.001   .     S
Ce3     Er35    10.0   .     S
Ce3     Er36    10.0   .     S
Ce3     Ti7    10.001   .     S
Ce4     Er26    10.0   .     S
Ce4     Er25    10.0   .     S
Ce4     Ti10    10.001   .     S
Ce5     Er44    10.0   .     S
Ce5     Er43    10.0   .     S
Ce5     Ti11    10.001   .     S
Ce6     Er38    10.0   .     S
Ce6     Er37    10.0   .     S
Ce6     Ti8    10.001   .     S
Ti7     Ti9    10.0   1_565     S
Ti7     Ti8    9.999   1_454     S
Ti7     Ti12    9.999   1_564     S
Ti7     Ti10    10.0   1_455     S
Ti8     Ti12    10.0   1_665     S
Ti8     Ti7    9.999   1_656     S
Ti8     Ti10    9.999   1_556     S
Ti8     Ti11    10.0   1_565     S
Ti9     Ti10    10.0   1_445     S
Ti9     Ti7    10.0   1_545     S
Ti9     Ti12    9.999   1_554     S
Ti9     Ti11    9.999   1_454     S
Ti10     Ti9    10.0   1_665     S
Ti10     Ti11    9.999   1_564     S
Ti10     Ti7    10.0   1_655     S
Ti10     Ti8    9.999   1_554     S
Ti11     Ti12    10.0   1_655     S
Ti11     Ti9    9.999   1_656     S
Ti11     Ti10    9.999   1_546     S
Ti11     Ti8    10.0   1_545     S
Ti12     Ti11    10.0   1_455     S
Ti12     Ti8    10.0   1_445     S
Ti12     Ti7    9.999   1_546     S
Ti12     Ti9    9.999   1_556     S
V13     V14    10.0   .     S
V13     Er15    10.0   1_545     S
V13     V24    10.0   .     S
V13     V27    10.0   .     S
V14     Er21    10.0   1_655     S
V14     V19    10.0   .     S
V14     V28    10.0   .     S
Er15     Er16    10.0   .     S
Er15     V13    10.0   1_565     S
Er15     Ce63    10.0   .     S
Er16     V20    10.0   .     S
Er16     Ce63    10.0   .     S
Er17     Er18    10.0   .     S
Er17     V19    10.0   1_455     S
Er17     Ce62    10.0   .     S
Er18     V24    10.0   1_565     S
Er18     Ce62    10.0   .     S
V19     V20    10.0   .     S
V19     Er17    10.0   1_655     S
V19     V34    10.0   .     S
V20     V23    10.0   .     S
V20     V29    10.0   .     S
Er21     V14    10.0   1_455     S
Er21     Er22    10.0   .     S
Er21     Ce61    10.0   .     S
Er22     V23    10.0   .     S
Er22     Ce61    10.0   .     S
V23     V24    10.0   .     S
V23     V30    10.0   .     S
V24     Er18    10.0   1_545     S
V24     V31    10.0   .     S
Er25     Er26    10.0   .     S
Er25     V27    10.0   1_565     S
Er26     V29    10.0   .     S
V27     Er25    10.0   1_545     S
V27     V28    10.0   .     S
V27     V31    10.0   .     S
V28     Er32    10.0   1_655     S
V28     V34    10.0   .     S
V29     V34    10.0   .     S
V29     V30    10.0   .     S
V30     V31    10.0   .     S
V30     Er33    10.0   .     S
V31     Er36    10.0   1_545     S
Er32     V28    10.0   1_455     S
Er32     Er33    10.0   .     S
V34     Er35    10.0   1_655     S
Er35     Er36    10.0   .     S
Er35     V34    10.0   1_455     S
Er36     V31    10.0   1_565     S
Er37     Er38    10.0   .     S
Er37     V39    10.0   1_655     S
Er38     V41    10.0   .     S
V39     V40    10.0   .     S
V39     Er37    10.0   1_455     S
V39     V47    10.0   .     S
V39     V57    10.0   .     S
V40     Er45    10.0   1_565     S
V40     V42    10.0   .     S
V40     V58    10.0   .     S
V41     V42    10.0   .     S
V41     V48    10.0   .     S
V41     V54    10.0   .     S
V42     Er44    10.0   1_565     S
V42     V49    10.0   .     S
Er43     Er44    10.0   .     S
Er43     V47    10.0   1_655     S
Er44     V42    10.0   1_545     S
Er45     Er46    10.0   .     S
Er45     V40    10.0   1_545     S
Er46     V48    10.0   .     S
V47     Er43    10.0   1_455     S
V47     V48    10.0   .     S
V47     V50    10.0   .     S
V48     V51    10.0   .     S
V49     Er53    10.0   1_565     S
V49     V54    10.0   .     S
V49     V58    10.0   .     S
V50     V51    10.0   .     S
V50     Er52    10.0   1_455     S
V50     V57    10.0   .     S
V51     Er59    10.0   .     S
V51     V54    10.0   .     S
Er52     Er53    10.0   .     S
Er52     V50    10.0   1_655     S
Er52     Ce64    10.0   .     S
Er53     V49    10.0   1_545     S
Er53     Ce64    10.0   .     S
V54     Er56    10.0   .     S
Er55     Er56    10.0   .     S
Er55     V57    10.0   1_655     S
Er55     Ce66    10.0   .     S
Er56     Ce66    10.0   .     S
V57     V58    10.0   .     S
V57     Er55    10.0   1_455     S
V58     Er60    10.0   1_565     S
Er59     Er60    10.0   .     S
Er59     Ce65    10.0   .     S
Er60     V58    10.0   1_545     S
Er60     Ce65    10.0   .     S
Ce61     Ti67    10.001   .     S
Ce62     Ti68    10.001   .     S
Ce63     Ti69    10.001   .     S
Ce64     Ti71    10.001   .     S
Ce65     Ti72    10.001   .     S
Ce66     Ti70    10.001   .     S
Ti67     Ti69    10.0   1_445     S
Ti67     Ti72    9.999   .     S
Ti67     Ti68    10.0   1_545     S
Ti67     Ti71    9.999   1_455     S
Ti68     Ti69    10.0   1_455     S
Ti68     Ti67    10.0   1_565     S
Ti68     Ti70    9.999   1_455     S
Ti68     Ti72    9.999   1_565     S
Ti69     Ti68    10.0   1_655     S
Ti69     Ti70    9.999   .     S
Ti69     Ti67    10.0   1_665     S
Ti69     Ti71    9.999   1_565     S
Ti70     Ti72    10.0   1_665     S
Ti70     Ti68    9.999   1_655     S
Ti70     Ti71    10.0   1_565     S
Ti71     Ti72    10.0   1_655     S
Ti71     Ti69    9.999   1_545     S
Ti71     Ti67    9.999   1_655     S
Ti71     Ti70    10.0   1_545     S
Ti72     Ti70    10.0   1_445     S
Ti72     Ti71    10.0   1_455     S
Ti72     Ti68    9.999   1_545     S
