data_urza
_audit_creation_date              2020-02-02
_audit_creation_method            'Pymatgen'
_symmetry_space_group_name_H-M    'P1'
_symmetry_Int_Tables_number       1
loop_
_symmetry_equiv_pos_as_xyz
  x,y,z
_cell_length_a                    57.6282
_cell_length_b                    57.6282
_cell_length_c                    115.1815
_cell_angle_alpha                 90.0
_cell_angle_beta                 90.0
_cell_angle_gamma                 90.0
loop_
_atom_site_label
_atom_site_type_symbol
_atom_site_fract_x
_atom_site_fract_y
_atom_site_fract_z
Ce1     Ce     0.547   0.3866   0.7135
Ce2     Ce     0.6134   0.453   0.7865
Ce3     Ce     0.3866   0.453   0.7135
Ce4     Ce     0.453   0.3866   0.7865
Ce5     Ce     0.453   0.6134   0.7135
Ce6     Ce     0.3866   0.547   0.7865
Ce7     Ce     0.6134   0.547   0.7135
Ce8     Ce     0.547   0.6134   0.7865
Ce9     Ce     0.047   0.1134   0.7135
Ce10     Ce     0.1134   0.047   0.7865
Ce11     Ce     0.953   0.8866   0.7135
Ce12     Ce     0.8866   0.953   0.7865
Ce13     Ce     0.8866   0.047   0.7135
Ce14     Ce     0.953   0.1134   0.7865
Ce15     Ce     0.1134   0.953   0.7135
Ce16     Ce     0.047   0.8866   0.7865
Ti17     Ti     0.252   0.8747   0.321
Ti18     Ti     0.3747   0.752   0.321
Ti19     Ti     0.6253   0.248   0.321
Ti20     Ti     0.748   0.1253   0.321
Ti21     Ti     0.252   0.8747   0.679
Ti22     Ti     0.3747   0.752   0.679
Ti23     Ti     0.6253   0.248   0.679
Ti24     Ti     0.748   0.1253   0.679
V25     V     0.5614   0.0614   0.4566
V26     V     0.4386   0.9386   0.4566
Er27     Er     0.3709   0.8709   0.3842
Er28     Er     0.6291   0.1291   0.3842
Er29     Er     0.3709   0.8709   0.6158
V30     V     0.5614   0.0614   0.5434
V31     V     0.4386   0.9386   0.5434
Er32     Er     0.6291   0.1291   0.6158
Ti33     Ti     0.248   0.6253   0.179
Ti34     Ti     0.1253   0.748   0.179
Ti35     Ti     0.8747   0.252   0.179
Ti36     Ti     0.752   0.3747   0.179
Ti37     Ti     0.8747   0.252   0.821
Ti38     Ti     0.752   0.3747   0.821
Ti39     Ti     0.248   0.6253   0.821
Ti40     Ti     0.1253   0.748   0.821
V41     V     0.0614   0.5614   0.0434
V42     V     0.9386   0.4386   0.0434
Er43     Er     0.8709   0.3709   0.1158
Er44     Er     0.1291   0.6291   0.1158
Er45     Er     0.8709   0.3709   0.8842
V46     V     0.0614   0.5614   0.9566
V47     V     0.9386   0.4386   0.9566
Er48     Er     0.1291   0.6291   0.8842
Ce49     Ce     0.547   0.3866   0.2865
Ce50     Ce     0.6134   0.453   0.2135
Ce51     Ce     0.3866   0.453   0.2865
Ce52     Ce     0.453   0.3866   0.2135
Ce53     Ce     0.453   0.6134   0.2865
Ce54     Ce     0.3866   0.547   0.2135
Ce55     Ce     0.6134   0.547   0.2865
Ce56     Ce     0.547   0.6134   0.2135
Ti57     Ti     0.1253   0.252   0.321
Ti58     Ti     0.248   0.3747   0.321
Ti59     Ti     0.8747   0.748   0.321
Ti60     Ti     0.752   0.6253   0.321
Ti61     Ti     0.1253   0.252   0.679
Ti62     Ti     0.248   0.3747   0.679
Ti63     Ti     0.8747   0.748   0.679
Ti64     Ti     0.752   0.6253   0.679
V65     V     0.0614   0.4386   0.4566
V66     V     0.9386   0.5614   0.4566
Er67     Er     0.1291   0.3709   0.3842
Er68     Er     0.8709   0.6291   0.3842
Er69     Er     0.1291   0.3709   0.6158
V70     V     0.0614   0.4386   0.5434
V71     V     0.9386   0.5614   0.5434
Er72     Er     0.8709   0.6291   0.6158
Ce73     Ce     0.047   0.1134   0.2865
Ce74     Ce     0.1134   0.047   0.2135
Ce75     Ce     0.953   0.8866   0.2865
Ce76     Ce     0.8866   0.953   0.2135
Ce77     Ce     0.8866   0.047   0.2865
Ce78     Ce     0.953   0.1134   0.2135
Ce79     Ce     0.1134   0.953   0.2865
Ce80     Ce     0.047   0.8866   0.2135
Ti81     Ti     0.252   0.1253   0.179
Ti82     Ti     0.3747   0.248   0.179
Ti83     Ti     0.252   0.1253   0.821
Ti84     Ti     0.3747   0.248   0.821
Ti85     Ti     0.748   0.8747   0.179
Ti86     Ti     0.6253   0.752   0.179
Ti87     Ti     0.748   0.8747   0.821
Ti88     Ti     0.6253   0.752   0.821
V89     V     0.4386   0.0614   0.0434
V90     V     0.5614   0.9386   0.0434
Er91     Er     0.3709   0.1291   0.1158
Er92     Er     0.6291   0.8709   0.1158
Er93     Er     0.3709   0.1291   0.8842
V94     V     0.4386   0.0614   0.9566
V95     V     0.5614   0.9386   0.9566
Er96     Er     0.6291   0.8709   0.8842
loop_
_geom_bond_atom_site_label_1
_geom_bond_atom_site_label_2
_geom_bond_distance
_geom_bond_site_symmetry_2
_ccdc_geom_bond_type
Ce1     Ce7    10.0   .     S
Ce1     Ce2    9.999   .     S
Ce1     Ce3    10.0   .     S
Ce1     Ce4    10.0   .     S
Ce1     Ti23    10.0   .     S
Ce2     Ce7    10.0   .     S
Ce2     Ce8    10.0   .     S
Ce2     Ce4    10.0   .     S
Ce2     Ti38    10.0   .     S
Ce3     Ce4    9.999   .     S
Ce3     Ce5    10.0   .     S
Ce3     Ce6    10.0   .     S
Ce3     Ti62    10.0   .     S
Ce4     Ce6    10.0   .     S
Ce4     Ti84    10.0   .     S
Ce5     Ce6    9.999   .     S
Ce5     Ce7    10.0   .     S
Ce5     Ce8    10.0   .     S
Ce5     Ti22    10.0   .     S
Ce6     Ce8    10.0   .     S
Ce6     Ti39    10.0   .     S
Ce7     Ce8    9.999   .     S
Ce7     Ti64    10.0   .     S
Ce8     Ti88    10.0   .     S
Ce9     Ce15    10.0   1_545     S
Ce9     Ce10    9.999   .     S
Ce9     Ce13    10.0   1_455     S
Ce9     Ce14    10.0   1_455     S
Ce9     Ti61    10.0   .     S
Ce10     Ce15    10.0   1_545     S
Ce10     Ce16    10.0   1_545     S
Ce10     Ce14    10.0   1_455     S
Ce10     Ti83    10.0   .     S
Ce11     Ce12    9.999   .     S
Ce11     Ce13    10.0   1_565     S
Ce11     Ce15    10.0   1_655     S
Ce11     Ce16    10.0   1_655     S
Ce11     Ti63    10.0   .     S
Ce12     Ce13    10.0   1_565     S
Ce12     Ce14    10.0   1_565     S
Ce12     Ce16    10.0   1_655     S
Ce12     Ti87    10.0   .     S
Ce13     Ce11    10.0   1_545     S
Ce13     Ce12    10.0   1_545     S
Ce13     Ce14    9.999   .     S
Ce13     Ce9    10.0   1_655     S
Ce13     Ti24    10.0   .     S
Ce14     Ce12    10.0   1_545     S
Ce14     Ce9    10.0   1_655     S
Ce14     Ce10    10.0   1_655     S
Ce14     Ti37    10.0   .     S
Ce15     Ce9    10.0   1_565     S
Ce15     Ce10    10.0   1_565     S
Ce15     Ce16    9.999   .     S
Ce15     Ce11    10.0   1_455     S
Ce15     Ti21    10.0   .     S
Ce16     Ce10    10.0   1_565     S
Ce16     Ce11    10.0   1_455     S
Ce16     Ce12    10.0   1_455     S
Ce16     Ti40    10.0   .     S
Ti17     Er27    10.0   .     S
Ti17     Ti18    10.0   .     S
Ti17     Ce79    10.0   .     S
Ti18     Er27    10.0   .     S
Ti18     Ce53    10.0   .     S
Ti19     Er28    10.0   .     S
Ti19     Ti20    10.0   .     S
Ti19     Ce49    10.0   .     S
Ti20     Er28    10.0   .     S
Ti20     Ce77    10.0   .     S
Ti21     Er29    10.0   .     S
Ti21     Ti22    10.0   .     S
Ti22     Er29    10.0   .     S
Ti23     Er32    10.0   .     S
Ti23     Ti24    10.0   .     S
Ti24     Er32    10.0   .     S
V25     V26    10.0   1_545     S
V25     Er28    10.0   .     S
V25     V30    10.0   .     S
V26     V25    10.0   1_565     S
V26     Er27    10.0   .     S
V26     V31    10.0   .     S
Er29     V31    10.0   .     S
V30     V31    10.0   1_545     S
V30     Er32    10.0   .     S
V31     V30    10.0   1_565     S
Ti33     Er44    10.0   .     S
Ti33     Ti34    10.0   .     S
Ti33     Ce54    10.0   .     S
Ti34     Er44    10.0   .     S
Ti34     Ce80    10.0   .     S
Ti35     Er43    10.0   .     S
Ti35     Ti36    10.0   .     S
Ti35     Ce78    10.0   .     S
Ti36     Er43    10.0   .     S
Ti36     Ce50    10.0   .     S
Ti37     Er45    10.0   .     S
Ti37     Ti38    10.0   .     S
Ti38     Er45    10.0   .     S
Ti39     Er48    10.0   .     S
Ti39     Ti40    10.0   .     S
Ti40     Er48    10.0   .     S
V41     V42    10.0   1_455     S
V41     Er44    10.0   .     S
V41     V46    10.0   1_554     S
V42     V41    10.0   1_655     S
V42     Er43    10.0   .     S
V42     V47    10.0   1_554     S
Er45     V47    10.0   .     S
V46     V47    10.0   1_455     S
V46     Er48    10.0   .     S
V46     V41    10.0   1_556     S
V47     V46    10.0   1_655     S
V47     V42    10.0   1_556     S
Ce49     Ce55    10.0   .     S
Ce49     Ce50    9.999   .     S
Ce49     Ce51    10.0   .     S
Ce49     Ce52    10.0   .     S
Ce50     Ce55    10.0   .     S
Ce50     Ce56    10.0   .     S
Ce50     Ce52    10.0   .     S
Ce51     Ce52    9.999   .     S
Ce51     Ce53    10.0   .     S
Ce51     Ce54    10.0   .     S
Ce51     Ti58    10.0   .     S
Ce52     Ce54    10.0   .     S
Ce52     Ti82    10.0   .     S
Ce53     Ce54    9.999   .     S
Ce53     Ce55    10.0   .     S
Ce53     Ce56    10.0   .     S
Ce54     Ce56    10.0   .     S
Ce55     Ce56    9.999   .     S
Ce55     Ti60    10.0   .     S
Ce56     Ti86    10.0   .     S
Ti57     Ti58    10.0   .     S
Ti57     Er67    10.0   .     S
Ti57     Ce73    10.0   .     S
Ti58     Er67    10.0   .     S
Ti59     Er68    10.0   .     S
Ti59     Ti60    10.0   .     S
Ti59     Ce75    10.0   .     S
Ti60     Er68    10.0   .     S
Ti61     Ti62    10.0   .     S
Ti61     Er69    10.0   .     S
Ti62     Er69    10.0   .     S
Ti63     Er72    10.0   .     S
Ti63     Ti64    10.0   .     S
Ti64     Er72    10.0   .     S
V65     V66    10.0   1_455     S
V65     Er67    10.0   .     S
V65     V70    10.0   .     S
V66     V65    10.0   1_655     S
V66     Er68    10.0   .     S
V66     V71    10.0   .     S
Er69     V70    10.0   .     S
V70     V71    10.0   1_455     S
V71     V70    10.0   1_655     S
V71     Er72    10.0   .     S
Ce73     Ce79    10.0   1_545     S
Ce73     Ce74    9.999   .     S
Ce73     Ce77    10.0   1_455     S
Ce73     Ce78    10.0   1_455     S
Ce74     Ce79    10.0   1_545     S
Ce74     Ce80    10.0   1_545     S
Ce74     Ce78    10.0   1_455     S
Ce74     Ti81    10.0   .     S
Ce75     Ce76    9.999   .     S
Ce75     Ce77    10.0   1_565     S
Ce75     Ce79    10.0   1_655     S
Ce75     Ce80    10.0   1_655     S
Ce76     Ce77    10.0   1_565     S
Ce76     Ce78    10.0   1_565     S
Ce76     Ce80    10.0   1_655     S
Ce76     Ti85    10.0   .     S
Ce77     Ce75    10.0   1_545     S
Ce77     Ce76    10.0   1_545     S
Ce77     Ce78    9.999   .     S
Ce77     Ce73    10.0   1_655     S
Ce78     Ce76    10.0   1_545     S
Ce78     Ce73    10.0   1_655     S
Ce78     Ce74    10.0   1_655     S
Ce79     Ce73    10.0   1_565     S
Ce79     Ce74    10.0   1_565     S
Ce79     Ce80    9.999   .     S
Ce79     Ce75    10.0   1_455     S
Ce80     Ce74    10.0   1_565     S
Ce80     Ce75    10.0   1_455     S
Ce80     Ce76    10.0   1_455     S
Ti81     Ti82    10.0   .     S
Ti81     Er91    10.0   .     S
Ti82     Er91    10.0   .     S
Ti83     Ti84    10.0   .     S
Ti83     Er93    10.0   .     S
Ti84     Er93    10.0   .     S
Ti85     Er92    10.0   .     S
Ti85     Ti86    10.0   .     S
Ti86     Er92    10.0   .     S
Ti87     Er96    10.0   .     S
Ti87     Ti88    10.0   .     S
Ti88     Er96    10.0   .     S
V89     V90    10.0   1_545     S
V89     Er91    10.0   .     S
V89     V94    10.0   1_554     S
V90     V89    10.0   1_565     S
V90     Er92    10.0   .     S
V90     V95    10.0   1_554     S
Er93     V94    10.0   .     S
V94     V95    10.0   1_545     S
V94     V89    10.0   1_556     S
V95     V94    10.0   1_565     S
V95     Er96    10.0   .     S
V95     V90    10.0   1_556     S
