data_utae
_audit_creation_date              2020-02-02
_audit_creation_method            'Pymatgen'
_symmetry_space_group_name_H-M    'P1'
_symmetry_Int_Tables_number       1
loop_
_symmetry_equiv_pos_as_xyz
  x,y,z
_cell_length_a                    77.2741
_cell_length_b                    77.2741
_cell_length_c                    77.2741
_cell_angle_alpha                 90.0
_cell_angle_beta                 90.0
_cell_angle_gamma                 90.0
loop_
_atom_site_label
_atom_site_type_symbol
_atom_site_fract_x
_atom_site_fract_y
_atom_site_fract_z
Er1     Er     0.5   0.5915   0.9085
Er2     Er     0.5915   0.5   0.9085
Er3     Er     0.4085   0.5   0.0915
Er4     Er     0.5   0.4085   0.0915
Er5     Er     0.5915   0.4085   0.0
Er6     Er     0.4085   0.5915   0.0
V7     V     0.375   0.5916   0.875
V8     V     0.5916   0.375   0.875
V9     V     0.625   0.4084   0.125
V10     V     0.625   0.625   0.9084
V11     V     0.4084   0.625   0.125
Er12     Er     0.5   0.8415   0.1585
Er13     Er     0.4085   0.75   0.1585
Er14     Er     0.5915   0.8415   0.25
Er15     Er     0.5915   0.75   0.3415
Er16     Er     0.5   0.6585   0.3415
Er17     Er     0.4085   0.6585   0.25
V18     V     0.625   0.8416   0.125
Er19     Er     0.8415   0.5   0.1585
Er20     Er     0.75   0.4085   0.1585
Er21     Er     0.8415   0.5915   0.25
Er22     Er     0.6585   0.4085   0.25
Er23     Er     0.6585   0.5   0.3415
Er24     Er     0.75   0.5915   0.3415
V25     V     0.8416   0.625   0.125
V26     V     0.625   0.625   0.3416
Er27     Er     0.6585   0.75   0.9085
Er28     Er     0.75   0.6585   0.9085
Er29     Er     0.8415   0.75   0.0915
Er30     Er     0.75   0.8415   0.0915
Er31     Er     0.8415   0.6585   0.0
Er32     Er     0.6585   0.8415   0.0
Er33     Er     0.6585   0.9085   0.75
Er34     Er     0.75   0.9085   0.6585
Er35     Er     0.8415   0.0915   0.75
Er36     Er     0.75   0.0915   0.8415
Er37     Er     0.8415   0.0   0.6585
Er38     Er     0.6585   0.0   0.8415
Er39     Er     0.9085   0.6585   0.75
Er40     Er     0.9085   0.75   0.6585
Er41     Er     0.0915   0.75   0.8415
Er42     Er     0.0915   0.8415   0.75
Er43     Er     0.0   0.6585   0.8415
Er44     Er     0.0   0.8415   0.6585
V45     V     0.875   0.875   0.6584
V46     V     0.875   0.6584   0.875
V47     V     0.6584   0.875   0.875
Er48     Er     0.9085   0.5915   0.5
Er49     Er     0.9085   0.5   0.5915
Er50     Er     0.0915   0.4085   0.5
Er51     Er     0.0915   0.5   0.4085
Er52     Er     0.0   0.5915   0.4085
Er53     Er     0.0   0.4085   0.5915
V54     V     0.875   0.375   0.5916
V55     V     0.875   0.5916   0.375
V56     V     0.125   0.4084   0.625
V57     V     0.9084   0.625   0.625
V58     V     0.125   0.625   0.4084
Er59     Er     0.25   0.8415   0.5915
Er60     Er     0.25   0.6585   0.4085
Er61     Er     0.3415   0.6585   0.5
Er62     Er     0.3415   0.75   0.5915
Er63     Er     0.1585   0.8415   0.5
Er64     Er     0.1585   0.75   0.4085
V65     V     0.125   0.8416   0.625
Er66     Er     0.3415   0.5915   0.75
Er67     Er     0.25   0.5915   0.8415
Er68     Er     0.25   0.4085   0.6585
Er69     Er     0.3415   0.5   0.6585
Er70     Er     0.1585   0.4085   0.75
Er71     Er     0.1585   0.5   0.8415
V72     V     0.125   0.625   0.8416
V73     V     0.3416   0.625   0.625
Er74     Er     0.8415   0.1585   0.5
Er75     Er     0.75   0.1585   0.4085
Er76     Er     0.8415   0.25   0.5915
Er77     Er     0.6585   0.3415   0.5
Er78     Er     0.75   0.3415   0.5915
Er79     Er     0.6585   0.25   0.4085
V80     V     0.8416   0.125   0.625
Er81     Er     0.4085   0.1585   0.75
Er82     Er     0.5   0.1585   0.8415
Er83     Er     0.5915   0.25   0.8415
Er84     Er     0.4085   0.25   0.6585
Er85     Er     0.5   0.3415   0.6585
Er86     Er     0.5915   0.3415   0.75
V87     V     0.625   0.125   0.8416
V88     V     0.625   0.3416   0.625
Er89     Er     0.5915   0.9085   0.5
Er90     Er     0.5   0.9085   0.5915
Er91     Er     0.4085   0.0915   0.5
Er92     Er     0.5   0.0915   0.4085
Er93     Er     0.4085   0.0   0.5915
Er94     Er     0.5915   0.0   0.4085
V95     V     0.5916   0.875   0.375
V96     V     0.375   0.875   0.5916
V97     V     0.625   0.125   0.4084
V98     V     0.625   0.9084   0.625
V99     V     0.4084   0.125   0.625
Er100     Er     0.1585   0.0   0.3415
Er101     Er     0.3415   0.0915   0.25
Er102     Er     0.25   0.0915   0.3415
Er103     Er     0.3415   0.0   0.1585
Er104     Er     0.25   0.9085   0.1585
Er105     Er     0.1585   0.9085   0.25
V106     V     0.375   0.875   0.1584
V107     V     0.1584   0.875   0.375
Er108     Er     0.0   0.9085   0.0915
Er109     Er     0.0915   0.9085   0.0
Er110     Er     0.9085   0.0915   0.0
Er111     Er     0.9085   0.0   0.0915
Er112     Er     0.0915   0.0   0.9085
Er113     Er     0.0   0.0915   0.9085
V114     V     0.875   0.875   0.0916
V115     V     0.875   0.0916   0.875
V116     V     0.0916   0.875   0.875
Er117     Er     0.25   0.1585   0.9085
Er118     Er     0.1585   0.25   0.9085
Er119     Er     0.25   0.3415   0.0915
Er120     Er     0.3415   0.25   0.0915
Er121     Er     0.1585   0.3415   0.0
Er122     Er     0.3415   0.1585   0.0
V123     V     0.1584   0.375   0.875
V124     V     0.375   0.1584   0.875
Er125     Er     0.0915   0.25   0.3415
Er126     Er     0.0915   0.3415   0.25
Er127     Er     0.0   0.1585   0.3415
Er128     Er     0.0   0.3415   0.1585
Er129     Er     0.9085   0.1585   0.25
Er130     Er     0.9085   0.25   0.1585
V131     V     0.875   0.375   0.1584
V132     V     0.875   0.1584   0.375
V133     V     0.125   0.125   0.3416
V134     V     0.125   0.3416   0.125
V135     V     0.9084   0.125   0.125
V136     V     0.125   0.125   0.9084
V137     V     0.3416   0.125   0.125
V138     V     0.125   0.9084   0.125
V139     V     0.375   0.375   0.0916
V140     V     0.375   0.0916   0.375
V141     V     0.0916   0.375   0.375
V142     V     0.6584   0.375   0.375
V143     V     0.375   0.375   0.6584
V144     V     0.375   0.6584   0.375
loop_
_geom_bond_atom_site_label_1
_geom_bond_atom_site_label_2
_geom_bond_distance
_geom_bond_site_symmetry_2
_ccdc_geom_bond_type
Er1     V7    10.0   .     S
Er1     V10    10.0   .     S
Er1     Er2    10.0   .     S
Er1     Er6    10.0   1_556     S
Er2     V10    10.0   .     S
Er2     V8    10.0   .     S
Er2     Er5    10.0   1_556     S
Er3     V11    10.0   .     S
Er3     V139    10.0   .     S
Er3     Er4    10.0   .     S
Er3     Er6    10.0   .     S
Er4     V139    10.0   .     S
Er4     V9    10.0   .     S
Er4     Er5    10.0   .     S
Er5     V8    10.0   1_554     S
Er5     V9    10.0   .     S
Er5     Er2    10.0   1_554     S
Er6     V7    10.0   1_554     S
Er6     V11    10.0   .     S
Er6     Er1    10.0   1_554     S
V7     Er6    10.0   1_556     S
V7     Er66    10.0   .     S
V7     Er67    10.0   .     S
V8     Er5    10.0   1_556     S
V8     Er86    10.0   .     S
V8     Er83    10.0   .     S
V9     Er22    10.0   .     S
V9     Er20    10.0   .     S
V10     Er28    10.0   .     S
V10     Er27    10.0   .     S
V11     Er13    10.0   .     S
V11     Er17    10.0   .     S
Er12     V18    10.0   .     S
Er12     V106    10.0   .     S
Er12     Er13    10.0   .     S
Er12     Er14    10.0   .     S
Er13     V106    10.0   .     S
Er13     Er17    10.0   .     S
Er14     V18    10.0   .     S
Er14     V95    10.0   .     S
Er14     Er15    10.0   .     S
Er15     V26    10.0   .     S
Er15     V95    10.0   .     S
Er15     Er16    10.0   .     S
Er16     V144    10.0   .     S
Er16     V26    10.0   .     S
Er16     Er17    10.0   .     S
Er17     V144    10.0   .     S
V18     Er32    10.0   .     S
V18     Er30    10.0   .     S
Er19     V25    10.0   .     S
Er19     V131    10.0   .     S
Er19     Er20    10.0   .     S
Er19     Er21    10.0   .     S
Er20     V131    10.0   .     S
Er20     Er22    10.0   .     S
Er21     V25    10.0   .     S
Er21     V55    10.0   .     S
Er21     Er24    10.0   .     S
Er22     V142    10.0   .     S
Er22     Er23    10.0   .     S
Er23     V26    10.0   .     S
Er23     V142    10.0   .     S
Er23     Er24    10.0   .     S
Er24     V55    10.0   .     S
Er24     V26    10.0   .     S
V25     Er31    10.0   .     S
V25     Er29    10.0   .     S
Er27     V47    10.0   .     S
Er27     Er32    10.0   1_556     S
Er27     Er28    10.0   .     S
Er28     V46    10.0   .     S
Er28     Er31    10.0   1_556     S
Er29     V114    10.0   .     S
Er29     Er30    10.0   .     S
Er29     Er31    10.0   .     S
Er30     V114    10.0   .     S
Er30     Er32    10.0   .     S
Er31     V46    10.0   1_554     S
Er31     Er28    10.0   1_554     S
Er32     V47    10.0   1_554     S
Er32     Er27    10.0   1_554     S
Er33     V47    10.0   .     S
Er33     V98    10.0   .     S
Er33     Er38    10.0   1_565     S
Er33     Er34    10.0   .     S
Er34     V98    10.0   .     S
Er34     V45    10.0   .     S
Er34     Er37    10.0   1_565     S
Er35     V80    10.0   .     S
Er35     V115    10.0   .     S
Er35     Er36    10.0   .     S
Er35     Er37    10.0   .     S
Er36     V87    10.0   .     S
Er36     V115    10.0   .     S
Er36     Er38    10.0   .     S
Er37     V45    10.0   1_545     S
Er37     V80    10.0   .     S
Er37     Er34    10.0   1_545     S
Er38     V47    10.0   1_545     S
Er38     V87    10.0   .     S
Er38     Er33    10.0   1_545     S
Er39     V46    10.0   .     S
Er39     V57    10.0   .     S
Er39     Er43    10.0   1_655     S
Er39     Er40    10.0   .     S
Er40     V57    10.0   .     S
Er40     V45    10.0   .     S
Er40     Er44    10.0   1_655     S
Er41     V72    10.0   .     S
Er41     V116    10.0   .     S
Er41     Er42    10.0   .     S
Er41     Er43    10.0   .     S
Er42     V65    10.0   .     S
Er42     V116    10.0   .     S
Er42     Er44    10.0   .     S
Er43     V46    10.0   1_455     S
Er43     V72    10.0   .     S
Er43     Er39    10.0   1_455     S
Er44     V45    10.0   1_455     S
Er44     V65    10.0   .     S
Er44     Er40    10.0   1_455     S
V45     Er37    10.0   1_565     S
V45     Er44    10.0   1_655     S
V46     Er31    10.0   1_556     S
V46     Er43    10.0   1_655     S
V47     Er32    10.0   1_556     S
V47     Er38    10.0   1_565     S
Er48     V55    10.0   .     S
Er48     V57    10.0   .     S
Er48     Er49    10.0   .     S
Er48     Er52    10.0   1_655     S
Er49     V57    10.0   .     S
Er49     V54    10.0   .     S
Er49     Er53    10.0   1_655     S
Er50     V56    10.0   .     S
Er50     V141    10.0   .     S
Er50     Er53    10.0   .     S
Er50     Er51    10.0   .     S
Er51     V141    10.0   .     S
Er51     V58    10.0   .     S
Er51     Er52    10.0   .     S
Er52     V55    10.0   1_455     S
Er52     V58    10.0   .     S
Er52     Er48    10.0   1_455     S
Er53     V54    10.0   1_455     S
Er53     V56    10.0   .     S
Er53     Er49    10.0   1_455     S
V54     Er53    10.0   1_655     S
V54     Er76    10.0   .     S
V54     Er78    10.0   .     S
V55     Er52    10.0   1_655     S
V56     Er68    10.0   .     S
V56     Er70    10.0   .     S
V58     Er64    10.0   .     S
V58     Er60    10.0   .     S
Er59     V96    10.0   .     S
Er59     V65    10.0   .     S
Er59     Er62    10.0   .     S
Er59     Er63    10.0   .     S
Er60     V144    10.0   .     S
Er60     Er64    10.0   .     S
Er60     Er61    10.0   .     S
Er61     V144    10.0   .     S
Er61     V73    10.0   .     S
Er61     Er62    10.0   .     S
Er62     V96    10.0   .     S
Er62     V73    10.0   .     S
Er63     V65    10.0   .     S
Er63     V107    10.0   .     S
Er63     Er64    10.0   .     S
Er64     V107    10.0   .     S
Er66     V73    10.0   .     S
Er66     Er67    10.0   .     S
Er66     Er69    10.0   .     S
Er67     V72    10.0   .     S
Er67     Er71    10.0   .     S
Er68     V143    10.0   .     S
Er68     Er70    10.0   .     S
Er68     Er69    10.0   .     S
Er69     V73    10.0   .     S
Er69     V143    10.0   .     S
Er70     V123    10.0   .     S
Er70     Er71    10.0   .     S
Er71     V72    10.0   .     S
Er71     V123    10.0   .     S
Er74     V80    10.0   .     S
Er74     V132    10.0   .     S
Er74     Er75    10.0   .     S
Er74     Er76    10.0   .     S
Er75     V97    10.0   .     S
Er75     V132    10.0   .     S
Er75     Er79    10.0   .     S
Er76     V80    10.0   .     S
Er76     Er78    10.0   .     S
Er77     V142    10.0   .     S
Er77     V88    10.0   .     S
Er77     Er79    10.0   .     S
Er77     Er78    10.0   .     S
Er78     V88    10.0   .     S
Er79     V97    10.0   .     S
Er79     V142    10.0   .     S
Er81     V99    10.0   .     S
Er81     V124    10.0   .     S
Er81     Er82    10.0   .     S
Er81     Er84    10.0   .     S
Er82     V87    10.0   .     S
Er82     V124    10.0   .     S
Er82     Er83    10.0   .     S
Er83     V87    10.0   .     S
Er83     Er86    10.0   .     S
Er84     V99    10.0   .     S
Er84     V143    10.0   .     S
Er84     Er85    10.0   .     S
Er85     V88    10.0   .     S
Er85     V143    10.0   .     S
Er85     Er86    10.0   .     S
Er86     V88    10.0   .     S
Er89     V95    10.0   .     S
Er89     V98    10.0   .     S
Er89     Er90    10.0   .     S
Er89     Er94    10.0   1_565     S
Er90     V98    10.0   .     S
Er90     V96    10.0   .     S
Er90     Er93    10.0   1_565     S
Er91     V140    10.0   .     S
Er91     V99    10.0   .     S
Er91     Er93    10.0   .     S
Er91     Er92    10.0   .     S
Er92     V97    10.0   .     S
Er92     V140    10.0   .     S
Er92     Er94    10.0   .     S
Er93     V96    10.0   1_545     S
Er93     V99    10.0   .     S
Er93     Er90    10.0   1_545     S
Er94     V95    10.0   1_545     S
Er94     V97    10.0   .     S
Er94     Er89    10.0   1_545     S
V95     Er94    10.0   1_565     S
V96     Er93    10.0   1_565     S
Er100     V133    10.0   .     S
Er100     V107    10.0   1_545     S
Er100     Er102    10.0   .     S
Er100     Er105    10.0   1_545     S
Er101     V140    10.0   .     S
Er101     V137    10.0   .     S
Er101     Er102    10.0   .     S
Er101     Er103    10.0   .     S
Er102     V133    10.0   .     S
Er102     V140    10.0   .     S
Er103     V137    10.0   .     S
Er103     V106    10.0   1_545     S
Er103     Er104    10.0   1_545     S
Er104     V106    10.0   .     S
Er104     V138    10.0   .     S
Er104     Er105    10.0   .     S
Er104     Er103    10.0   1_565     S
Er105     V138    10.0   .     S
Er105     V107    10.0   .     S
Er105     Er100    10.0   1_565     S
V106     Er103    10.0   1_565     S
V107     Er100    10.0   1_565     S
Er108     V138    10.0   .     S
Er108     V114    10.0   1_455     S
Er108     Er109    10.0   .     S
Er108     Er111    10.0   1_465     S
Er109     V116    10.0   1_554     S
Er109     V138    10.0   .     S
Er109     Er112    10.0   1_564     S
Er110     V135    10.0   .     S
Er110     V115    10.0   1_554     S
Er110     Er111    10.0   .     S
Er110     Er113    10.0   1_654     S
Er111     V114    10.0   1_545     S
Er111     V135    10.0   .     S
Er111     Er108    10.0   1_645     S
Er112     V116    10.0   1_545     S
Er112     V136    10.0   .     S
Er112     Er113    10.0   .     S
Er112     Er109    10.0   1_546     S
Er113     V115    10.0   1_455     S
Er113     V136    10.0   .     S
Er113     Er110    10.0   1_456     S
V114     Er111    10.0   1_565     S
V114     Er108    10.0   1_655     S
V115     Er110    10.0   1_556     S
V115     Er113    10.0   1_655     S
V116     Er109    10.0   1_556     S
V116     Er112    10.0   1_565     S
Er117     V124    10.0   .     S
Er117     V136    10.0   .     S
Er117     Er118    10.0   .     S
Er117     Er122    10.0   1_556     S
Er118     V136    10.0   .     S
Er118     V123    10.0   .     S
Er118     Er121    10.0   1_556     S
Er119     V139    10.0   .     S
Er119     V134    10.0   .     S
Er119     Er121    10.0   .     S
Er119     Er120    10.0   .     S
Er120     V139    10.0   .     S
Er120     V137    10.0   .     S
Er120     Er122    10.0   .     S
Er121     V123    10.0   1_554     S
Er121     V134    10.0   .     S
Er121     Er118    10.0   1_554     S
Er122     V124    10.0   1_554     S
Er122     V137    10.0   .     S
Er122     Er117    10.0   1_554     S
V123     Er121    10.0   1_556     S
V124     Er122    10.0   1_556     S
Er125     V141    10.0   .     S
Er125     V133    10.0   .     S
Er125     Er126    10.0   .     S
Er125     Er127    10.0   .     S
Er126     V141    10.0   .     S
Er126     V134    10.0   .     S
Er126     Er128    10.0   .     S
Er127     V133    10.0   .     S
Er127     V132    10.0   1_455     S
Er127     Er129    10.0   1_455     S
Er128     V134    10.0   .     S
Er128     V131    10.0   1_455     S
Er128     Er130    10.0   1_455     S
Er129     V132    10.0   .     S
Er129     V135    10.0   .     S
Er129     Er130    10.0   .     S
Er129     Er127    10.0   1_655     S
Er130     V135    10.0   .     S
Er130     V131    10.0   .     S
Er130     Er128    10.0   1_655     S
V131     Er128    10.0   1_655     S
V132     Er127    10.0   1_655     S
