data_utc
_audit_creation_date              2020-02-02
_audit_creation_method            'Pymatgen'
_symmetry_space_group_name_H-M    'P1'
_symmetry_Int_Tables_number       1
loop_
_symmetry_equiv_pos_as_xyz
  x,y,z
_cell_length_a                    51.0244
_cell_length_b                    51.0244
_cell_length_c                    51.0244
_cell_angle_alpha                 90.0
_cell_angle_beta                 90.0
_cell_angle_gamma                 90.0
loop_
_atom_site_label
_atom_site_type_symbol
_atom_site_fract_x
_atom_site_fract_y
_atom_site_fract_z
V1     V     0.4196   0.5861   0.7032
V2     V     0.3361   0.6696   0.5468
V3     V     0.0804   0.5861   0.2968
V4     V     0.1639   0.6696   0.4532
V5     V     0.0804   0.4139   0.2032
V6     V     0.1639   0.3304   0.0468
V7     V     0.4196   0.4139   0.7968
V8     V     0.3361   0.3304   0.9532
V9     V     0.4139   0.7968   0.4196
V10     V     0.3304   0.9532   0.3361
V11     V     0.5861   0.7032   0.4196
V12     V     0.6696   0.5468   0.3361
V13     V     0.3304   0.0468   0.1639
V14     V     0.4139   0.2032   0.0804
V15     V     0.5861   0.2968   0.0804
V16     V     0.6696   0.4532   0.1639
V17     V     0.2968   0.0804   0.5861
V18     V     0.4532   0.1639   0.6696
V19     V     0.2032   0.0804   0.4139
V20     V     0.0468   0.1639   0.3304
V21     V     0.7032   0.4196   0.5861
V22     V     0.5468   0.3361   0.6696
V23     V     0.7968   0.4196   0.4139
V24     V     0.9532   0.3361   0.3304
V25     V     0.9139   0.7032   0.5804
V26     V     0.8304   0.5468   0.6639
V27     V     0.1696   0.9532   0.6639
V28     V     0.0861   0.7968   0.5804
V29     V     0.9139   0.2968   0.9196
V30     V     0.8304   0.4532   0.8361
V31     V     0.1696   0.0468   0.8361
V32     V     0.0861   0.2032   0.9196
V33     V     0.5804   0.9139   0.7032
V34     V     0.6639   0.8304   0.5468
V35     V     0.5804   0.0861   0.7968
V36     V     0.6639   0.1696   0.9532
V37     V     0.9196   0.9139   0.2968
V38     V     0.8361   0.8304   0.4532
V39     V     0.8361   0.1696   0.0468
V40     V     0.9196   0.0861   0.2032
V41     V     0.7032   0.5804   0.9139
V42     V     0.5468   0.6639   0.8304
V43     V     0.7968   0.5804   0.0861
V44     V     0.9532   0.6639   0.1696
V45     V     0.2968   0.9196   0.9139
V46     V     0.4532   0.8361   0.8304
V47     V     0.0468   0.8361   0.1696
V48     V     0.2032   0.9196   0.0861
loop_
_geom_bond_atom_site_label_1
_geom_bond_atom_site_label_2
_geom_bond_distance
_geom_bond_site_symmetry_2
_ccdc_geom_bond_type
V1     V2    10.0   .     S
V1     V7    10.0   .     S
V1     V42    10.001   .     S
V2     V4    10.0   .     S
V2     V9    10.001   .     S
V3     V4    10.0   .     S
V3     V5    10.0   .     S
V3     V44    10.001   1_455     S
V4     V28    10.001   .     S
V5     V6    10.0   .     S
V5     V24    10.001   1_455     S
V6     V8    10.0   1_554     S
V6     V32    10.001   1_554     S
V7     V8    10.0   .     S
V7     V22    10.001   .     S
V8     V6    10.0   1_556     S
V8     V14    10.001   1_556     S
V9     V10    10.0   .     S
V9     V11    10.0   .     S
V10     V13    10.0   1_565     S
V10     V19    10.001   1_565     S
V11     V12    10.0   .     S
V11     V34    10.001   .     S
V12     V16    10.0   .     S
V12     V23    10.001   .     S
V13     V10    10.0   1_545     S
V13     V14    10.0   .     S
V13     V48    10.001   1_545     S
V14     V8    10.001   1_554     S
V14     V15    10.0   .     S
V15     V16    10.0   .     S
V15     V36    10.001   1_554     S
V16     V43    10.001   .     S
V17     V18    10.0   .     S
V17     V19    10.0   .     S
V17     V27    10.001   1_545     S
V18     V22    10.0   .     S
V18     V35    10.001   .     S
V19     V10    10.001   1_545     S
V19     V20    10.0   .     S
V20     V24    10.0   1_455     S
V20     V40    10.001   1_455     S
V21     V22    10.0   .     S
V21     V23    10.0   .     S
V21     V26    10.001   .     S
V23     V24    10.0   .     S
V24     V20    10.0   1_655     S
V24     V5    10.001   1_655     S
V25     V26    10.0   .     S
V25     V28    10.0   1_655     S
V25     V38    10.001   .     S
V26     V30    10.0   .     S
V27     V28    10.0   .     S
V27     V31    10.0   1_565     S
V27     V17    10.001   1_565     S
V28     V25    10.0   1_455     S
V29     V30    10.0   .     S
V29     V32    10.0   1_655     S
V29     V39    10.001   1_556     S
V30     V41    10.001   .     S
V31     V27    10.0   1_545     S
V31     V32    10.0   .     S
V31     V45    10.001   1_545     S
V32     V29    10.0   1_455     S
V32     V6    10.001   1_556     S
V33     V34    10.0   .     S
V33     V35    10.0   1_565     S
V33     V46    10.001   .     S
V34     V38    10.0   .     S
V35     V36    10.0   .     S
V35     V33    10.0   1_545     S
V36     V39    10.0   1_556     S
V36     V15    10.001   1_556     S
V37     V38    10.0   .     S
V37     V40    10.0   1_565     S
V37     V47    10.001   1_655     S
V39     V29    10.001   1_554     S
V39     V36    10.0   1_554     S
V39     V40    10.0   .     S
V40     V37    10.0   1_545     S
V40     V20    10.001   1_655     S
V41     V42    10.0   .     S
V41     V43    10.0   1_556     S
V42     V46    10.0   .     S
V43     V44    10.0   .     S
V43     V41    10.0   1_554     S
V44     V47    10.0   1_655     S
V44     V3    10.001   1_655     S
V45     V46    10.0   .     S
V45     V48    10.0   1_556     S
V45     V31    10.001   1_565     S
V47     V37    10.001   1_455     S
V47     V44    10.0   1_455     S
V47     V48    10.0   .     S
V48     V45    10.0   1_554     S
V48     V13    10.001   1_565     S
