data_utg
_audit_creation_date              2020-02-02
_audit_creation_method            'Pymatgen'
_symmetry_space_group_name_H-M    'P1'
_symmetry_Int_Tables_number       1
loop_
_symmetry_equiv_pos_as_xyz
  x,y,z
_cell_length_a                    25.2283
_cell_length_b                    25.2283
_cell_length_c                    59.9468
_cell_angle_alpha                 90.0
_cell_angle_beta                 90.0
_cell_angle_gamma                 90.0
loop_
_atom_site_label
_atom_site_type_symbol
_atom_site_fract_x
_atom_site_fract_y
_atom_site_fract_z
V1     V     0.3899   0.3352   0.7003
V2     V     0.6101   0.6648   0.7003
V3     V     0.3899   0.1648   0.5497
V4     V     0.6101   0.8352   0.5497
V5     V     0.3352   0.3899   0.2997
V6     V     0.6648   0.6101   0.2997
V7     V     0.1648   0.3899   0.4503
V8     V     0.8352   0.6101   0.4503
V9     V     0.3352   0.1101   0.9503
V10     V     0.6648   0.8899   0.9503
V11     V     0.1648   0.1101   0.7997
V12     V     0.8352   0.8899   0.7997
V13     V     0.1101   0.3352   0.0497
V14     V     0.8899   0.6648   0.0497
V15     V     0.1101   0.1648   0.2003
V16     V     0.8899   0.8352   0.2003
loop_
_geom_bond_atom_site_label_1
_geom_bond_atom_site_label_2
_geom_bond_distance
_geom_bond_site_symmetry_2
_ccdc_geom_bond_type
V1     V2    10.0   .     S
V1     V3    10.0   .     S
V1     V11    10.0   .     S
V2     V4    10.0   .     S
V2     V12    10.0   .     S
V3     V4    10.0   1_545     S
V3     V7    10.0   .     S
V4     V3    10.0   1_565     S
V4     V8    10.0   .     S
V5     V6    10.0   .     S
V5     V7    10.0   .     S
V5     V15    10.0   .     S
V6     V8    10.0   .     S
V6     V16    10.0   .     S
V7     V8    10.0   1_455     S
V8     V7    10.0   1_655     S
V9     V10    10.0   1_545     S
V9     V11    10.0   .     S
V9     V13    10.0   1_556     S
V10     V9    10.0   1_565     S
V10     V12    10.0   .     S
V10     V14    10.0   1_556     S
V11     V12    10.0   1_445     S
V12     V11    10.0   1_665     S
V13     V14    10.0   1_455     S
V13     V15    10.0   .     S
V13     V9    10.0   1_554     S
V14     V13    10.0   1_655     S
V14     V16    10.0   .     S
V14     V10    10.0   1_554     S
V15     V16    10.0   1_445     S
V16     V15    10.0   1_665     S
