data_utm
_audit_creation_date              2020-02-02
_audit_creation_method            'Pymatgen'
_symmetry_space_group_name_H-M    'P1'
_symmetry_Int_Tables_number       1
loop_
_symmetry_equiv_pos_as_xyz
  x,y,z
_cell_length_a                    49.6951
_cell_length_b                    49.6951
_cell_length_c                    30.4921
_cell_angle_alpha                 90.0
_cell_angle_beta                 90.0
_cell_angle_gamma                 90.0
loop_
_atom_site_label
_atom_site_type_symbol
_atom_site_fract_x
_atom_site_fract_y
_atom_site_fract_z
V1     V     0.7074   0.8166   0.6486
V2     V     0.5666   0.9574   0.6014
V3     V     0.9334   0.9574   0.3986
V4     V     0.7926   0.8166   0.3514
V5     V     0.7926   0.1834   0.1486
V6     V     0.9334   0.0426   0.1014
V7     V     0.7074   0.1834   0.8514
V8     V     0.5666   0.0426   0.8986
V9     V     0.4334   0.9574   0.1014
V10     V     0.2926   0.8166   0.1486
V11     V     0.0666   0.9574   0.8986
V12     V     0.2074   0.8166   0.8514
V13     V     0.0666   0.0426   0.6014
V14     V     0.2074   0.1834   0.6486
V15     V     0.2926   0.1834   0.3514
V16     V     0.4334   0.0426   0.3986
V17     V     0.7926   0.3166   0.6486
V18     V     0.9334   0.4574   0.6014
V19     V     0.7074   0.3166   0.3514
V20     V     0.5666   0.4574   0.3986
V21     V     0.7074   0.6834   0.1486
V22     V     0.5666   0.5426   0.1014
V23     V     0.7926   0.6834   0.8514
V24     V     0.9334   0.5426   0.8986
V25     V     0.2926   0.6834   0.6486
V26     V     0.4334   0.5426   0.6014
V27     V     0.0666   0.5426   0.3986
V28     V     0.2074   0.6834   0.3514
V29     V     0.2926   0.3166   0.8514
V30     V     0.4334   0.4574   0.8986
V31     V     0.2074   0.3166   0.1486
V32     V     0.0666   0.4574   0.1014
loop_
_geom_bond_atom_site_label_1
_geom_bond_atom_site_label_2
_geom_bond_distance
_geom_bond_site_symmetry_2
_ccdc_geom_bond_type
V1     V2    10.0   .     S
V1     V4    10.0   .     S
V1     V23    10.0   .     S
V2     V8    10.0   1_565     S
V2     V16    10.0   1_565     S
V3     V4    10.0   .     S
V3     V6    10.0   1_565     S
V3     V13    10.0   1_665     S
V4     V21    10.0   .     S
V5     V6    10.0   .     S
V5     V7    10.0   1_554     S
V5     V19    10.0   .     S
V6     V3    10.0   1_545     S
V6     V11    10.0   1_644     S
V7     V8    10.0   .     S
V7     V5    10.0   1_556     S
V7     V17    10.0   .     S
V8     V2    10.0   1_545     S
V8     V9    10.0   1_546     S
V9     V10    10.0   .     S
V9     V16    10.0   1_565     S
V9     V8    10.0   1_564     S
V10     V12    10.0   1_554     S
V10     V28    10.0   .     S
V11     V12    10.0   .     S
V11     V13    10.0   1_565     S
V11     V6    10.0   1_466     S
V12     V10    10.0   1_556     S
V12     V25    10.0   .     S
V13     V11    10.0   1_545     S
V13     V14    10.0   .     S
V13     V3    10.0   1_445     S
V14     V15    10.0   .     S
V14     V29    10.0   .     S
V15     V16    10.0   .     S
V15     V31    10.0   .     S
V16     V9    10.0   1_545     S
V16     V2    10.0   1_545     S
V17     V18    10.0   .     S
V17     V19    10.0   .     S
V18     V24    10.0   .     S
V18     V27    10.0   1_655     S
V19     V20    10.0   .     S
V20     V22    10.0   .     S
V20     V26    10.0   .     S
V21     V22    10.0   .     S
V21     V23    10.0   1_554     S
V22     V30    10.0   1_554     S
V23     V24    10.0   .     S
V23     V21    10.0   1_556     S
V24     V32    10.0   1_656     S
V25     V26    10.0   .     S
V25     V28    10.0   .     S
V26     V30    10.0   .     S
V27     V28    10.0   .     S
V27     V32    10.0   .     S
V27     V18    10.0   1_455     S
V29     V30    10.0   .     S
V29     V31    10.0   1_556     S
V30     V22    10.0   1_556     S
V31     V32    10.0   .     S
V31     V29    10.0   1_554     S
V32     V24    10.0   1_454     S
