data_utz
_audit_creation_date              2020-02-02
_audit_creation_method            'Pymatgen'
_symmetry_space_group_name_H-M    'P1'
_symmetry_Int_Tables_number       1
loop_
_symmetry_equiv_pos_as_xyz
  x,y,z
_cell_length_a                    22.5355
_cell_length_b                    22.5355
_cell_length_c                    22.5355
_cell_angle_alpha                 90.0
_cell_angle_beta                 90.0
_cell_angle_gamma                 90.0
loop_
_atom_site_label
_atom_site_type_symbol
_atom_site_fract_x
_atom_site_fract_y
_atom_site_fract_z
V1     V     0.9806   0.5194   0.4806
V2     V     0.7694   0.7306   0.2694
V3     V     0.9806   0.4806   0.0194
V4     V     0.5194   0.4806   0.9806
V5     V     0.4806   0.0194   0.9806
V6     V     0.2694   0.2306   0.7694
V7     V     0.7306   0.2694   0.7694
V8     V     0.0194   0.0194   0.0194
V9     V     0.4806   0.9806   0.5194
V10     V     0.0194   0.9806   0.4806
V11     V     0.2306   0.7694   0.2694
V12     V     0.2694   0.7694   0.7306
V13     V     0.2306   0.2306   0.2306
V14     V     0.5194   0.5194   0.5194
V15     V     0.7694   0.2694   0.2306
V16     V     0.7306   0.7306   0.7306
loop_
_geom_bond_atom_site_label_1
_geom_bond_atom_site_label_2
_geom_bond_distance
_geom_bond_site_symmetry_2
_ccdc_geom_bond_type
V1     V15    9.282   .     S
V1     V16    9.282   .     S
V1     V11    9.282   1_655     S
V1     V3    10.432   .     S
V1     V14    10.432   .     S
V1     V10    10.432   1_655     S
V1     V7    10.287   .     S
V1     V12    10.287   1_655     S
V1     V13    10.287   1_655     S
V2     V3    9.282   .     S
V2     V14    9.282   .     S
V2     V10    9.282   1_655     S
V2     V15    10.432   .     S
V2     V16    10.432   .     S
V2     V11    10.432   1_655     S
V2     V4    10.287   1_554     S
V2     V9    10.287   .     S
V2     V8    10.287   1_665     S
V3     V7    9.282   1_554     S
V3     V13    9.282   1_655     S
V3     V4    10.432   1_554     S
V3     V8    10.432   1_655     S
V3     V16    10.287   1_554     S
V3     V6    10.287   1_654     S
V3     V11    10.287   1_655     S
V4     V15    9.282   1_556     S
V4     V16    9.282   .     S
V4     V6    9.282   .     S
V4     V3    10.432   1_556     S
V4     V14    10.432   .     S
V4     V5    10.432   .     S
V4     V2    10.287   1_556     S
V4     V12    10.287   .     S
V4     V13    10.287   1_556     S
V5     V7    9.282   .     S
V5     V12    9.282   1_545     S
V5     V13    9.282   1_556     S
V5     V9    10.432   1_545     S
V5     V8    10.432   1_556     S
V5     V11    10.287   1_546     S
V5     V16    10.287   1_545     S
V5     V15    10.287   1_556     S
V6     V9    9.282   1_545     S
V6     V8    9.282   1_556     S
V6     V7    10.432   .     S
V6     V12    10.432   1_545     S
V6     V13    10.432   1_556     S
V6     V14    10.287   .     S
V6     V3    10.287   1_456     S
V6     V10    10.287   1_545     S
V7     V3    9.282   1_556     S
V7     V14    9.282   .     S
V7     V15    10.432   1_556     S
V7     V16    10.432   .     S
V7     V8    10.287   1_656     S
V7     V9    10.287   1_545     S
V8     V15    9.282   1_455     S
V8     V6    9.282   1_554     S
V8     V11    9.282   1_545     S
V8     V3    10.432   1_455     S
V8     V5    10.432   1_554     S
V8     V10    10.432   1_545     S
V8     V7    10.287   1_454     S
V8     V12    10.287   1_544     S
V8     V2    10.287   1_445     S
V9     V6    9.282   1_565     S
V9     V16    9.282   .     S
V9     V11    9.282   .     S
V9     V5    10.432   1_565     S
V9     V14    10.432   .     S
V9     V10    10.432   .     S
V9     V7    10.287   1_565     S
V9     V13    10.287   1_565     S
V10     V13    9.282   1_565     S
V10     V12    9.282   .     S
V10     V2    9.282   1_455     S
V10     V8    10.432   1_565     S
V10     V1    10.432   1_455     S
V10     V16    10.287   1_455     S
V10     V15    10.287   1_465     S
V10     V6    10.287   1_565     S
V11     V8    9.282   1_565     S
V11     V1    9.282   1_455     S
V11     V13    10.432   1_565     S
V11     V12    10.432   .     S
V11     V2    10.432   1_455     S
V11     V5    10.287   1_564     S
V11     V14    10.287   .     S
V11     V3    10.287   1_455     S
V12     V5    9.282   1_565     S
V12     V14    9.282   .     S
V12     V6    10.432   1_565     S
V12     V16    10.432   .     S
V12     V8    10.287   1_566     S
V12     V1    10.287   1_455     S
V13     V3    9.282   1_455     S
V13     V5    9.282   1_554     S
V13     V10    9.282   1_545     S
V13     V15    10.432   1_455     S
V13     V6    10.432   1_554     S
V13     V11    10.432   1_545     S
V13     V9    10.287   1_545     S
V13     V1    10.287   1_455     S
V13     V4    10.287   1_554     S
V14     V15    10.287   .     S
V15     V4    9.282   1_554     S
V15     V8    9.282   1_655     S
V15     V7    10.432   1_554     S
V15     V13    10.432   1_655     S
V15     V10    10.287   1_645     S
V15     V5    10.287   1_554     S
V16     V10    10.287   1_655     S
V16     V3    10.287   1_556     S
V16     V5    10.287   1_565     S
