data_vbc
_audit_creation_date              2020-02-02
_audit_creation_method            'Pymatgen'
_symmetry_space_group_name_H-M    'P1'
_symmetry_Int_Tables_number       1
loop_
_symmetry_equiv_pos_as_xyz
  x,y,z
_cell_length_a                    23.5425
_cell_length_b                    53.9638
_cell_length_c                    28.7432
_cell_angle_alpha                 90.0
_cell_angle_beta                 90.0
_cell_angle_gamma                 90.0
loop_
_atom_site_label
_atom_site_type_symbol
_atom_site_fract_x
_atom_site_fract_y
_atom_site_fract_z
V1     V     0.4187   0.7843   0.0838
V2     V     0.1687   0.7157   0.3338
V3     V     0.9187   0.7843   0.5838
V4     V     0.6687   0.7157   0.8338
V5     V     0.8313   0.7843   0.1662
V6     V     0.3313   0.7843   0.6662
V7     V     0.5813   0.7157   0.4162
V8     V     0.0813   0.7157   0.9162
V9     V     0.6687   0.0343   0.9162
V10     V     0.9187   0.9657   0.1662
V11     V     0.1687   0.0343   0.4162
V12     V     0.4187   0.9657   0.6662
V13     V     0.3313   0.9657   0.0838
V14     V     0.5813   0.0343   0.3338
V15     V     0.8313   0.9657   0.5838
V16     V     0.0813   0.0343   0.8338
V17     V     0.9187   0.2843   0.0838
V18     V     0.6687   0.2157   0.3338
V19     V     0.4187   0.2843   0.5838
V20     V     0.1687   0.2157   0.8338
V21     V     0.5813   0.2157   0.9162
V22     V     0.8313   0.2843   0.6662
V23     V     0.0813   0.2157   0.4162
V24     V     0.3313   0.2843   0.1662
V25     V     0.3313   0.4657   0.5838
V26     V     0.5813   0.5343   0.8338
V27     V     0.8313   0.4657   0.0838
V28     V     0.0813   0.5343   0.3338
V29     V     0.1687   0.5343   0.9162
V30     V     0.9187   0.4657   0.6662
V31     V     0.6687   0.5343   0.4162
V32     V     0.4187   0.4657   0.1662
loop_
_geom_bond_atom_site_label_1
_geom_bond_atom_site_label_2
_geom_bond_distance
_geom_bond_site_symmetry_2
_ccdc_geom_bond_type
V1     V4    10.0   1_554     S
V1     V2    10.0   .     S
V1     V8    10.0   1_554     S
V1     V5    10.0   .     S
V1     V13    10.0   .     S
V2     V3    10.0   1_455     S
V2     V5    10.0   1_455     S
V2     V7    10.0   .     S
V2     V28    10.0   .     S
V3     V4    10.0   .     S
V3     V2    10.0   1_655     S
V3     V7    10.0   .     S
V3     V6    10.0   1_655     S
V3     V15    10.0   .     S
V4     V1    10.0   1_556     S
V4     V6    10.0   .     S
V4     V8    10.0   1_655     S
V4     V26    10.0   .     S
V5     V8    10.0   1_654     S
V5     V7    10.0   .     S
V5     V2    10.0   1_655     S
V5     V10    10.0   .     S
V6     V7    10.0   .     S
V6     V8    10.0   .     S
V6     V3    10.0   1_455     S
V6     V12    10.0   .     S
V7     V31    10.0   .     S
V8     V1    10.0   1_556     S
V8     V5    10.0   1_456     S
V8     V4    10.0   1_455     S
V8     V29    10.0   .     S
V9     V12    10.0   1_545     S
V9     V10    10.0   1_546     S
V9     V13    10.0   1_546     S
V9     V16    10.0   1_655     S
V9     V21    10.0   .     S
V10     V9    10.0   1_564     S
V10     V11    10.0   1_665     S
V10     V14    10.0   1_565     S
V10     V13    10.0   1_655     S
V11     V12    10.0   1_545     S
V11     V10    10.0   1_445     S
V11     V15    10.0   1_445     S
V11     V14    10.0   .     S
V11     V23    10.0   .     S
V12     V9    10.0   1_565     S
V12     V11    10.0   1_565     S
V12     V16    10.0   1_565     S
V12     V15    10.0   .     S
V13     V16    10.0   1_564     S
V13     V14    10.0   1_565     S
V13     V9    10.0   1_564     S
V13     V10    10.0   1_455     S
V14     V13    10.0   1_545     S
V14     V15    10.0   1_545     S
V14     V10    10.0   1_545     S
V14     V18    10.0   .     S
V15     V11    10.0   1_665     S
V15     V14    10.0   1_565     S
V15     V16    10.0   1_665     S
V16     V13    10.0   1_546     S
V16     V15    10.0   1_445     S
V16     V12    10.0   1_545     S
V16     V9    10.0   1_455     S
V16     V20    10.0   .     S
V17     V20    10.0   1_654     S
V17     V18    10.0   .     S
V17     V21    10.0   1_554     S
V17     V24    10.0   1_655     S
V17     V27    10.0   .     S
V18     V19    10.0   .     S
V18     V24    10.0   .     S
V18     V23    10.0   1_655     S
V19     V20    10.0   .     S
V19     V23    10.0   .     S
V19     V22    10.0   .     S
V19     V25    10.0   .     S
V20     V17    10.0   1_456     S
V20     V22    10.0   1_455     S
V20     V21    10.0   .     S
V21     V22    10.0   .     S
V21     V24    10.0   1_556     S
V21     V17    10.0   1_556     S
V22     V23    10.0   1_655     S
V22     V20    10.0   1_655     S
V22     V30    10.0   .     S
V23     V22    10.0   1_455     S
V23     V24    10.0   .     S
V23     V18    10.0   1_455     S
V24     V21    10.0   1_554     S
V24     V17    10.0   1_455     S
V24     V32    10.0   .     S
V25     V28    10.0   .     S
V25     V26    10.0   .     S
V25     V31    10.0   .     S
V25     V30    10.0   1_455     S
V26     V27    10.0   1_556     S
V26     V30    10.0   .     S
V26     V29    10.0   .     S
V27     V26    10.0   1_554     S
V27     V28    10.0   1_655     S
V27     V29    10.0   1_654     S
V27     V32    10.0   .     S
V28     V27    10.0   1_455     S
V28     V32    10.0   .     S
V28     V31    10.0   1_455     S
V29     V30    10.0   1_455     S
V29     V32    10.0   1_556     S
V29     V27    10.0   1_456     S
V30     V29    10.0   1_655     S
V30     V31    10.0   .     S
V30     V25    10.0   1_655     S
V31     V32    10.0   .     S
V31     V28    10.0   1_655     S
V32     V29    10.0   1_554     S
