data_vbd
_audit_creation_date              2020-02-02
_audit_creation_method            'Pymatgen'
_symmetry_space_group_name_H-M    'P1'
_symmetry_Int_Tables_number       1
loop_
_symmetry_equiv_pos_as_xyz
  x,y,z
_cell_length_a                    60.5573
_cell_length_b                    16.0333
_cell_length_c                    36.6459
_cell_angle_alpha                 90.0
_cell_angle_beta                 90.0
_cell_angle_gamma                 90.0
loop_
_atom_site_label
_atom_site_type_symbol
_atom_site_fract_x
_atom_site_fract_y
_atom_site_fract_z
V1     V     0.9506   0.0   0.75
V2     V     0.7994   0.75   0.75
V3     V     0.9506   0.25   0.5
V4     V     0.7994   0.5   0.5
V5     V     0.9506   0.5   0.25
V6     V     0.7994   0.25   0.25
V7     V     0.9506   0.75   0.0
V8     V     0.7994   0.0   0.0
V9     V     0.4506   0.5   0.75
V10     V     0.2994   0.25   0.75
V11     V     0.4506   0.25   0.0
V12     V     0.2994   0.5   0.0
V13     V     0.4506   0.75   0.5
V14     V     0.2994   0.0   0.5
V15     V     0.2994   0.75   0.25
V16     V     0.4506   0.0   0.25
V17     V     0.0494   0.5   0.75
V18     V     0.2006   0.75   0.75
V19     V     0.0494   0.75   0.5
V20     V     0.2006   0.5   0.5
V21     V     0.0494   0.0   0.25
V22     V     0.2006   0.25   0.25
V23     V     0.0494   0.25   0.0
V24     V     0.2006   0.0   0.0
V25     V     0.5494   0.0   0.75
V26     V     0.7006   0.25   0.75
V27     V     0.7006   0.5   0.0
V28     V     0.5494   0.75   0.0
V29     V     0.5494   0.5   0.25
V30     V     0.7006   0.75   0.25
V31     V     0.5494   0.25   0.5
V32     V     0.7006   0.0   0.5
loop_
_geom_bond_atom_site_label_1
_geom_bond_atom_site_label_2
_geom_bond_distance
_geom_bond_site_symmetry_2
_ccdc_geom_bond_type
V1     V2    10.0   1_545     S
V1     V3    10.0   .     S
V1     V7    10.0   1_546     S
V1     V17    10.0   1_655     S
V1     V17    10.0   1_645     S
V2     V1    10.0   1_565     S
V2     V4    10.0   .     S
V2     V8    10.0   1_566     S
V2     V26    10.0   1_565     S
V2     V26    10.0   .     S
V3     V4    10.0   .     S
V3     V5    10.0   .     S
V3     V19    10.0   1_645     S
V3     V19    10.0   1_655     S
V4     V6    10.0   .     S
V4     V32    10.0   1_565     S
V4     V32    10.0   .     S
V5     V6    10.0   .     S
V5     V7    10.0   .     S
V5     V21    10.0   1_665     S
V5     V21    10.0   1_655     S
V6     V8    10.0   .     S
V6     V30    10.0   1_545     S
V6     V30    10.0   .     S
V7     V8    10.0   1_565     S
V7     V1    10.0   1_564     S
V7     V23    10.0   1_655     S
V7     V23    10.0   1_665     S
V8     V7    10.0   1_545     S
V8     V2    10.0   1_544     S
V8     V27    10.0   1_545     S
V8     V27    10.0   .     S
V9     V10    10.0   .     S
V9     V11    10.0   1_556     S
V9     V13    10.0   .     S
V9     V25    10.0   1_565     S
V9     V25    10.0   .     S
V10     V12    10.0   1_556     S
V10     V14    10.0   .     S
V10     V18    10.0   1_545     S
V10     V18    10.0   .     S
V11     V12    10.0   .     S
V11     V9    10.0   1_554     S
V11     V16    10.0   .     S
V11     V28    10.0   1_545     S
V11     V28    10.0   .     S
V12     V10    10.0   1_554     S
V12     V15    10.0   .     S
V12     V24    10.0   1_565     S
V12     V24    10.0   .     S
V13     V14    10.0   1_565     S
V13     V16    10.0   1_565     S
V13     V31    10.0   1_565     S
V13     V31    10.0   .     S
V14     V13    10.0   1_545     S
V14     V15    10.0   1_545     S
V14     V20    10.0   .     S
V14     V20    10.0   1_545     S
V15     V16    10.0   1_565     S
V15     V14    10.0   1_565     S
V15     V22    10.0   .     S
V15     V22    10.0   1_565     S
V16     V15    10.0   1_545     S
V16     V13    10.0   1_545     S
V16     V29    10.0   1_545     S
V16     V29    10.0   .     S
V17     V18    10.0   .     S
V17     V19    10.0   .     S
V17     V23    10.0   1_556     S
V17     V1    10.0   1_455     S
V17     V1    10.0   1_465     S
V18     V20    10.0   .     S
V18     V24    10.0   1_566     S
V18     V10    10.0   1_565     S
V19     V20    10.0   .     S
V19     V21    10.0   1_565     S
V19     V3    10.0   1_465     S
V19     V3    10.0   1_455     S
V20     V22    10.0   .     S
V20     V14    10.0   1_565     S
V21     V22    10.0   .     S
V21     V23    10.0   .     S
V21     V19    10.0   1_545     S
V21     V5    10.0   1_445     S
V21     V5    10.0   1_455     S
V22     V24    10.0   .     S
V22     V15    10.0   1_545     S
V23     V24    10.0   .     S
V23     V17    10.0   1_554     S
V23     V7    10.0   1_455     S
V23     V7    10.0   1_445     S
V24     V18    10.0   1_544     S
V24     V12    10.0   1_545     S
V25     V26    10.0   .     S
V25     V28    10.0   1_546     S
V25     V31    10.0   .     S
V25     V9    10.0   1_545     S
V26     V2    10.0   1_545     S
V26     V27    10.0   1_556     S
V26     V32    10.0   .     S
V27     V8    10.0   1_565     S
V27     V28    10.0   .     S
V27     V26    10.0   1_554     S
V27     V30    10.0   .     S
V28     V25    10.0   1_564     S
V28     V29    10.0   .     S
V28     V11    10.0   1_565     S
V29     V16    10.0   1_565     S
V29     V30    10.0   .     S
V29     V31    10.0   .     S
V30     V32    10.0   1_565     S
V30     V6    10.0   1_565     S
V31     V13    10.0   1_545     S
V31     V32    10.0   .     S
V32     V30    10.0   1_545     S
V32     V4    10.0   1_545     S
