data_vbe
_audit_creation_date              2020-02-02
_audit_creation_method            'Pymatgen'
_symmetry_space_group_name_H-M    'P1'
_symmetry_Int_Tables_number       1
loop_
_symmetry_equiv_pos_as_xyz
  x,y,z
_cell_length_a                    32.2101
_cell_length_b                    22.718
_cell_length_c                    25.3876
_cell_angle_alpha                 90.0
_cell_angle_beta                 90.0
_cell_angle_gamma                 90.0
loop_
_atom_site_label
_atom_site_type_symbol
_atom_site_fract_x
_atom_site_fract_y
_atom_site_fract_z
V1     V     0.8902   0.9056   0.6107
V2     V     0.1098   0.5944   0.6107
V3     V     0.1098   0.9056   0.8893
V4     V     0.8902   0.5944   0.8893
V5     V     0.8902   0.4056   0.3893
V6     V     0.1098   0.0944   0.3893
V7     V     0.8902   0.0944   0.1107
V8     V     0.1098   0.4056   0.1107
V9     V     0.3902   0.9056   0.3893
V10     V     0.6098   0.5944   0.3893
V11     V     0.6098   0.9056   0.1107
V12     V     0.3902   0.5944   0.1107
V13     V     0.6098   0.0944   0.6107
V14     V     0.3902   0.4056   0.6107
V15     V     0.6098   0.4056   0.8893
V16     V     0.3902   0.0944   0.8893
loop_
_geom_bond_atom_site_label_1
_geom_bond_atom_site_label_2
_geom_bond_distance
_geom_bond_site_symmetry_2
_ccdc_geom_bond_type
V1     V2    10.0   1_655     S
V1     V3    10.0   1_655     S
V1     V4    10.0   .     S
V1     V6    10.0   1_665     S
V1     V13    10.0   1_565     S
V2     V1    10.0   1_455     S
V2     V3    10.0   .     S
V2     V4    10.0   1_455     S
V2     V5    10.0   1_455     S
V2     V14    10.0   .     S
V3     V1    10.0   1_455     S
V3     V4    10.0   1_455     S
V3     V7    10.0   1_466     S
V3     V16    10.0   1_565     S
V4     V2    10.0   1_655     S
V4     V3    10.0   1_655     S
V4     V8    10.0   1_656     S
V4     V15    10.0   .     S
V5     V6    10.0   1_655     S
V5     V7    10.0   .     S
V5     V8    10.0   1_655     S
V5     V2    10.0   1_655     S
V5     V10    10.0   .     S
V6     V5    10.0   1_455     S
V6     V7    10.0   1_455     S
V6     V8    10.0   .     S
V6     V1    10.0   1_445     S
V6     V9    10.0   1_545     S
V7     V6    10.0   1_655     S
V7     V8    10.0   1_655     S
V7     V3    10.0   1_644     S
V7     V11    10.0   1_545     S
V8     V5    10.0   1_455     S
V8     V7    10.0   1_455     S
V8     V4    10.0   1_454     S
V8     V12    10.0   .     S
V9     V10    10.0   .     S
V9     V11    10.0   .     S
V9     V12    10.0   .     S
V9     V13    10.0   1_565     S
V9     V6    10.0   1_565     S
V10     V11    10.0   .     S
V10     V12    10.0   .     S
V10     V14    10.0   .     S
V11     V12    10.0   .     S
V11     V16    10.0   1_564     S
V11     V7    10.0   1_565     S
V12     V15    10.0   1_554     S
V13     V14    10.0   .     S
V13     V16    10.0   .     S
V13     V15    10.0   .     S
V13     V9    10.0   1_545     S
V13     V1    10.0   1_545     S
V14     V16    10.0   .     S
V14     V15    10.0   .     S
V15     V16    10.0   .     S
V15     V12    10.0   1_556     S
V16     V11    10.0   1_546     S
V16     V3    10.0   1_545     S
