data_vbf
_audit_creation_date              2020-02-02
_audit_creation_method            'Pymatgen'
_symmetry_space_group_name_H-M    'P1'
_symmetry_Int_Tables_number       1
loop_
_symmetry_equiv_pos_as_xyz
  x,y,z
_cell_length_a                    24.4489
_cell_length_b                    46.8575
_cell_length_c                    15.9895
_cell_angle_alpha                 90.0
_cell_angle_beta                 90.0
_cell_angle_gamma                 90.0
loop_
_atom_site_label
_atom_site_type_symbol
_atom_site_fract_x
_atom_site_fract_y
_atom_site_fract_z
V1     V     0.5715   0.8021   0.0
V2     V     0.9285   0.6979   0.0
V3     V     0.8215   0.4479   0.25
V4     V     0.1785   0.5521   0.25
V5     V     0.6785   0.5521   0.75
V6     V     0.3215   0.4479   0.75
V7     V     0.5715   0.3021   0.5
V8     V     0.9285   0.1979   0.5
V9     V     0.6785   0.0521   0.25
V10     V     0.3215   0.9479   0.25
V11     V     0.0715   0.8021   0.5
V12     V     0.4285   0.6979   0.5
V13     V     0.0715   0.3021   0.0
V14     V     0.4285   0.1979   0.0
V15     V     0.8215   0.9479   0.75
V16     V     0.1785   0.0521   0.75
loop_
_geom_bond_atom_site_label_1
_geom_bond_atom_site_label_2
_geom_bond_distance
_geom_bond_site_symmetry_2
_ccdc_geom_bond_type
V1     V2    10.0   .     S
V1     V10    10.0   .     S
V1     V15    10.0   1_554     S
V1     V12    10.0   1_554     S
V1     V12    10.0   .     S
V2     V5    10.0   1_554     S
V2     V4    10.0   1_655     S
V2     V11    10.0   1_655     S
V2     V11    10.0   1_654     S
V3     V4    10.0   1_655     S
V3     V13    10.0   1_655     S
V3     V7    10.0   .     S
V3     V5    10.0   1_554     S
V3     V5    10.0   .     S
V4     V3    10.0   1_455     S
V4     V12    10.0   .     S
V4     V2    10.0   1_455     S
V4     V6    10.0   .     S
V4     V6    10.0   1_554     S
V5     V2    10.0   1_556     S
V5     V6    10.0   .     S
V5     V12    10.0   .     S
V5     V3    10.0   1_556     S
V6     V13    10.0   1_556     S
V6     V7    10.0   .     S
V6     V4    10.0   1_556     S
V7     V8    10.0   .     S
V7     V14    10.0   1_556     S
V7     V14    10.0   .     S
V8     V9    10.0   .     S
V8     V16    10.0   1_655     S
V8     V13    10.0   1_655     S
V8     V13    10.0   1_656     S
V9     V10    10.0   1_545     S
V9     V14    10.0   .     S
V9     V15    10.0   1_544     S
V9     V15    10.0   1_545     S
V10     V9    10.0   1_565     S
V10     V11    10.0   .     S
V10     V16    10.0   1_564     S
V10     V16    10.0   1_565     S
V11     V12    10.0   .     S
V11     V15    10.0   1_455     S
V11     V2    10.0   1_455     S
V11     V2    10.0   1_456     S
V12     V1    10.0   1_556     S
V13     V3    10.0   1_455     S
V13     V6    10.0   1_554     S
V13     V14    10.0   .     S
V13     V8    10.0   1_455     S
V13     V8    10.0   1_454     S
V14     V16    10.0   1_554     S
V14     V7    10.0   1_554     S
V15     V16    10.0   1_665     S
V15     V11    10.0   1_655     S
V15     V1    10.0   1_556     S
V15     V9    10.0   1_566     S
V15     V9    10.0   1_565     S
V16     V15    10.0   1_445     S
V16     V14    10.0   1_556     S
V16     V8    10.0   1_455     S
V16     V10    10.0   1_546     S
V16     V10    10.0   1_545     S
