data_vbh
_audit_creation_date              2020-02-02
_audit_creation_method            'Pymatgen'
_symmetry_space_group_name_H-M    'P1'
_symmetry_Int_Tables_number       1
loop_
_symmetry_equiv_pos_as_xyz
  x,y,z
_cell_length_a                    28.1467
_cell_length_b                    53.4513
_cell_length_c                    24.4194
_cell_angle_alpha                 90.0
_cell_angle_beta                 90.0
_cell_angle_gamma                 90.0
loop_
_atom_site_label
_atom_site_type_symbol
_atom_site_fract_x
_atom_site_fract_y
_atom_site_fract_z
V1     V     0.9012   0.716   0.0775
V2     V     0.9012   0.534   0.1725
V3     V     0.8488   0.534   0.5775
V4     V     0.8488   0.716   0.6725
V5     V     0.8488   0.216   0.1725
V6     V     0.8488   0.034   0.0775
V7     V     0.9012   0.216   0.5775
V8     V     0.9012   0.034   0.6725
V9     V     0.1512   0.466   0.4225
V10     V     0.1512   0.284   0.3275
V11     V     0.0988   0.284   0.9225
V12     V     0.0988   0.466   0.8275
V13     V     0.6512   0.466   0.9225
V14     V     0.6512   0.284   0.8275
V15     V     0.5988   0.466   0.3275
V16     V     0.5988   0.284   0.4225
V17     V     0.3488   0.534   0.0775
V18     V     0.3488   0.716   0.1725
V19     V     0.4012   0.716   0.5775
V20     V     0.4012   0.534   0.6725
V21     V     0.6512   0.966   0.4225
V22     V     0.6512   0.784   0.3275
V23     V     0.5988   0.784   0.9225
V24     V     0.5988   0.966   0.8275
V25     V     0.0988   0.784   0.4225
V26     V     0.0988   0.966   0.3275
V27     V     0.1512   0.966   0.9225
V28     V     0.1512   0.784   0.8275
V29     V     0.3488   0.216   0.6725
V30     V     0.3488   0.034   0.5775
V31     V     0.4012   0.216   0.0775
V32     V     0.4012   0.034   0.1725
loop_
_geom_bond_atom_site_label_1
_geom_bond_atom_site_label_2
_geom_bond_distance
_geom_bond_site_symmetry_2
_ccdc_geom_bond_type
V1     V23    10.0   1_554     S
V1     V22    10.0   .     S
V1     V2    10.0   .     S
V1     V4    10.0   1_554     S
V1     V28    10.0   1_654     S
V2     V3    10.0   .     S
V2     V13    10.0   1_554     S
V2     V15    10.0   .     S
V2     V9    10.0   1_655     S
V3     V4    10.0   .     S
V3     V15    10.0   .     S
V3     V12    10.0   1_655     S
V3     V9    10.0   1_655     S
V4     V23    10.0   .     S
V4     V1    10.0   1_556     S
V4     V28    10.0   1_655     S
V4     V25    10.0   1_655     S
V5     V16    10.0   .     S
V5     V6    10.0   .     S
V5     V7    10.0   .     S
V5     V11    10.0   1_654     S
V5     V10    10.0   1_655     S
V6     V8    10.0   1_554     S
V6     V24    10.0   1_544     S
V6     V27    10.0   1_644     S
V6     V26    10.0   1_645     S
V7     V14    10.0   .     S
V7     V16    10.0   .     S
V7     V8    10.0   .     S
V7     V10    10.0   1_655     S
V8     V6    10.0   1_556     S
V8     V24    10.0   1_545     S
V8     V21    10.0   1_545     S
V8     V27    10.0   1_645     S
V9     V3    10.0   1_455     S
V9     V2    10.0   1_455     S
V9     V10    10.0   .     S
V9     V12    10.0   .     S
V9     V20    10.0   .     S
V10     V31    10.0   .     S
V10     V11    10.0   1_554     S
V10     V5    10.0   1_455     S
V10     V7    10.0   1_455     S
V11     V29    10.0   .     S
V11     V31    10.0   1_556     S
V11     V12    10.0   .     S
V11     V10    10.0   1_556     S
V11     V5    10.0   1_456     S
V12     V3    10.0   1_455     S
V12     V17    10.0   1_556     S
V12     V20    10.0   .     S
V13     V2    10.0   1_556     S
V13     V14    10.0   .     S
V13     V15    10.0   1_556     S
V13     V20    10.0   .     S
V13     V17    10.0   1_556     S
V14     V31    10.0   1_556     S
V14     V29    10.0   .     S
V14     V16    10.0   .     S
V15     V16    10.0   .     S
V15     V13    10.0   1_554     S
V15     V17    10.0   .     S
V16     V29    10.0   .     S
V17     V12    10.0   1_554     S
V17     V13    10.0   1_554     S
V17     V18    10.0   .     S
V17     V20    10.0   1_554     S
V18     V19    10.0   .     S
V18     V23    10.0   1_554     S
V18     V22    10.0   .     S
V18     V25    10.0   .     S
V19     V20    10.0   .     S
V19     V22    10.0   .     S
V19     V28    10.0   .     S
V19     V25    10.0   .     S
V20     V17    10.0   1_556     S
V21     V8    10.0   1_565     S
V21     V22    10.0   .     S
V21     V24    10.0   .     S
V21     V30    10.0   1_565     S
V21     V32    10.0   1_565     S
V22     V23    10.0   1_554     S
V23     V1    10.0   1_556     S
V23     V18    10.0   1_556     S
V23     V24    10.0   .     S
V23     V22    10.0   1_556     S
V24     V6    10.0   1_566     S
V24     V8    10.0   1_565     S
V24     V30    10.0   1_565     S
V25     V4    10.0   1_455     S
V25     V26    10.0   .     S
V25     V28    10.0   .     S
V26     V27    10.0   1_554     S
V26     V6    10.0   1_465     S
V26     V32    10.0   1_565     S
V26     V30    10.0   1_565     S
V27     V28    10.0   .     S
V27     V26    10.0   1_556     S
V27     V8    10.0   1_465     S
V27     V6    10.0   1_466     S
V27     V32    10.0   1_566     S
V28     V1    10.0   1_456     S
V28     V4    10.0   1_455     S
V29     V30    10.0   .     S
V29     V31    10.0   1_556     S
V30     V24    10.0   1_545     S
V30     V21    10.0   1_545     S
V30     V32    10.0   .     S
V30     V26    10.0   1_545     S
V31     V11    10.0   1_554     S
V31     V14    10.0   1_554     S
V31     V32    10.0   .     S
V31     V29    10.0   1_554     S
V32     V21    10.0   1_545     S
V32     V27    10.0   1_544     S
V32     V26    10.0   1_545     S
