data_vcb
_audit_creation_date              2020-02-02
_audit_creation_method            'Pymatgen'
_symmetry_space_group_name_H-M    'P1'
_symmetry_Int_Tables_number       1
loop_
_symmetry_equiv_pos_as_xyz
  x,y,z
_cell_length_a                    37.8755
_cell_length_b                    53.6609
_cell_length_c                    17.8755
_cell_angle_alpha                 90.0
_cell_angle_beta                 90.0
_cell_angle_gamma                 90.0
loop_
_atom_site_label
_atom_site_type_symbol
_atom_site_fract_x
_atom_site_fract_y
_atom_site_fract_z
V1     V     0.493   0.4168   0.625
V2     V     0.757   0.4168   0.625
V3     V     0.493   0.3332   0.125
V4     V     0.757   0.3332   0.125
V5     V     0.993   0.3332   0.625
V6     V     0.257   0.3332   0.625
V7     V     0.993   0.4168   0.125
V8     V     0.257   0.4168   0.125
V9     V     0.007   0.6668   0.375
V10     V     0.743   0.6668   0.375
V11     V     0.743   0.5832   0.875
V12     V     0.007   0.5832   0.875
V13     V     0.507   0.6668   0.875
V14     V     0.243   0.6668   0.875
V15     V     0.507   0.5832   0.375
V16     V     0.243   0.5832   0.375
V17     V     0.493   0.8332   0.625
V18     V     0.757   0.8332   0.625
V19     V     0.493   0.9168   0.125
V20     V     0.757   0.9168   0.125
V21     V     0.993   0.8332   0.125
V22     V     0.257   0.8332   0.125
V23     V     0.993   0.9168   0.625
V24     V     0.257   0.9168   0.625
V25     V     0.243   0.1668   0.375
V26     V     0.507   0.1668   0.375
V27     V     0.243   0.0832   0.875
V28     V     0.507   0.0832   0.875
V29     V     0.007   0.0832   0.375
V30     V     0.743   0.0832   0.375
V31     V     0.007   0.1668   0.875
V32     V     0.743   0.1668   0.875
loop_
_geom_bond_atom_site_label_1
_geom_bond_atom_site_label_2
_geom_bond_distance
_geom_bond_site_symmetry_2
_ccdc_geom_bond_type
V1     V2    10.0   .     S
V1     V3    10.0   1_556     S
V1     V3    10.0   .     S
V1     V6    10.0   .     S
V1     V15    10.0   .     S
V2     V4    10.0   1_556     S
V2     V4    10.0   .     S
V2     V5    10.0   .     S
V2     V11    10.0   .     S
V3     V1    10.0   1_554     S
V3     V4    10.0   .     S
V3     V8    10.0   .     S
V3     V26    10.0   .     S
V4     V2    10.0   1_554     S
V4     V7    10.0   .     S
V4     V32    10.0   1_554     S
V5     V6    10.0   1_655     S
V5     V7    10.0   1_556     S
V5     V7    10.0   .     S
V5     V31    10.0   1_655     S
V6     V5    10.0   1_455     S
V6     V8    10.0   1_556     S
V6     V8    10.0   .     S
V6     V25    10.0   .     S
V7     V5    10.0   1_554     S
V7     V8    10.0   1_655     S
V7     V12    10.0   1_654     S
V8     V6    10.0   1_554     S
V8     V7    10.0   1_455     S
V8     V16    10.0   .     S
V9     V10    10.0   1_455     S
V9     V12    10.0   .     S
V9     V12    10.0   1_554     S
V9     V16    10.0   .     S
V9     V21    10.0   1_455     S
V10     V9    10.0   1_655     S
V10     V11    10.0   .     S
V10     V11    10.0   1_554     S
V10     V15    10.0   .     S
V10     V18    10.0   .     S
V11     V12    10.0   1_655     S
V11     V10    10.0   1_556     S
V11     V13    10.0   .     S
V12     V11    10.0   1_455     S
V12     V9    10.0   1_556     S
V12     V14    10.0   .     S
V12     V7    10.0   1_456     S
V13     V14    10.0   .     S
V13     V15    10.0   1_556     S
V13     V15    10.0   .     S
V13     V17    10.0   .     S
V14     V16    10.0   1_556     S
V14     V16    10.0   .     S
V14     V22    10.0   1_556     S
V15     V16    10.0   .     S
V15     V13    10.0   1_554     S
V16     V14    10.0   1_554     S
V17     V18    10.0   .     S
V17     V19    10.0   .     S
V17     V19    10.0   1_556     S
V17     V24    10.0   .     S
V18     V20    10.0   .     S
V18     V20    10.0   1_556     S
V18     V23    10.0   .     S
V19     V20    10.0   .     S
V19     V17    10.0   1_554     S
V19     V22    10.0   .     S
V19     V28    10.0   1_564     S
V20     V18    10.0   1_554     S
V20     V21    10.0   .     S
V20     V30    10.0   1_565     S
V21     V22    10.0   1_655     S
V21     V23    10.0   1_554     S
V21     V23    10.0   .     S
V21     V9    10.0   1_655     S
V22     V21    10.0   1_455     S
V22     V24    10.0   1_554     S
V22     V24    10.0   .     S
V22     V14    10.0   1_554     S
V23     V24    10.0   1_655     S
V23     V21    10.0   1_556     S
V23     V29    10.0   1_665     S
V24     V23    10.0   1_455     S
V24     V22    10.0   1_556     S
V24     V27    10.0   1_565     S
V25     V26    10.0   .     S
V25     V27    10.0   1_554     S
V25     V27    10.0   .     S
V25     V29    10.0   .     S
V26     V28    10.0   1_554     S
V26     V28    10.0   .     S
V26     V30    10.0   .     S
V27     V25    10.0   1_556     S
V27     V28    10.0   .     S
V27     V31    10.0   .     S
V27     V24    10.0   1_545     S
V28     V26    10.0   1_556     S
V28     V32    10.0   .     S
V28     V19    10.0   1_546     S
V29     V30    10.0   1_455     S
V29     V31    10.0   1_554     S
V29     V31    10.0   .     S
V29     V23    10.0   1_445     S
V30     V29    10.0   1_655     S
V30     V32    10.0   1_554     S
V30     V32    10.0   .     S
V30     V20    10.0   1_545     S
V31     V5    10.0   1_455     S
V31     V29    10.0   1_556     S
V31     V32    10.0   1_455     S
V32     V30    10.0   1_556     S
V32     V31    10.0   1_655     S
V32     V4    10.0   1_556     S
