data_vcd
_audit_creation_date              2020-02-02
_audit_creation_method            'Pymatgen'
_symmetry_space_group_name_H-M    'P1'
_symmetry_Int_Tables_number       1
loop_
_symmetry_equiv_pos_as_xyz
  x,y,z
_cell_length_a                    75.2756
_cell_length_b                    31.1099
_cell_length_c                    16.6305
_cell_angle_alpha                 90.0
_cell_angle_beta                 90.0
_cell_angle_gamma                 90.0
loop_
_atom_site_label
_atom_site_type_symbol
_atom_site_fract_x
_atom_site_fract_y
_atom_site_fract_z
V1     V     0.4414   0.7143   0.875
V2     V     0.3086   0.7143   0.875
V3     V     0.4414   0.0357   0.875
V4     V     0.3086   0.0357   0.875
V5     V     0.4414   0.5357   0.375
V6     V     0.3086   0.5357   0.375
V7     V     0.4414   0.2143   0.375
V8     V     0.3086   0.2143   0.375
V9     V     0.5586   0.7857   0.625
V10     V     0.6914   0.7857   0.625
V11     V     0.5586   0.4643   0.625
V12     V     0.6914   0.4643   0.625
V13     V     0.5586   0.9643   0.125
V14     V     0.6914   0.9643   0.125
V15     V     0.6914   0.2857   0.125
V16     V     0.5586   0.2857   0.125
V17     V     0.9414   0.7143   0.375
V18     V     0.8086   0.7143   0.375
V19     V     0.9414   0.0357   0.375
V20     V     0.8086   0.0357   0.375
V21     V     0.9414   0.5357   0.875
V22     V     0.8086   0.5357   0.875
V23     V     0.9414   0.2143   0.875
V24     V     0.8086   0.2143   0.875
V25     V     0.0586   0.7857   0.125
V26     V     0.1914   0.7857   0.125
V27     V     0.0586   0.4643   0.125
V28     V     0.1914   0.4643   0.125
V29     V     0.0586   0.9643   0.625
V30     V     0.1914   0.9643   0.625
V31     V     0.0586   0.2857   0.625
V32     V     0.1914   0.2857   0.625
loop_
_geom_bond_atom_site_label_1
_geom_bond_atom_site_label_2
_geom_bond_distance
_geom_bond_site_symmetry_2
_ccdc_geom_bond_type
V1     V2    10.0   .     S
V1     V3    10.0   1_565     S
V1     V5    10.0   1_556     S
V1     V5    10.0   .     S
V1     V9    10.0   .     S
V2     V4    10.0   1_565     S
V2     V6    10.0   .     S
V2     V6    10.0   1_556     S
V2     V26    10.0   1_556     S
V3     V4    10.0   .     S
V3     V1    10.0   1_545     S
V3     V7    10.0   .     S
V3     V7    10.0   1_556     S
V3     V13    10.0   1_546     S
V4     V2    10.0   1_545     S
V4     V8    10.0   1_556     S
V4     V8    10.0   .     S
V4     V30    10.0   1_545     S
V5     V1    10.0   1_554     S
V5     V6    10.0   .     S
V5     V7    10.0   .     S
V5     V11    10.0   .     S
V6     V2    10.0   1_554     S
V6     V8    10.0   .     S
V6     V28    10.0   .     S
V7     V8    10.0   .     S
V7     V3    10.0   1_554     S
V7     V16    10.0   .     S
V8     V4    10.0   1_554     S
V8     V32    10.0   .     S
V9     V10    10.0   .     S
V9     V11    10.0   .     S
V9     V13    10.0   .     S
V9     V13    10.0   1_556     S
V10     V12    10.0   .     S
V10     V14    10.0   1_556     S
V10     V14    10.0   .     S
V10     V18    10.0   .     S
V11     V12    10.0   .     S
V11     V16    10.0   1_556     S
V11     V16    10.0   .     S
V12     V15    10.0   .     S
V12     V15    10.0   1_556     S
V12     V22    10.0   .     S
V13     V9    10.0   1_554     S
V13     V14    10.0   .     S
V13     V16    10.0   1_565     S
V13     V3    10.0   1_564     S
V14     V10    10.0   1_554     S
V14     V15    10.0   1_565     S
V14     V20    10.0   1_565     S
V15     V16    10.0   .     S
V15     V14    10.0   1_545     S
V15     V12    10.0   1_554     S
V15     V24    10.0   1_554     S
V16     V13    10.0   1_545     S
V16     V11    10.0   1_554     S
V17     V18    10.0   .     S
V17     V19    10.0   1_565     S
V17     V21    10.0   .     S
V17     V21    10.0   1_554     S
V17     V25    10.0   1_655     S
V18     V20    10.0   1_565     S
V18     V22    10.0   1_554     S
V18     V22    10.0   .     S
V19     V20    10.0   .     S
V19     V17    10.0   1_545     S
V19     V23    10.0   1_554     S
V19     V23    10.0   .     S
V19     V29    10.0   1_645     S
V20     V18    10.0   1_545     S
V20     V24    10.0   .     S
V20     V24    10.0   1_554     S
V20     V14    10.0   1_545     S
V21     V17    10.0   1_556     S
V21     V22    10.0   .     S
V21     V23    10.0   .     S
V21     V27    10.0   1_656     S
V22     V18    10.0   1_556     S
V22     V24    10.0   .     S
V23     V24    10.0   .     S
V23     V19    10.0   1_556     S
V23     V31    10.0   1_655     S
V24     V20    10.0   1_556     S
V24     V15    10.0   1_556     S
V25     V17    10.0   1_455     S
V25     V26    10.0   .     S
V25     V27    10.0   .     S
V25     V29    10.0   1_554     S
V25     V29    10.0   .     S
V26     V28    10.0   .     S
V26     V30    10.0   .     S
V26     V30    10.0   1_554     S
V26     V2    10.0   1_554     S
V27     V21    10.0   1_454     S
V27     V28    10.0   .     S
V27     V31    10.0   .     S
V27     V31    10.0   1_554     S
V28     V32    10.0   1_554     S
V28     V32    10.0   .     S
V29     V19    10.0   1_465     S
V29     V25    10.0   1_556     S
V29     V30    10.0   .     S
V29     V31    10.0   1_565     S
V30     V26    10.0   1_556     S
V30     V32    10.0   1_565     S
V30     V4    10.0   1_565     S
V31     V23    10.0   1_455     S
V31     V32    10.0   .     S
V31     V29    10.0   1_545     S
V31     V27    10.0   1_556     S
V32     V30    10.0   1_545     S
V32     V28    10.0   1_556     S
