data_vce
_audit_creation_date              2020-02-02
_audit_creation_method            'Pymatgen'
_symmetry_space_group_name_H-M    'P1'
_symmetry_Int_Tables_number       1
loop_
_symmetry_equiv_pos_as_xyz
  x,y,z
_cell_length_a                    29.0496
_cell_length_b                    69.7588
_cell_length_c                    17.8355
_cell_angle_alpha                 90.0
_cell_angle_beta                 90.0
_cell_angle_gamma                 90.0
loop_
_atom_site_label
_atom_site_type_symbol
_atom_site_fract_x
_atom_site_fract_y
_atom_site_fract_z
V1     V     0.2029   0.0611   0.375
V2     V     0.2971   0.9389   0.125
V3     V     0.5471   0.0611   0.375
V4     V     0.4529   0.9389   0.625
V5     V     0.7029   0.0611   0.875
V6     V     0.7971   0.9389   0.625
V7     V     0.0471   0.0611   0.875
V8     V     0.9529   0.9389   0.125
V9     V     0.2029   0.6889   0.375
V10     V     0.2971   0.8111   0.625
V11     V     0.0471   0.6889   0.875
V12     V     0.9529   0.8111   0.625
V13     V     0.7029   0.6889   0.875
V14     V     0.7971   0.8111   0.125
V15     V     0.4529   0.8111   0.125
V16     V     0.5471   0.6889   0.375
V17     V     0.2029   0.5611   0.875
V18     V     0.2971   0.4389   0.625
V19     V     0.4529   0.4389   0.125
V20     V     0.5471   0.5611   0.875
V21     V     0.7971   0.4389   0.125
V22     V     0.7029   0.5611   0.375
V23     V     0.0471   0.5611   0.375
V24     V     0.9529   0.4389   0.625
V25     V     0.2029   0.1889   0.875
V26     V     0.2971   0.3111   0.125
V27     V     0.5471   0.1889   0.875
V28     V     0.4529   0.3111   0.625
V29     V     0.7029   0.1889   0.375
V30     V     0.7971   0.3111   0.625
V31     V     0.0471   0.1889   0.375
V32     V     0.9529   0.3111   0.125
loop_
_geom_bond_atom_site_label_1
_geom_bond_atom_site_label_2
_geom_bond_distance
_geom_bond_site_symmetry_2
_ccdc_geom_bond_type
V1     V2    10.0   1_545     S
V1     V7    10.0   .     S
V1     V7    10.0   1_554     S
V1     V3    10.0   .     S
V1     V31    10.0   .     S
V2     V1    10.0   1_565     S
V2     V4    10.0   1_554     S
V2     V4    10.0   .     S
V2     V8    10.0   1_455     S
V2     V15    10.0   .     S
V3     V4    10.0   1_545     S
V3     V5    10.0   .     S
V3     V5    10.0   1_554     S
V3     V29    10.0   .     S
V4     V2    10.0   1_556     S
V4     V3    10.0   1_565     S
V4     V6    10.0   .     S
V4     V10    10.0   .     S
V5     V6    10.0   1_545     S
V5     V3    10.0   1_556     S
V5     V7    10.0   1_655     S
V5     V27    10.0   .     S
V6     V5    10.0   1_565     S
V6     V8    10.0   .     S
V6     V8    10.0   1_556     S
V6     V12    10.0   .     S
V7     V8    10.0   1_446     S
V7     V1    10.0   1_556     S
V7     V5    10.0   1_455     S
V7     V25    10.0   .     S
V8     V7    10.0   1_664     S
V8     V6    10.0   1_554     S
V8     V2    10.0   1_655     S
V8     V14    10.0   .     S
V9     V10    10.0   .     S
V9     V11    10.0   .     S
V9     V11    10.0   1_554     S
V9     V16    10.0   .     S
V9     V23    10.0   .     S
V10     V15    10.0   .     S
V10     V15    10.0   1_556     S
V10     V12    10.0   1_455     S
V11     V12    10.0   1_455     S
V11     V9    10.0   1_556     S
V11     V13    10.0   1_455     S
V11     V17    10.0   .     S
V12     V11    10.0   1_655     S
V12     V14    10.0   .     S
V12     V14    10.0   1_556     S
V12     V10    10.0   1_655     S
V13     V14    10.0   1_556     S
V13     V16    10.0   1_556     S
V13     V16    10.0   .     S
V13     V11    10.0   1_655     S
V13     V20    10.0   .     S
V14     V13    10.0   1_554     S
V14     V12    10.0   1_554     S
V14     V15    10.0   .     S
V15     V16    10.0   .     S
V15     V10    10.0   1_554     S
V16     V13    10.0   1_554     S
V16     V22    10.0   .     S
V17     V18    10.0   .     S
V17     V23    10.0   1_556     S
V17     V23    10.0   .     S
V17     V20    10.0   .     S
V18     V19    10.0   .     S
V18     V19    10.0   1_556     S
V18     V24    10.0   1_455     S
V18     V28    10.0   .     S
V19     V20    10.0   1_554     S
V19     V18    10.0   1_554     S
V19     V21    10.0   .     S
V19     V26    10.0   .     S
V20     V19    10.0   1_556     S
V20     V22    10.0   1_556     S
V20     V22    10.0   .     S
V21     V22    10.0   .     S
V21     V24    10.0   1_554     S
V21     V24    10.0   .     S
V21     V32    10.0   .     S
V22     V20    10.0   1_554     S
V22     V23    10.0   1_655     S
V23     V17    10.0   1_554     S
V23     V24    10.0   1_455     S
V23     V22    10.0   1_455     S
V24     V21    10.0   1_556     S
V24     V23    10.0   1_655     S
V24     V18    10.0   1_655     S
V24     V30    10.0   .     S
V25     V26    10.0   1_556     S
V25     V31    10.0   1_556     S
V25     V31    10.0   .     S
V25     V27    10.0   .     S
V26     V25    10.0   1_554     S
V26     V28    10.0   1_554     S
V26     V28    10.0   .     S
V26     V32    10.0   1_455     S
V27     V28    10.0   .     S
V27     V29    10.0   1_556     S
V27     V29    10.0   .     S
V28     V26    10.0   1_556     S
V28     V30    10.0   .     S
V29     V27    10.0   1_554     S
V29     V30    10.0   .     S
V29     V31    10.0   1_655     S
V30     V32    10.0   .     S
V30     V32    10.0   1_556     S
V31     V25    10.0   1_554     S
V31     V32    10.0   1_455     S
V31     V29    10.0   1_455     S
V32     V31    10.0   1_655     S
V32     V30    10.0   1_554     S
V32     V26    10.0   1_655     S
