data_vcf
_audit_creation_date              2020-02-02
_audit_creation_method            'Pymatgen'
_symmetry_space_group_name_H-M    'P1'
_symmetry_Int_Tables_number       1
loop_
_symmetry_equiv_pos_as_xyz
  x,y,z
_cell_length_a                    26.479
_cell_length_b                    23.5438
_cell_length_c                    55.9776
_cell_angle_alpha                 90.0
_cell_angle_beta                 90.0
_cell_angle_gamma                 90.0
loop_
_atom_site_label
_atom_site_type_symbol
_atom_site_fract_x
_atom_site_fract_y
_atom_site_fract_z
V1     V     0.9418   0.1764   0.4586
V2     V     0.8082   0.1764   0.2914
V3     V     0.5582   0.8236   0.0414
V4     V     0.6918   0.8236   0.2086
V5     V     0.3082   0.1764   0.7914
V6     V     0.4418   0.1764   0.9586
V7     V     0.1918   0.8236   0.7086
V8     V     0.0582   0.8236   0.5414
V9     V     0.1918   0.9264   0.0414
V10     V     0.0582   0.9264   0.2086
V11     V     0.9418   0.5736   0.2914
V12     V     0.8082   0.5736   0.4586
V13     V     0.5582   0.9264   0.7086
V14     V     0.6918   0.9264   0.5414
V15     V     0.4418   0.5736   0.7914
V16     V     0.3082   0.5736   0.9586
V17     V     0.6918   0.4264   0.0414
V18     V     0.5582   0.4264   0.2086
V19     V     0.3082   0.0736   0.4586
V20     V     0.4418   0.0736   0.2914
V21     V     0.0582   0.4264   0.7086
V22     V     0.1918   0.4264   0.5414
V23     V     0.9418   0.0736   0.7914
V24     V     0.8082   0.0736   0.9586
V25     V     0.9418   0.6764   0.9586
V26     V     0.8082   0.6764   0.7914
V27     V     0.0582   0.3236   0.0414
V28     V     0.1918   0.3236   0.2086
V29     V     0.3082   0.6764   0.2914
V30     V     0.4418   0.6764   0.4586
V31     V     0.6918   0.3236   0.7086
V32     V     0.5582   0.3236   0.5414
loop_
_geom_bond_atom_site_label_1
_geom_bond_atom_site_label_2
_geom_bond_distance
_geom_bond_site_symmetry_2
_ccdc_geom_bond_type
V1     V14    10.0   1_545     S
V1     V19    10.0   1_655     S
V1     V22    10.0   1_655     S
V1     V2    10.0   .     S
V1     V8    10.0   1_645     S
V1     V12    10.0   .     S
V2     V10    10.0   1_645     S
V2     V20    10.0   .     S
V2     V18    10.0   .     S
V2     V4    10.0   1_545     S
V2     V11    10.0   .     S
V3     V9    10.0   .     S
V3     V16    10.0   1_554     S
V3     V24    10.0   1_564     S
V3     V4    10.0   .     S
V3     V6    10.0   1_564     S
V3     V17    10.0   .     S
V4     V10    10.0   1_655     S
V4     V11    10.0   .     S
V4     V20    10.0   1_565     S
V4     V2    10.0   1_565     S
V4     V18    10.0   .     S
V5     V13    10.0   1_545     S
V5     V23    10.0   1_455     S
V5     V21    10.0   .     S
V5     V6    10.0   .     S
V5     V7    10.0   1_545     S
V5     V15    10.0   .     S
V6     V9    10.0   1_546     S
V6     V24    10.0   .     S
V6     V17    10.0   1_556     S
V6     V3    10.0   1_546     S
V6     V16    10.0   .     S
V7     V13    10.0   .     S
V7     V15    10.0   .     S
V7     V23    10.0   1_465     S
V7     V8    10.0   .     S
V7     V5    10.0   1_565     S
V7     V21    10.0   .     S
V8     V14    10.0   1_455     S
V8     V12    10.0   1_455     S
V8     V19    10.0   1_565     S
V8     V1    10.0   1_465     S
V8     V22    10.0   .     S
V9     V6    10.0   1_564     S
V9     V25    10.0   1_454     S
V9     V10    10.0   .     S
V9     V16    10.0   1_554     S
V9     V27    10.0   1_565     S
V10     V4    10.0   1_455     S
V10     V2    10.0   1_465     S
V10     V29    10.0   .     S
V10     V11    10.0   1_455     S
V10     V28    10.0   1_565     S
V11     V29    10.0   1_655     S
V11     V28    10.0   1_655     S
V11     V12    10.0   .     S
V11     V10    10.0   1_655     S
V12     V30    10.0   .     S
V12     V32    10.0   .     S
V12     V8    10.0   1_655     S
V12     V14    10.0   .     S
V13     V5    10.0   1_565     S
V13     V26    10.0   .     S
V13     V14    10.0   .     S
V13     V15    10.0   .     S
V13     V31    10.0   1_565     S
V14     V30    10.0   .     S
V14     V8    10.0   1_655     S
V14     V1    10.0   1_565     S
V14     V32    10.0   1_565     S
V15     V26    10.0   .     S
V15     V31    10.0   .     S
V15     V16    10.0   .     S
V16     V3    10.0   1_556     S
V16     V25    10.0   1_455     S
V16     V27    10.0   1_556     S
V16     V9    10.0   1_556     S
V17     V27    10.0   1_655     S
V17     V25    10.0   1_554     S
V17     V6    10.0   1_554     S
V17     V18    10.0   .     S
V17     V24    10.0   1_554     S
V18     V28    10.0   .     S
V18     V29    10.0   .     S
V18     V20    10.0   .     S
V19     V32    10.0   .     S
V19     V1    10.0   1_455     S
V19     V8    10.0   1_545     S
V19     V20    10.0   .     S
V19     V22    10.0   .     S
V19     V30    10.0   1_545     S
V20     V28    10.0   .     S
V20     V4    10.0   1_545     S
V20     V29    10.0   1_545     S
V21     V31    10.0   1_455     S
V21     V26    10.0   1_455     S
V21     V22    10.0   .     S
V21     V23    10.0   1_455     S
V22     V32    10.0   .     S
V22     V30    10.0   .     S
V22     V1    10.0   1_455     S
V23     V5    10.0   1_655     S
V23     V7    10.0   1_645     S
V23     V31    10.0   .     S
V23     V24    10.0   .     S
V23     V21    10.0   1_655     S
V23     V26    10.0   1_545     S
V24     V27    10.0   1_656     S
V24     V3    10.0   1_546     S
V24     V17    10.0   1_556     S
V24     V25    10.0   1_545     S
V25     V17    10.0   1_556     S
V25     V16    10.0   1_655     S
V25     V9    10.0   1_656     S
V25     V26    10.0   .     S
V25     V27    10.0   1_656     S
V25     V24    10.0   1_565     S
V26     V21    10.0   1_655     S
V26     V31    10.0   .     S
V26     V23    10.0   1_565     S
V27     V17    10.0   1_455     S
V27     V24    10.0   1_454     S
V27     V16    10.0   1_554     S
V27     V28    10.0   .     S
V27     V25    10.0   1_454     S
V27     V9    10.0   1_545     S
V28     V11    10.0   1_455     S
V28     V29    10.0   .     S
V28     V10    10.0   1_545     S
V29     V11    10.0   1_455     S
V29     V30    10.0   .     S
V29     V20    10.0   1_565     S
V30     V32    10.0   .     S
V30     V19    10.0   1_565     S
V31     V21    10.0   1_655     S
V31     V32    10.0   .     S
V31     V13    10.0   1_545     S
V32     V14    10.0   1_545     S
