data_vch
_audit_creation_date              2020-02-02
_audit_creation_method            'Pymatgen'
_symmetry_space_group_name_H-M    'P1'
_symmetry_Int_Tables_number       1
loop_
_symmetry_equiv_pos_as_xyz
  x,y,z
_cell_length_a                    19.9998
_cell_length_b                    38.5559
_cell_length_c                    37.059
_cell_angle_alpha                 90.0
_cell_angle_beta                 90.0
_cell_angle_gamma                 90.0
loop_
_atom_site_label
_atom_site_type_symbol
_atom_site_fract_x
_atom_site_fract_y
_atom_site_fract_z
V1     V     0.2903   0.878   0.3832
V2     V     0.7903   0.878   0.3832
V3     V     0.0403   0.878   0.6168
V4     V     0.5403   0.878   0.6168
V5     V     0.4597   0.122   0.3832
V6     V     0.9597   0.122   0.3832
V7     V     0.2097   0.122   0.6168
V8     V     0.7097   0.122   0.6168
V9     V     0.0403   0.378   0.3832
V10     V     0.5403   0.378   0.3832
V11     V     0.2903   0.378   0.6168
V12     V     0.7903   0.378   0.6168
V13     V     0.2097   0.622   0.3832
V14     V     0.7097   0.622   0.3832
V15     V     0.4597   0.622   0.6168
V16     V     0.9597   0.622   0.6168
V17     V     0.4597   0.878   0.8832
V18     V     0.9597   0.878   0.8832
V19     V     0.2097   0.878   0.1168
V20     V     0.7097   0.878   0.1168
V21     V     0.2903   0.122   0.8832
V22     V     0.7903   0.122   0.8832
V23     V     0.0403   0.122   0.1168
V24     V     0.5403   0.122   0.1168
V25     V     0.2097   0.378   0.8832
V26     V     0.7097   0.378   0.8832
V27     V     0.4597   0.378   0.1168
V28     V     0.9597   0.378   0.1168
V29     V     0.0403   0.622   0.8832
V30     V     0.5403   0.622   0.8832
V31     V     0.2903   0.622   0.1168
V32     V     0.7903   0.622   0.1168
loop_
_geom_bond_atom_site_label_1
_geom_bond_atom_site_label_2
_geom_bond_distance
_geom_bond_site_symmetry_2
_ccdc_geom_bond_type
V1     V4    10.0   .     S
V1     V3    10.0   .     S
V1     V2    10.0   1_455     S
V1     V2    10.0   .     S
V1     V5    10.0   1_565     S
V1     V13    10.0   .     S
V1     V19    10.0   .     S
V2     V3    10.0   1_655     S
V2     V4    10.0   .     S
V2     V1    10.0   1_655     S
V2     V6    10.0   1_565     S
V2     V14    10.0   .     S
V2     V20    10.0   .     S
V3     V2    10.0   1_455     S
V3     V4    10.0   .     S
V3     V4    10.0   1_455     S
V3     V7    10.0   1_565     S
V3     V16    10.0   1_455     S
V3     V18    10.0   1_455     S
V4     V3    10.0   1_655     S
V4     V8    10.0   1_565     S
V4     V15    10.0   .     S
V4     V17    10.0   .     S
V5     V8    10.0   .     S
V5     V6    10.0   1_455     S
V5     V6    10.0   .     S
V5     V7    10.0   .     S
V5     V1    10.0   1_545     S
V5     V10    10.0   .     S
V5     V24    10.0   .     S
V6     V7    10.0   1_655     S
V6     V5    10.0   1_655     S
V6     V8    10.0   .     S
V6     V2    10.0   1_545     S
V6     V9    10.0   1_655     S
V6     V23    10.0   1_655     S
V7     V6    10.0   1_455     S
V7     V8    10.0   .     S
V7     V8    10.0   1_455     S
V7     V3    10.0   1_545     S
V7     V11    10.0   .     S
V7     V21    10.0   .     S
V8     V7    10.0   1_655     S
V8     V4    10.0   1_545     S
V8     V12    10.0   .     S
V8     V22    10.0   .     S
V9     V10    10.0   .     S
V9     V10    10.0   1_455     S
V9     V12    10.0   1_455     S
V9     V11    10.0   .     S
V9     V13    10.0   .     S
V9     V6    10.0   1_455     S
V9     V28    10.0   1_455     S
V10     V9    10.0   1_655     S
V10     V11    10.0   .     S
V10     V12    10.0   .     S
V10     V14    10.0   .     S
V10     V27    10.0   .     S
V11     V12    10.0   1_455     S
V11     V12    10.0   .     S
V11     V15    10.0   .     S
V11     V25    10.0   .     S
V12     V9    10.0   1_655     S
V12     V11    10.0   1_655     S
V12     V16    10.0   .     S
V12     V26    10.0   .     S
V13     V16    10.0   1_455     S
V13     V14    10.0   .     S
V13     V14    10.0   1_455     S
V13     V15    10.0   .     S
V13     V31    10.0   .     S
V14     V15    10.0   .     S
V14     V13    10.0   1_655     S
V14     V16    10.0   .     S
V14     V32    10.0   .     S
V15     V16    10.0   1_455     S
V15     V16    10.0   .     S
V15     V30    10.0   .     S
V16     V13    10.0   1_655     S
V16     V15    10.0   1_655     S
V16     V3    10.0   1_655     S
V16     V29    10.0   1_655     S
V17     V20    10.0   1_556     S
V17     V18    10.0   1_455     S
V17     V18    10.0   .     S
V17     V19    10.0   1_556     S
V17     V21    10.0   1_565     S
V17     V30    10.0   .     S
V18     V19    10.0   1_656     S
V18     V17    10.0   1_655     S
V18     V20    10.0   1_556     S
V18     V22    10.0   1_565     S
V18     V29    10.0   1_655     S
V18     V3    10.0   1_655     S
V19     V18    10.0   1_454     S
V19     V17    10.0   1_554     S
V19     V20    10.0   .     S
V19     V20    10.0   1_455     S
V19     V23    10.0   1_565     S
V19     V31    10.0   .     S
V20     V17    10.0   1_554     S
V20     V18    10.0   1_554     S
V20     V19    10.0   1_655     S
V20     V24    10.0   1_565     S
V20     V32    10.0   .     S
V21     V24    10.0   1_556     S
V21     V23    10.0   1_556     S
V21     V22    10.0   1_455     S
V21     V22    10.0   .     S
V21     V17    10.0   1_545     S
V21     V25    10.0   .     S
V22     V23    10.0   1_656     S
V22     V24    10.0   1_556     S
V22     V21    10.0   1_655     S
V22     V18    10.0   1_545     S
V22     V26    10.0   .     S
V23     V22    10.0   1_454     S
V23     V21    10.0   1_554     S
V23     V24    10.0   .     S
V23     V24    10.0   1_455     S
V23     V19    10.0   1_545     S
V23     V28    10.0   1_455     S
V23     V6    10.0   1_455     S
V24     V21    10.0   1_554     S
V24     V22    10.0   1_554     S
V24     V23    10.0   1_655     S
V24     V20    10.0   1_545     S
V24     V27    10.0   .     S
V25     V27    10.0   1_556     S
V25     V26    10.0   .     S
V25     V26    10.0   1_455     S
V25     V28    10.0   1_456     S
V25     V29    10.0   .     S
V26     V28    10.0   1_556     S
V26     V25    10.0   1_655     S
V26     V27    10.0   1_556     S
V26     V30    10.0   .     S
V27     V25    10.0   1_554     S
V27     V26    10.0   1_554     S
V27     V28    10.0   1_455     S
V27     V28    10.0   .     S
V27     V31    10.0   .     S
V28     V26    10.0   1_554     S
V28     V25    10.0   1_654     S
V28     V27    10.0   1_655     S
V28     V32    10.0   .     S
V28     V23    10.0   1_655     S
V28     V9    10.0   1_655     S
V29     V30    10.0   .     S
V29     V30    10.0   1_455     S
V29     V32    10.0   1_456     S
V29     V31    10.0   1_556     S
V29     V18    10.0   1_455     S
V29     V16    10.0   1_455     S
V30     V29    10.0   1_655     S
V30     V31    10.0   1_556     S
V30     V32    10.0   1_556     S
V31     V30    10.0   1_554     S
V31     V29    10.0   1_554     S
V31     V32    10.0   1_455     S
V31     V32    10.0   .     S
V32     V29    10.0   1_654     S
V32     V30    10.0   1_554     S
V32     V31    10.0   1_655     S
