data_vck
_audit_creation_date              2020-02-02
_audit_creation_method            'Pymatgen'
_symmetry_space_group_name_H-M    'P1'
_symmetry_Int_Tables_number       1
loop_
_symmetry_equiv_pos_as_xyz
  x,y,z
_cell_length_a                    53.5036
_cell_length_b                    26.9504
_cell_length_c                    20.0
_cell_angle_alpha                 90.0
_cell_angle_beta                 90.0
_cell_angle_gamma                 90.0
loop_
_atom_site_label
_atom_site_type_symbol
_atom_site_fract_x
_atom_site_fract_y
_atom_site_fract_z
V1     V     0.44   0.3578   0.25
V2     V     0.44   0.3578   0.75
V3     V     0.31   0.1078   0.375
V4     V     0.31   0.1078   0.875
V5     V     0.44   0.8578   0.0
V6     V     0.44   0.8578   0.5
V7     V     0.31   0.6078   0.125
V8     V     0.31   0.6078   0.625
V9     V     0.56   0.6422   0.25
V10     V     0.56   0.6422   0.75
V11     V     0.69   0.3922   0.125
V12     V     0.69   0.3922   0.625
V13     V     0.56   0.1422   0.0
V14     V     0.56   0.1422   0.5
V15     V     0.69   0.8922   0.375
V16     V     0.69   0.8922   0.875
V17     V     0.94   0.3578   0.0
V18     V     0.94   0.3578   0.5
V19     V     0.81   0.6078   0.375
V20     V     0.81   0.6078   0.875
V21     V     0.94   0.8578   0.25
V22     V     0.94   0.8578   0.75
V23     V     0.81   0.1078   0.125
V24     V     0.81   0.1078   0.625
V25     V     0.19   0.8922   0.125
V26     V     0.19   0.8922   0.625
V27     V     0.19   0.3922   0.375
V28     V     0.19   0.3922   0.875
V29     V     0.06   0.6422   0.0
V30     V     0.06   0.6422   0.5
V31     V     0.06   0.1422   0.25
V32     V     0.06   0.1422   0.75
loop_
_geom_bond_atom_site_label_1
_geom_bond_atom_site_label_2
_geom_bond_distance
_geom_bond_site_symmetry_2
_ccdc_geom_bond_type
V1     V3    10.0   .     S
V1     V7    10.0   .     S
V1     V2    10.0   1_554     S
V1     V2    10.0   .     S
V1     V13    10.0   .     S
V1     V14    10.0   .     S
V1     V9    10.0   .     S
V2     V4    10.0   .     S
V2     V8    10.0   .     S
V2     V1    10.0   1_556     S
V2     V14    10.0   .     S
V2     V13    10.0   1_556     S
V2     V10    10.0   .     S
V3     V26    10.0   1_545     S
V3     V25    10.0   1_545     S
V3     V6    10.0   1_545     S
V3     V4    10.0   1_554     S
V3     V4    10.0   .     S
V3     V27    10.0   .     S
V4     V25    10.0   1_546     S
V4     V26    10.0   1_545     S
V4     V5    10.0   1_546     S
V4     V3    10.0   1_556     S
V4     V28    10.0   .     S
V5     V9    10.0   .     S
V5     V10    10.0   1_554     S
V5     V4    10.0   1_564     S
V5     V7    10.0   .     S
V5     V6    10.0   .     S
V5     V6    10.0   1_554     S
V5     V13    10.0   1_565     S
V6     V10    10.0   .     S
V6     V9    10.0   .     S
V6     V3    10.0   1_565     S
V6     V8    10.0   .     S
V6     V5    10.0   1_556     S
V6     V14    10.0   1_565     S
V7     V8    10.0   .     S
V7     V8    10.0   1_554     S
V7     V27    10.0   .     S
V7     V28    10.0   1_554     S
V7     V25    10.0   .     S
V8     V7    10.0   1_556     S
V8     V28    10.0   .     S
V8     V27    10.0   .     S
V8     V26    10.0   .     S
V9     V11    10.0   .     S
V9     V15    10.0   .     S
V9     V10    10.0   1_554     S
V9     V10    10.0   .     S
V10     V5    10.0   1_556     S
V10     V12    10.0   .     S
V10     V16    10.0   .     S
V10     V9    10.0   1_556     S
V11     V19    10.0   .     S
V11     V20    10.0   1_554     S
V11     V13    10.0   .     S
V11     V12    10.0   .     S
V11     V12    10.0   1_554     S
V11     V23    10.0   .     S
V12     V20    10.0   .     S
V12     V19    10.0   .     S
V12     V14    10.0   .     S
V12     V11    10.0   1_556     S
V12     V24    10.0   .     S
V13     V16    10.0   1_544     S
V13     V14    10.0   .     S
V13     V14    10.0   1_554     S
V13     V2    10.0   1_554     S
V13     V5    10.0   1_545     S
V14     V15    10.0   1_545     S
V14     V13    10.0   1_556     S
V14     V6    10.0   1_545     S
V15     V24    10.0   1_565     S
V15     V23    10.0   1_565     S
V15     V14    10.0   1_565     S
V15     V16    10.0   1_554     S
V15     V16    10.0   .     S
V15     V19    10.0   .     S
V16     V23    10.0   1_566     S
V16     V24    10.0   1_565     S
V16     V13    10.0   1_566     S
V16     V15    10.0   1_556     S
V16     V20    10.0   .     S
V17     V23    10.0   .     S
V17     V20    10.0   1_554     S
V17     V18    10.0   .     S
V17     V18    10.0   1_554     S
V17     V32    10.0   1_654     S
V17     V31    10.0   1_655     S
V17     V29    10.0   1_655     S
V18     V24    10.0   .     S
V18     V19    10.0   .     S
V18     V17    10.0   1_556     S
V18     V31    10.0   1_655     S
V18     V32    10.0   1_655     S
V18     V30    10.0   1_655     S
V19     V21    10.0   .     S
V19     V20    10.0   1_554     S
V19     V20    10.0   .     S
V20     V11    10.0   1_556     S
V20     V22    10.0   .     S
V20     V17    10.0   1_556     S
V20     V19    10.0   1_556     S
V21     V30    10.0   1_655     S
V21     V29    10.0   1_655     S
V21     V23    10.0   1_565     S
V21     V22    10.0   1_554     S
V21     V22    10.0   .     S
V21     V31    10.0   1_665     S
V22     V29    10.0   1_656     S
V22     V30    10.0   1_655     S
V22     V24    10.0   1_565     S
V22     V21    10.0   1_556     S
V22     V32    10.0   1_665     S
V23     V16    10.0   1_544     S
V23     V15    10.0   1_545     S
V23     V21    10.0   1_545     S
V23     V24    10.0   .     S
V23     V24    10.0   1_554     S
V24     V15    10.0   1_545     S
V24     V16    10.0   1_545     S
V24     V22    10.0   1_545     S
V24     V23    10.0   1_556     S
V25     V4    10.0   1_564     S
V25     V3    10.0   1_565     S
V25     V29    10.0   .     S
V25     V31    10.0   1_565     S
V25     V26    10.0   .     S
V25     V26    10.0   1_554     S
V26     V3    10.0   1_565     S
V26     V4    10.0   1_565     S
V26     V30    10.0   .     S
V26     V32    10.0   1_565     S
V26     V25    10.0   1_556     S
V27     V31    10.0   .     S
V27     V30    10.0   .     S
V27     V28    10.0   1_554     S
V27     V28    10.0   .     S
V28     V7    10.0   1_556     S
V28     V32    10.0   .     S
V28     V29    10.0   1_556     S
V28     V27    10.0   1_556     S
V29     V22    10.0   1_454     S
V29     V21    10.0   1_455     S
V29     V28    10.0   1_554     S
V29     V30    10.0   .     S
V29     V30    10.0   1_554     S
V29     V17    10.0   1_455     S
V30     V21    10.0   1_455     S
V30     V22    10.0   1_455     S
V30     V29    10.0   1_556     S
V30     V18    10.0   1_455     S
V31     V18    10.0   1_455     S
V31     V17    10.0   1_455     S
V31     V25    10.0   1_545     S
V31     V32    10.0   1_554     S
V31     V32    10.0   .     S
V31     V21    10.0   1_445     S
V32     V17    10.0   1_456     S
V32     V18    10.0   1_455     S
V32     V26    10.0   1_545     S
V32     V31    10.0   1_556     S
V32     V22    10.0   1_445     S
