data_vcs
_audit_creation_date              2020-02-02
_audit_creation_method            'Pymatgen'
_symmetry_space_group_name_H-M    'P1'
_symmetry_Int_Tables_number       1
loop_
_symmetry_equiv_pos_as_xyz
  x,y,z
_cell_length_a                    18.7548
_cell_length_b                    13.0793
_cell_length_c                    14.1213
_cell_angle_alpha                 90.0
_cell_angle_beta                 90.0
_cell_angle_gamma                 90.0
loop_
_atom_site_label
_atom_site_type_symbol
_atom_site_fract_x
_atom_site_fract_y
_atom_site_fract_z
V1     V     0.1776   0.25   0.373
V2     V     0.8224   0.75   0.627
V3     V     0.3224   0.75   0.873
V4     V     0.6776   0.25   0.127
loop_
_geom_bond_atom_site_label_1
_geom_bond_atom_site_label_2
_geom_bond_distance
_geom_bond_site_symmetry_2
_ccdc_geom_bond_type
V1     V3    10.0   1_544     S
V1     V4    10.0   .     S
V1     V3    10.0   1_554     S
V1     V3    10.0   1_545     S
V1     V3    10.0   .     S
V1     V2    10.0   1_445     S
V1     V2    10.0   1_455     S
V1     V4    10.0   1_455     S
V2     V3    10.0   1_655     S
V2     V1    10.0   1_665     S
V2     V1    10.0   1_655     S
V2     V4    10.0   1_556     S
V2     V3    10.0   .     S
V2     V4    10.0   1_566     S
V2     V4    10.0   1_565     S
V2     V4    10.0   .     S
V3     V1    10.0   1_566     S
V3     V1    10.0   1_556     S
V3     V1    10.0   1_565     S
V3     V2    10.0   1_455     S
V3     V4    10.0   1_556     S
V3     V4    10.0   1_566     S
V4     V2    10.0   1_554     S
V4     V2    10.0   1_544     S
V4     V3    10.0   1_554     S
V4     V3    10.0   1_544     S
V4     V2    10.0   1_545     S
V4     V1    10.0   1_655     S
