data_vcu
_audit_creation_date              2020-02-02
_audit_creation_method            'Pymatgen'
_symmetry_space_group_name_H-M    'P1'
_symmetry_Int_Tables_number       1
loop_
_symmetry_equiv_pos_as_xyz
  x,y,z
_cell_length_a                    20.0
_cell_length_b                    19.3606
_cell_length_c                    34.8644
_cell_angle_alpha                 90.0
_cell_angle_beta                 90.0
_cell_angle_gamma                 90.0
loop_
_atom_site_label
_atom_site_type_symbol
_atom_site_fract_x
_atom_site_fract_y
_atom_site_fract_z
V1     V     0.1877   0.6501   0.8889
V2     V     0.6877   0.6501   0.8889
V3     V     0.4377   0.8499   0.1111
V4     V     0.9377   0.8499   0.1111
V5     V     0.0623   0.1501   0.8889
V6     V     0.5623   0.1501   0.8889
V7     V     0.3123   0.3499   0.1111
V8     V     0.8123   0.3499   0.1111
V9     V     0.3123   0.6501   0.6111
V10     V     0.8123   0.6501   0.6111
V11     V     0.0623   0.8499   0.3889
V12     V     0.5623   0.8499   0.3889
V13     V     0.1877   0.3499   0.3889
V14     V     0.6877   0.3499   0.3889
V15     V     0.4377   0.1501   0.6111
V16     V     0.9377   0.1501   0.6111
loop_
_geom_bond_atom_site_label_1
_geom_bond_atom_site_label_2
_geom_bond_distance
_geom_bond_site_symmetry_2
_ccdc_geom_bond_type
V1     V5    10.0   1_565     S
V1     V2    10.0   .     S
V1     V2    10.0   1_455     S
V1     V3    10.0   1_556     S
V1     V4    10.0   1_456     S
V1     V5    10.0   .     S
V1     V7    10.0   1_556     S
V1     V9    10.0   .     S
V2     V6    10.0   1_565     S
V2     V1    10.0   1_655     S
V2     V4    10.0   1_556     S
V2     V3    10.0   1_556     S
V2     V6    10.0   .     S
V2     V8    10.0   1_556     S
V2     V10    10.0   .     S
V3     V6    10.0   1_564     S
V3     V7    10.0   1_565     S
V3     V1    10.0   1_554     S
V3     V2    10.0   1_554     S
V3     V4    10.0   1_455     S
V3     V4    10.0   .     S
V3     V7    10.0   .     S
V3     V12    10.0   .     S
V4     V5    10.0   1_664     S
V4     V8    10.0   1_565     S
V4     V2    10.0   1_554     S
V4     V1    10.0   1_654     S
V4     V3    10.0   1_655     S
V4     V8    10.0   .     S
V4     V11    10.0   1_655     S
V5     V1    10.0   1_545     S
V5     V4    10.0   1_446     S
V5     V8    10.0   1_456     S
V5     V7    10.0   1_556     S
V5     V6    10.0   .     S
V5     V6    10.0   1_455     S
V5     V16    10.0   1_455     S
V6     V2    10.0   1_545     S
V6     V3    10.0   1_546     S
V6     V7    10.0   1_556     S
V6     V8    10.0   1_556     S
V6     V5    10.0   1_655     S
V6     V15    10.0   .     S
V7     V3    10.0   1_545     S
V7     V6    10.0   1_554     S
V7     V8    10.0   1_455     S
V7     V8    10.0   .     S
V7     V5    10.0   1_554     S
V7     V1    10.0   1_554     S
V7     V13    10.0   .     S
V8     V4    10.0   1_545     S
V8     V5    10.0   1_654     S
V8     V7    10.0   1_655     S
V8     V6    10.0   1_554     S
V8     V2    10.0   1_554     S
V8     V14    10.0   .     S
V9     V15    10.0   .     S
V9     V13    10.0   .     S
V9     V12    10.0   .     S
V9     V11    10.0   .     S
V9     V10    10.0   1_455     S
V9     V10    10.0   .     S
V9     V15    10.0   1_565     S
V10     V16    10.0   .     S
V10     V14    10.0   .     S
V10     V11    10.0   1_655     S
V10     V12    10.0   .     S
V10     V9    10.0   1_655     S
V10     V16    10.0   1_565     S
V11     V4    10.0   1_455     S
V11     V13    10.0   .     S
V11     V10    10.0   1_455     S
V11     V12    10.0   .     S
V11     V12    10.0   1_455     S
V11     V16    10.0   1_465     S
V11     V13    10.0   1_565     S
V12     V14    10.0   .     S
V12     V11    10.0   1_655     S
V12     V15    10.0   1_565     S
V12     V14    10.0   1_565     S
V13     V16    10.0   1_455     S
V13     V15    10.0   .     S
V13     V14    10.0   .     S
V13     V14    10.0   1_455     S
V13     V11    10.0   1_545     S
V14     V15    10.0   .     S
V14     V16    10.0   .     S
V14     V13    10.0   1_655     S
V14     V12    10.0   1_545     S
V15     V16    10.0   1_455     S
V15     V16    10.0   .     S
V15     V9    10.0   1_545     S
V15     V12    10.0   1_545     S
V16     V13    10.0   1_655     S
V16     V15    10.0   1_655     S
V16     V10    10.0   1_545     S
V16     V11    10.0   1_645     S
V16     V5    10.0   1_655     S
