data_vcw
_audit_creation_date              2020-02-02
_audit_creation_method            'Pymatgen'
_symmetry_space_group_name_H-M    'P1'
_symmetry_Int_Tables_number       1
loop_
_symmetry_equiv_pos_as_xyz
  x,y,z
_cell_length_a                    19.7759
_cell_length_b                    32.3529
_cell_length_c                    20.0002
_cell_angle_alpha                 90.0
_cell_angle_beta                 90.0
_cell_angle_gamma                 90.0
loop_
_atom_site_label
_atom_site_type_symbol
_atom_site_fract_x
_atom_site_fract_y
_atom_site_fract_z
V1     V     0.3588   0.3838   0.0877
V2     V     0.3588   0.3838   0.5877
V3     V     0.1412   0.6162   0.3377
V4     V     0.1412   0.6162   0.8377
V5     V     0.1412   0.8838   0.0877
V6     V     0.1412   0.8838   0.5877
V7     V     0.3588   0.1162   0.3377
V8     V     0.3588   0.1162   0.8377
V9     V     0.8588   0.1162   0.4123
V10     V     0.8588   0.1162   0.9123
V11     V     0.6412   0.8838   0.1623
V12     V     0.6412   0.8838   0.6623
V13     V     0.8588   0.3838   0.1623
V14     V     0.8588   0.3838   0.6623
V15     V     0.6412   0.6162   0.4123
V16     V     0.6412   0.6162   0.9123
loop_
_geom_bond_atom_site_label_1
_geom_bond_atom_site_label_2
_geom_bond_distance
_geom_bond_site_symmetry_2
_ccdc_geom_bond_type
V1     V16    10.0   1_554     S
V1     V13    10.0   .     S
V1     V3    10.0   .     S
V1     V2    10.0   .     S
V1     V2    10.0   1_554     S
V1     V4    10.0   1_554     S
V1     V7    10.0   .     S
V1     V8    10.0   1_554     S
V1     V13    10.0   1_455     S
V2     V15    10.0   .     S
V2     V14    10.0   .     S
V2     V4    10.0   .     S
V2     V1    10.0   1_556     S
V2     V3    10.0   .     S
V2     V8    10.0   .     S
V2     V7    10.0   .     S
V2     V14    10.0   1_455     S
V3     V15    10.0   .     S
V3     V4    10.0   1_554     S
V3     V4    10.0   .     S
V3     V5    10.0   .     S
V3     V6    10.0   .     S
V3     V13    10.0   1_455     S
V3     V15    10.0   1_455     S
V4     V16    10.0   .     S
V4     V1    10.0   1_556     S
V4     V3    10.0   1_556     S
V4     V6    10.0   .     S
V4     V5    10.0   1_556     S
V4     V14    10.0   1_455     S
V4     V16    10.0   1_455     S
V5     V11    10.0   .     S
V5     V4    10.0   1_554     S
V5     V6    10.0   .     S
V5     V6    10.0   1_554     S
V5     V8    10.0   1_564     S
V5     V7    10.0   1_565     S
V5     V10    10.0   1_464     S
V5     V11    10.0   1_455     S
V6     V12    10.0   .     S
V6     V5    10.0   1_556     S
V6     V7    10.0   1_565     S
V6     V8    10.0   1_565     S
V6     V9    10.0   1_465     S
V6     V12    10.0   1_455     S
V7     V11    10.0   1_545     S
V7     V9    10.0   .     S
V7     V6    10.0   1_545     S
V7     V5    10.0   1_545     S
V7     V8    10.0   1_554     S
V7     V8    10.0   .     S
V7     V9    10.0   1_455     S
V8     V12    10.0   1_545     S
V8     V10    10.0   .     S
V8     V5    10.0   1_546     S
V8     V6    10.0   1_545     S
V8     V7    10.0   1_556     S
V8     V1    10.0   1_556     S
V8     V10    10.0   1_455     S
V9     V6    10.0   1_645     S
V9     V7    10.0   1_655     S
V9     V12    10.0   1_545     S
V9     V10    10.0   1_554     S
V9     V10    10.0   .     S
V9     V11    10.0   1_545     S
V9     V13    10.0   .     S
V9     V14    10.0   .     S
V10     V5    10.0   1_646     S
V10     V8    10.0   1_655     S
V10     V11    10.0   1_546     S
V10     V9    10.0   1_556     S
V10     V12    10.0   1_545     S
V10     V14    10.0   .     S
V10     V13    10.0   1_556     S
V11     V7    10.0   1_565     S
V11     V5    10.0   1_655     S
V11     V10    10.0   1_564     S
V11     V9    10.0   1_565     S
V11     V12    10.0   .     S
V11     V12    10.0   1_554     S
V11     V15    10.0   .     S
V11     V16    10.0   1_554     S
V12     V8    10.0   1_565     S
V12     V6    10.0   1_655     S
V12     V9    10.0   1_565     S
V12     V10    10.0   1_565     S
V12     V11    10.0   1_556     S
V12     V16    10.0   .     S
V12     V15    10.0   .     S
V13     V3    10.0   1_655     S
V13     V1    10.0   1_655     S
V13     V14    10.0   .     S
V13     V14    10.0   1_554     S
V13     V15    10.0   .     S
V13     V16    10.0   1_554     S
V13     V10    10.0   1_554     S
V14     V4    10.0   1_655     S
V14     V2    10.0   1_655     S
V14     V13    10.0   1_556     S
V14     V16    10.0   .     S
V14     V15    10.0   .     S
V15     V3    10.0   1_655     S
V15     V16    10.0   1_554     S
V15     V16    10.0   .     S
V16     V1    10.0   1_556     S
V16     V4    10.0   1_655     S
V16     V13    10.0   1_556     S
V16     V15    10.0   1_556     S
V16     V11    10.0   1_556     S
