data_vda
_audit_creation_date              2020-02-02
_audit_creation_method            'Pymatgen'
_symmetry_space_group_name_H-M    'P1'
_symmetry_Int_Tables_number       1
loop_
_symmetry_equiv_pos_as_xyz
  x,y,z
_cell_length_a                    30.555
_cell_length_b                    25.8066
_cell_length_c                    38.7254
_cell_angle_alpha                 90.0
_cell_angle_beta                 90.0
_cell_angle_gamma                 90.0
loop_
_atom_site_label
_atom_site_type_symbol
_atom_site_fract_x
_atom_site_fract_y
_atom_site_fract_z
V1     V     0.9039   0.1843   0.0021
V2     V     0.8461   0.1843   0.7479
V3     V     0.5961   0.3157   0.9979
V4     V     0.6539   0.3157   0.2521
V5     V     0.3461   0.1843   0.2479
V6     V     0.4039   0.1843   0.5021
V7     V     0.1539   0.3157   0.7521
V8     V     0.0961   0.3157   0.4979
V9     V     0.6539   0.8157   0.7521
V10     V     0.5961   0.8157   0.4979
V11     V     0.4039   0.6843   0.0021
V12     V     0.3461   0.6843   0.7479
V13     V     0.0961   0.8157   0.9979
V14     V     0.1539   0.8157   0.2521
V15     V     0.8461   0.6843   0.2479
V16     V     0.9039   0.6843   0.5021
V17     V     0.8461   0.0657   0.5021
V18     V     0.9039   0.0657   0.2479
V19     V     0.0961   0.9343   0.7521
V20     V     0.1539   0.9343   0.4979
V21     V     0.6539   0.9343   0.9979
V22     V     0.5961   0.9343   0.2521
V23     V     0.3461   0.0657   0.0021
V24     V     0.4039   0.0657   0.7479
V25     V     0.1539   0.4343   0.9979
V26     V     0.0961   0.4343   0.2521
V27     V     0.8461   0.5657   0.0021
V28     V     0.9039   0.5657   0.7479
V29     V     0.5961   0.4343   0.7521
V30     V     0.6539   0.4343   0.4979
V31     V     0.3461   0.5657   0.5021
V32     V     0.4039   0.5657   0.2479
loop_
_geom_bond_atom_site_label_1
_geom_bond_atom_site_label_2
_geom_bond_distance
_geom_bond_site_symmetry_2
_ccdc_geom_bond_type
V1     V27    10.0   .     S
V1     V25    10.0   1_654     S
V1     V21    10.0   1_544     S
V1     V2    10.0   1_554     S
V1     V3    10.0   1_554     S
V1     V18    10.0   .     S
V2     V1    10.0   1_556     S
V2     V7    10.0   1_655     S
V2     V19    10.0   1_645     S
V2     V28    10.0   .     S
V2     V29    10.0   .     S
V2     V17    10.0   .     S
V3     V27    10.0   1_556     S
V3     V21    10.0   1_545     S
V3     V23    10.0   1_556     S
V3     V4    10.0   1_556     S
V3     V1    10.0   1_556     S
V3     V29    10.0   .     S
V4     V3    10.0   1_554     S
V4     V5    10.0   .     S
V4     V22    10.0   1_545     S
V4     V18    10.0   .     S
V4     V32    10.0   .     S
V4     V30    10.0   .     S
V5     V6    10.0   .     S
V5     V22    10.0   1_545     S
V5     V32    10.0   .     S
V5     V26    10.0   .     S
V5     V23    10.0   .     S
V6     V8    10.0   .     S
V6     V31    10.0   .     S
V6     V30    10.0   .     S
V6     V20    10.0   1_545     S
V6     V24    10.0   .     S
V7     V2    10.0   1_455     S
V7     V8    10.0   .     S
V7     V19    10.0   1_545     S
V7     V24    10.0   .     S
V7     V28    10.0   1_455     S
V7     V25    10.0   .     S
V8     V31    10.0   .     S
V8     V20    10.0   1_545     S
V8     V17    10.0   1_455     S
V8     V26    10.0   .     S
V9     V24    10.0   1_565     S
V9     V10    10.0   .     S
V9     V12    10.0   .     S
V9     V29    10.0   .     S
V9     V28    10.0   .     S
V9     V21    10.0   .     S
V10     V30    10.0   .     S
V10     V31    10.0   .     S
V10     V16    10.0   .     S
V10     V17    10.0   1_565     S
V10     V22    10.0   .     S
V11     V23    10.0   1_565     S
V11     V21    10.0   1_554     S
V11     V12    10.0   1_554     S
V11     V13    10.0   1_554     S
V11     V25    10.0   1_554     S
V11     V32    10.0   .     S
V12     V24    10.0   1_565     S
V12     V19    10.0   .     S
V12     V11    10.0   1_556     S
V12     V29    10.0   .     S
V12     V31    10.0   .     S
V13     V23    10.0   1_566     S
V13     V11    10.0   1_556     S
V13     V14    10.0   1_556     S
V13     V25    10.0   .     S
V13     V27    10.0   1_456     S
V13     V19    10.0   .     S
V14     V26    10.0   .     S
V14     V32    10.0   .     S
V14     V13    10.0   1_554     S
V14     V15    10.0   1_455     S
V14     V18    10.0   1_465     S
V14     V20    10.0   .     S
V15     V26    10.0   1_655     S
V15     V16    10.0   .     S
V15     V14    10.0   1_655     S
V15     V18    10.0   1_565     S
V15     V22    10.0   .     S
V15     V27    10.0   .     S
V16     V30    10.0   .     S
V16     V17    10.0   1_565     S
V16     V20    10.0   1_655     S
V16     V28    10.0   .     S
V17     V16    10.0   1_545     S
V17     V10    10.0   1_545     S
V17     V18    10.0   .     S
V17     V20    10.0   1_645     S
V17     V8    10.0   1_655     S
V18     V15    10.0   1_545     S
V18     V14    10.0   1_645     S
V18     V22    10.0   1_545     S
V19     V7    10.0   1_565     S
V19     V2    10.0   1_465     S
V19     V20    10.0   .     S
V19     V24    10.0   1_565     S
V20     V16    10.0   1_455     S
V20     V17    10.0   1_465     S
V20     V8    10.0   1_565     S
V20     V6    10.0   1_565     S
V21     V3    10.0   1_565     S
V21     V1    10.0   1_566     S
V21     V11    10.0   1_556     S
V21     V22    10.0   1_556     S
V21     V23    10.0   1_566     S
V22     V4    10.0   1_565     S
V22     V5    10.0   1_565     S
V22     V21    10.0   1_554     S
V22     V18    10.0   1_565     S
V23     V3    10.0   1_554     S
V23     V11    10.0   1_545     S
V23     V13    10.0   1_544     S
V23     V24    10.0   1_554     S
V23     V21    10.0   1_544     S
V24     V12    10.0   1_545     S
V24     V9    10.0   1_545     S
V24     V23    10.0   1_556     S
V24     V19    10.0   1_545     S
V25     V1    10.0   1_456     S
V25     V26    10.0   1_556     S
V25     V27    10.0   1_456     S
V25     V11    10.0   1_556     S
V26     V15    10.0   1_455     S
V26     V25    10.0   1_554     S
V26     V32    10.0   .     S
V27     V3    10.0   1_554     S
V27     V28    10.0   1_554     S
V27     V25    10.0   1_654     S
V27     V13    10.0   1_654     S
V28     V7    10.0   1_655     S
V28     V27    10.0   1_556     S
V28     V29    10.0   .     S
V29     V30    10.0   .     S
V30     V31    10.0   .     S
V31     V32    10.0   .     S
