data_vfi
_audit_creation_date              2020-02-02
_audit_creation_method            'Pymatgen'
_symmetry_space_group_name_H-M    'P1'
_symmetry_Int_Tables_number       1
loop_
_symmetry_equiv_pos_as_xyz
  x,y,z
_cell_length_a                    60.9181
_cell_length_b                    60.9181
_cell_length_c                    26.6895
_cell_angle_alpha                 90.0
_cell_angle_beta                 90.0
_cell_angle_gamma                 120.0
loop_
_atom_site_label
_atom_site_type_symbol
_atom_site_fract_x
_atom_site_fract_y
_atom_site_fract_z
Er1     Er     0.0   0.4226   0.4373
Er2     Er     0.0   0.5774   0.5627
Er3     Er     0.0   0.4226   0.0627
Er4     Er     0.0   0.5774   0.9373
V5     V     0.3333   0.8214   0.9373
V6     V     0.1786   0.6667   0.0627
V7     V     0.1786   0.512   0.9373
V8     V     0.3333   0.512   0.0627
V9     V     0.488   0.6667   0.9373
V10     V     0.488   0.8214   0.0627
V11     V     0.3333   0.8214   0.5627
V12     V     0.1786   0.6667   0.4373
V13     V     0.1786   0.512   0.5627
V14     V     0.3333   0.512   0.4373
V15     V     0.488   0.6667   0.5627
V16     V     0.488   0.8214   0.4373
Er17     Er     0.4226   0.0   0.4373
Er18     Er     0.5774   0.0   0.5627
Er19     Er     0.4226   0.0   0.0627
Er20     Er     0.5774   0.0   0.9373
V21     V     0.512   0.1786   0.5627
V22     V     0.512   0.3333   0.4373
V23     V     0.8214   0.3333   0.5627
V24     V     0.6667   0.1786   0.4373
V25     V     0.8214   0.488   0.4373
V26     V     0.6667   0.488   0.5627
V27     V     0.8214   0.3333   0.9373
V28     V     0.6667   0.1786   0.0627
V29     V     0.512   0.1786   0.9373
V30     V     0.512   0.3333   0.0627
V31     V     0.8214   0.488   0.0627
V32     V     0.6667   0.488   0.9373
Er33     Er     0.4226   0.4226   0.5627
Er34     Er     0.5774   0.5774   0.4373
Er35     Er     0.4226   0.4226   0.9373
Er36     Er     0.5774   0.5774   0.0627
loop_
_geom_bond_atom_site_label_1
_geom_bond_atom_site_label_2
_geom_bond_distance
_geom_bond_site_symmetry_2
_ccdc_geom_bond_type
Er1     Er2    10.0   .     S
Er1     Er3    10.0   .     S
Er1     V13    10.0   .     S
Er1     V23    10.0   1_455     S
Er2     Er4    10.0   .     S
Er2     V25    10.0   1_455     S
Er2     V12    10.0   .     S
Er3     Er4    10.0   1_554     S
Er3     V7    10.0   1_554     S
Er3     V27    10.0   1_454     S
Er4     Er3    10.0   1_556     S
Er4     V31    10.0   1_456     S
Er4     V6    10.0   1_556     S
V5     V6    9.999   1_556     S
V5     V10    10.0   1_556     S
V5     V11    10.0   .     S
V5     Er19    10.0   1_566     S
V6     V5    9.999   1_554     S
V6     V7    10.0   1_554     S
V6     V12    10.0   .     S
V6     Er4    10.0   1_554     S
V7     V6    10.0   1_556     S
V7     V8    9.999   1_556     S
V7     V13    10.0   .     S
V7     Er3    10.0   1_556     S
V8     V7    9.999   1_554     S
V8     V9    10.0   1_554     S
V8     V14    10.0   .     S
V8     Er35    10.0   1_554     S
V9     V10    9.999   1_556     S
V9     V8    10.0   1_556     S
V9     V15    10.0   .     S
V9     Er36    10.0   1_556     S
V10     V9    9.999   1_554     S
V10     V5    10.0   1_554     S
V10     V16    10.0   .     S
V10     Er20    10.0   1_564     S
V11     V12    9.999   .     S
V11     V16    10.0   .     S
V11     Er17    10.0   1_565     S
V12     V13    10.0   .     S
V13     V14    9.999   .     S
V14     V15    10.0   .     S
V14     Er33    10.0   .     S
V15     V16    9.999   .     S
V15     Er34    10.0   .     S
V16     Er18    10.0   1_565     S
Er17     Er18    10.0   .     S
Er17     Er19    10.0   .     S
Er17     V11    10.0   1_545     S
Er17     V21    10.0   .     S
Er18     Er20    10.0   .     S
Er18     V16    10.0   1_545     S
Er18     V24    10.0   .     S
Er19     Er20    10.0   1_554     S
Er19     V5    10.0   1_544     S
Er19     V29    10.0   1_554     S
Er20     Er19    10.0   1_556     S
Er20     V10    10.0   1_546     S
Er20     V28    10.0   1_556     S
V21     V22    9.999   .     S
V21     V24    10.0   .     S
V21     V29    10.0   .     S
V22     V26    10.0   .     S
V22     V30    10.0   .     S
V22     Er33    10.0   .     S
V23     V24    9.999   .     S
V23     V25    10.0   .     S
V23     V27    10.0   .     S
V23     Er1    10.0   1_655     S
V24     V28    10.0   .     S
V25     Er2    10.0   1_655     S
V25     V26    9.999   .     S
V25     V31    10.0   .     S
V26     V32    10.0   .     S
V26     Er34    10.0   .     S
V27     V28    9.999   1_556     S
V27     V31    10.0   1_556     S
V27     Er3    10.0   1_656     S
V28     Er20    10.0   1_554     S
V28     V27    9.999   1_554     S
V28     V29    10.0   1_554     S
V29     V30    9.999   1_556     S
V29     V28    10.0   1_556     S
V29     Er19    10.0   1_556     S
V30     V29    9.999   1_554     S
V30     V32    10.0   1_554     S
V30     Er35    10.0   1_554     S
V31     Er4    10.0   1_654     S
V31     V27    10.0   1_554     S
V31     V32    9.999   1_554     S
V32     V31    9.999   1_556     S
V32     V30    10.0   1_556     S
V32     Er36    10.0   1_556     S
Er33     Er34    10.0   .     S
Er33     Er35    10.0   .     S
Er34     Er36    10.0   .     S
Er35     V8    10.0   1_556     S
Er35     Er36    10.0   1_556     S
Er35     V30    10.0   1_556     S
Er36     V32    10.0   1_554     S
Er36     Er35    10.0   1_554     S
Er36     V9    10.0   1_554     S
