data_vmb
_audit_creation_date              2019-12-31
_audit_creation_method            'Pymatgen'
_symmetry_space_group_name_H-M    'P1'
_symmetry_Int_Tables_number       1
loop_
_symmetry_equiv_pos_as_xyz
  x,y,z
_cell_length_a                    20.6747
_cell_length_b                    27.6175
_cell_length_c                    36.2338
_cell_angle_alpha                 90.0
_cell_angle_beta                 114.8411
_cell_angle_gamma                 90.0
loop_
_atom_site_label
_atom_site_type_symbol
_atom_site_fract_x
_atom_site_fract_y
_atom_site_fract_z
V1     V     0.2381   0.4233   0.2866
V2     V     0.2381   0.4233   0.7866
V3     V     0.7619   0.5767   0.2134
V4     V     0.7619   0.5767   0.7134
V5     V     0.2381   0.5767   0.0366
V6     V     0.2381   0.5767   0.5366
V7     V     0.7619   0.4233   0.4634
V8     V     0.7619   0.4233   0.9634
V9     V     0.7381   0.0767   0.0366
V10     V     0.7381   0.0767   0.5366
V11     V     0.2619   0.9233   0.4634
V12     V     0.2619   0.9233   0.9634
V13     V     0.2619   0.0767   0.2134
V14     V     0.2619   0.0767   0.7134
V15     V     0.7381   0.9233   0.2866
V16     V     0.7381   0.9233   0.7866
loop_
_geom_bond_atom_site_label_1
_geom_bond_atom_site_label_2
_geom_bond_distance
_geom_bond_site_symmetry_2
_ccdc_geom_bond_type
V1     V3    10.0   1_455     S
V1     V5    10.0   .     S
V1     V6    10.0   .     S
V1     V7    10.0   .     S
V1     V13    10.0   .     S
V2     V4    10.0   1_455     S
V2     V6    10.0   .     S
V2     V5    10.0   1_556     S
V2     V8    10.0   .     S
V2     V14    10.0   .     S
V3     V1    10.0   1_655     S
V3     V8    10.0   1_554     S
V3     V7    10.0   .     S
V3     V5    10.0   .     S
V3     V15    10.0   .     S
V4     V2    10.0   1_655     S
V4     V7    10.0   .     S
V4     V8    10.0   .     S
V4     V6    10.0   .     S
V4     V16    10.0   .     S
V5     V8    10.0   1_454     S
V5     V2    10.0   1_554     S
V5     V12    10.0   1_554     S
V6     V7    10.0   1_455     S
V6     V11    10.0   .     S
V7     V6    10.0   1_655     S
V7     V10    10.0   .     S
V8     V5    10.0   1_656     S
V8     V3    10.0   1_556     S
V8     V9    10.0   1_556     S
V9     V8    10.0   1_554     S
V9     V12    10.0   1_544     S
V9     V15    10.0   1_545     S
V9     V16    10.0   1_544     S
V9     V13    10.0   1_655     S
V10     V11    10.0   1_545     S
V10     V16    10.0   1_545     S
V10     V15    10.0   1_545     S
V10     V14    10.0   1_655     S
V11     V10    10.0   1_565     S
V11     V14    10.0   1_565     S
V11     V13    10.0   1_565     S
V11     V15    10.0   1_455     S
V12     V5    10.0   1_556     S
V12     V9    10.0   1_566     S
V12     V13    10.0   1_566     S
V12     V14    10.0   1_565     S
V12     V16    10.0   1_455     S
V13     V15    10.0   1_545     S
V13     V12    10.0   1_544     S
V13     V11    10.0   1_545     S
V13     V9    10.0   1_455     S
V14     V16    10.0   1_545     S
V14     V11    10.0   1_545     S
V14     V12    10.0   1_545     S
V14     V10    10.0   1_455     S
V15     V13    10.0   1_565     S
V15     V9    10.0   1_565     S
V15     V10    10.0   1_565     S
V15     V11    10.0   1_655     S
V16     V14    10.0   1_565     S
V16     V10    10.0   1_565     S
V16     V9    10.0   1_566     S
V16     V12    10.0   1_655     S
