data_vmj
_audit_creation_date              2020-02-02
_audit_creation_method            'Pymatgen'
_symmetry_space_group_name_H-M    'P1'
_symmetry_Int_Tables_number       1
loop_
_symmetry_equiv_pos_as_xyz
  x,y,z
_cell_length_a                    29.1767
_cell_length_b                    16.6822
_cell_length_c                    19.502
_cell_angle_alpha                 90.0
_cell_angle_beta                 102.8702
_cell_angle_gamma                 90.0
loop_
_atom_site_label
_atom_site_type_symbol
_atom_site_fract_x
_atom_site_fract_y
_atom_site_fract_z
V1     V     0.4214   0.8165   0.8066
V2     V     0.5786   0.1835   0.1934
V3     V     0.4214   0.6835   0.3066
V4     V     0.5786   0.3165   0.6934
V5     V     0.0786   0.6835   0.6934
V6     V     0.9214   0.3165   0.3066
V7     V     0.0786   0.8165   0.1934
V8     V     0.9214   0.1835   0.8066
loop_
_geom_bond_atom_site_label_1
_geom_bond_atom_site_label_2
_geom_bond_distance
_geom_bond_site_symmetry_2
_ccdc_geom_bond_type
V1     V3    10.0   1_556     S
V1     V3    10.0   .     S
V1     V4    10.0   .     S
V1     V4    10.0   1_565     S
V1     V2    10.0   1_566     S
V1     V5    10.0   .     S
V2     V3    10.0   1_545     S
V2     V4    10.0   1_554     S
V2     V1    10.0   1_544     S
V2     V4    10.0   .     S
V2     V3    10.0   .     S
V2     V6    10.0   .     S
V3     V1    10.0   1_554     S
V3     V2    10.0   1_565     S
V3     V4    10.0   .     S
V3     V7    10.0   .     S
V4     V2    10.0   1_556     S
V4     V1    10.0   1_545     S
V4     V8    10.0   .     S
V5     V7    10.0   1_556     S
V5     V8    10.0   1_465     S
V5     V7    10.0   .     S
V5     V6    10.0   1_455     S
V5     V8    10.0   1_455     S
V6     V7    10.0   1_655     S
V6     V5    10.0   1_655     S
V6     V8    10.0   .     S
V6     V8    10.0   1_554     S
V6     V7    10.0   1_645     S
V7     V5    10.0   1_554     S
V7     V6    10.0   1_455     S
V7     V6    10.0   1_465     S
V7     V8    10.0   1_464     S
V8     V5    10.0   1_645     S
V8     V5    10.0   1_655     S
V8     V6    10.0   1_556     S
V8     V7    10.0   1_646     S
