data_vmk
_audit_creation_date              2020-02-02
_audit_creation_method            'Pymatgen'
_symmetry_space_group_name_H-M    'P1'
_symmetry_Int_Tables_number       1
loop_
_symmetry_equiv_pos_as_xyz
  x,y,z
_cell_length_a                    24.5091
_cell_length_b                    22.9762
_cell_length_c                    14.6592
_cell_angle_alpha                 90.0
_cell_angle_beta                 92.3768
_cell_angle_gamma                 90.0
loop_
_atom_site_label
_atom_site_type_symbol
_atom_site_fract_x
_atom_site_fract_y
_atom_site_fract_z
V1     V     0.8993   0.102   0.243
V2     V     0.1007   0.898   0.757
V3     V     0.3993   0.898   0.243
V4     V     0.6007   0.102   0.757
V5     V     0.3993   0.602   0.743
V6     V     0.6007   0.398   0.257
V7     V     0.1007   0.602   0.257
V8     V     0.8993   0.398   0.743
loop_
_geom_bond_atom_site_label_1
_geom_bond_atom_site_label_2
_geom_bond_distance
_geom_bond_site_symmetry_2
_ccdc_geom_bond_type
V1     V6    10.0   .     S
V1     V8    10.0   .     S
V1     V8    10.0   1_554     S
V1     V2    10.0   1_645     S
V1     V4    10.0   1_554     S
V1     V2    10.0   1_644     S
V2     V5    10.0   .     S
V2     V7    10.0   .     S
V2     V1    10.0   1_465     S
V2     V3    10.0   1_556     S
V2     V1    10.0   1_466     S
V2     V7    10.0   1_556     S
V3     V5    10.0   1_554     S
V3     V4    10.0   1_565     S
V3     V2    10.0   1_554     S
V3     V4    10.0   1_564     S
V3     V7    10.0   .     S
V3     V5    10.0   .     S
V4     V6    10.0   1_556     S
V4     V8    10.0   .     S
V4     V6    10.0   .     S
V4     V3    10.0   1_545     S
V4     V1    10.0   1_556     S
V4     V3    10.0   1_546     S
V5     V3    10.0   1_556     S
V5     V6    10.0   1_556     S
V5     V7    10.0   .     S
V5     V6    10.0   .     S
V6     V4    10.0   1_554     S
V6     V5    10.0   1_554     S
V6     V8    10.0   .     S
V7     V2    10.0   1_554     S
V7     V8    10.0   1_454     S
V7     V8    10.0   1_455     S
V8     V1    10.0   1_556     S
V8     V7    10.0   1_656     S
V8     V7    10.0   1_655     S
