data_vmr
_audit_creation_date              2020-02-02
_audit_creation_method            'Pymatgen'
_symmetry_space_group_name_H-M    'P1'
_symmetry_Int_Tables_number       1
loop_
_symmetry_equiv_pos_as_xyz
  x,y,z
_cell_length_a                    13.9157
_cell_length_b                    13.9211
_cell_length_c                    19.4074
_cell_angle_alpha                 90.0
_cell_angle_beta                 104.1556
_cell_angle_gamma                 90.0
loop_
_atom_site_label
_atom_site_type_symbol
_atom_site_fract_x
_atom_site_fract_y
_atom_site_fract_z
V1     V     0.234   0.1632   0.7029
V2     V     0.766   0.6632   0.7971
V3     V     0.766   0.8368   0.2971
V4     V     0.234   0.3368   0.2029
loop_
_geom_bond_atom_site_label_1
_geom_bond_atom_site_label_2
_geom_bond_distance
_geom_bond_site_symmetry_2
_ccdc_geom_bond_type
V1     V3    10.0   1_445     S
V1     V4    10.0   .     S
V1     V2    10.0   1_545     S
V1     V2    10.0   .     S
V1     V2    10.0   1_445     S
V1     V2    10.0   1_455     S
V1     V4    10.0   1_556     S
V2     V3    10.0   .     S
V2     V1    10.0   1_565     S
V2     V1    10.0   1_665     S
V2     V1    10.0   1_655     S
V2     V4    10.0   1_656     S
V2     V3    10.0   1_556     S
V3     V1    10.0   1_665     S
V3     V4    10.0   .     S
V3     V4    10.0   1_565     S
V3     V4    10.0   1_665     S
V3     V4    10.0   1_655     S
V3     V2    10.0   1_554     S
V4     V3    10.0   1_545     S
V4     V3    10.0   1_445     S
V4     V3    10.0   1_455     S
V4     V2    10.0   1_454     S
V4     V1    10.0   1_554     S
