data_vnc
_audit_creation_date              2020-02-02
_audit_creation_method            'Pymatgen'
_symmetry_space_group_name_H-M    'P1'
_symmetry_Int_Tables_number       1
loop_
_symmetry_equiv_pos_as_xyz
  x,y,z
_cell_length_a                    32.2509
_cell_length_b                    20.0
_cell_length_c                    19.8194
_cell_angle_alpha                 90.0
_cell_angle_beta                 92.405
_cell_angle_gamma                 90.0
loop_
_atom_site_label
_atom_site_type_symbol
_atom_site_fract_x
_atom_site_fract_y
_atom_site_fract_z
V1     V     0.866   0.2835   0.8681
V2     V     0.866   0.7835   0.8681
V3     V     0.134   0.2835   0.6319
V4     V     0.134   0.7835   0.6319
V5     V     0.134   0.2165   0.1319
V6     V     0.134   0.7165   0.1319
V7     V     0.866   0.2165   0.3681
V8     V     0.866   0.7165   0.3681
V9     V     0.366   0.4665   0.3681
V10     V     0.366   0.9665   0.3681
V11     V     0.634   0.4665   0.1319
V12     V     0.634   0.9665   0.1319
V13     V     0.366   0.0335   0.8681
V14     V     0.366   0.5335   0.8681
V15     V     0.634   0.0335   0.6319
V16     V     0.634   0.5335   0.6319
loop_
_geom_bond_atom_site_label_1
_geom_bond_atom_site_label_2
_geom_bond_distance
_geom_bond_site_symmetry_2
_ccdc_geom_bond_type
V1     V16    10.0   .     S
V1     V15    10.0   .     S
V1     V3    10.0   1_655     S
V1     V7    10.0   .     S
V1     V5    10.0   1_656     S
V1     V7    10.0   1_556     S
V1     V2    10.0   1_545     S
V1     V2    10.0   .     S
V1     V11    10.0   1_556     S
V2     V15    10.0   1_565     S
V2     V16    10.0   .     S
V2     V4    10.0   1_655     S
V2     V8    10.0   .     S
V2     V6    10.0   1_656     S
V2     V8    10.0   1_556     S
V2     V1    10.0   1_565     S
V2     V12    10.0   1_556     S
V3     V14    10.0   .     S
V3     V13    10.0   .     S
V3     V1    10.0   1_455     S
V3     V5    10.0   .     S
V3     V7    10.0   1_455     S
V3     V5    10.0   1_556     S
V3     V4    10.0   1_545     S
V3     V4    10.0   .     S
V3     V9    10.0   .     S
V4     V13    10.0   1_565     S
V4     V14    10.0   .     S
V4     V2    10.0   1_455     S
V4     V6    10.0   .     S
V4     V8    10.0   1_455     S
V4     V6    10.0   1_556     S
V4     V3    10.0   1_565     S
V4     V10    10.0   .     S
V5     V10    10.0   1_545     S
V5     V9    10.0   .     S
V5     V3    10.0   1_554     S
V5     V1    10.0   1_454     S
V5     V7    10.0   1_455     S
V5     V6    10.0   .     S
V5     V6    10.0   1_545     S
V5     V13    10.0   1_554     S
V6     V9    10.0   .     S
V6     V10    10.0   .     S
V6     V4    10.0   1_554     S
V6     V2    10.0   1_454     S
V6     V8    10.0   1_455     S
V6     V5    10.0   1_565     S
V6     V14    10.0   1_554     S
V7     V3    10.0   1_655     S
V7     V1    10.0   1_554     S
V7     V5    10.0   1_655     S
V7     V8    10.0   .     S
V7     V8    10.0   1_545     S
V7     V15    10.0   .     S
V7     V12    10.0   1_545     S
V7     V11    10.0   .     S
V8     V4    10.0   1_655     S
V8     V2    10.0   1_554     S
V8     V6    10.0   1_655     S
V8     V7    10.0   1_565     S
V8     V16    10.0   .     S
V8     V11    10.0   .     S
V8     V12    10.0   .     S
V9     V11    10.0   .     S
V9     V14    10.0   1_554     S
V9     V14    10.0   .     S
V9     V16    10.0   .     S
V9     V10    10.0   1_545     S
V9     V10    10.0   .     S
V10     V5    10.0   1_565     S
V10     V12    10.0   .     S
V10     V13    10.0   1_564     S
V10     V13    10.0   1_565     S
V10     V15    10.0   1_565     S
V10     V9    10.0   1_565     S
V11     V14    10.0   1_554     S
V11     V16    10.0   1_554     S
V11     V16    10.0   .     S
V11     V12    10.0   1_545     S
V11     V12    10.0   .     S
V11     V1    10.0   1_554     S
V12     V13    10.0   1_564     S
V12     V15    10.0   1_564     S
V12     V15    10.0   1_565     S
V12     V11    10.0   1_565     S
V12     V7    10.0   1_565     S
V12     V2    10.0   1_554     S
V13     V4    10.0   1_545     S
V13     V10    10.0   1_546     S
V13     V12    10.0   1_546     S
V13     V15    10.0   .     S
V13     V10    10.0   1_545     S
V13     V14    10.0   .     S
V13     V14    10.0   1_545     S
V13     V5    10.0   1_556     S
V14     V9    10.0   1_556     S
V14     V11    10.0   1_556     S
V14     V16    10.0   .     S
V14     V13    10.0   1_565     S
V14     V6    10.0   1_556     S
V15     V2    10.0   1_545     S
V15     V12    10.0   1_546     S
V15     V10    10.0   1_545     S
V15     V12    10.0   1_545     S
V15     V16    10.0   .     S
V15     V16    10.0   1_545     S
V16     V11    10.0   1_556     S
V16     V15    10.0   1_565     S
