data_vnd
_audit_creation_date              2020-02-02
_audit_creation_method            'Pymatgen'
_symmetry_space_group_name_H-M    'P1'
_symmetry_Int_Tables_number       1
loop_
_symmetry_equiv_pos_as_xyz
  x,y,z
_cell_length_a                    32.2278
_cell_length_b                    20.0
_cell_length_c                    19.8252
_cell_angle_alpha                 90.0
_cell_angle_beta                 91.7411
_cell_angle_gamma                 90.0
loop_
_atom_site_label
_atom_site_type_symbol
_atom_site_fract_x
_atom_site_fract_y
_atom_site_fract_z
V1     V     0.116   0.342   0.8662
V2     V     0.116   0.842   0.8662
V3     V     0.884   0.158   0.1338
V4     V     0.884   0.658   0.1338
V5     V     0.116   0.408   0.3662
V6     V     0.116   0.908   0.3662
V7     V     0.884   0.092   0.6338
V8     V     0.884   0.592   0.6338
V9     V     0.384   0.342   0.1338
V10     V     0.384   0.842   0.1338
V11     V     0.616   0.158   0.8662
V12     V     0.616   0.658   0.8662
V13     V     0.384   0.408   0.6338
V14     V     0.384   0.908   0.6338
V15     V     0.616   0.092   0.3662
V16     V     0.616   0.592   0.3662
loop_
_geom_bond_atom_site_label_1
_geom_bond_atom_site_label_2
_geom_bond_distance
_geom_bond_site_symmetry_2
_ccdc_geom_bond_type
V1     V9    10.0   1_556     S
V1     V13    10.0   .     S
V1     V5    10.0   .     S
V1     V8    10.0   1_455     S
V1     V7    10.0   1_455     S
V1     V3    10.0   1_456     S
V1     V5    10.0   1_556     S
V1     V2    10.0   1_545     S
V1     V2    10.0   .     S
V2     V10    10.0   1_556     S
V2     V14    10.0   .     S
V2     V6    10.0   .     S
V2     V7    10.0   1_465     S
V2     V8    10.0   1_455     S
V2     V4    10.0   1_456     S
V2     V6    10.0   1_556     S
V2     V1    10.0   1_565     S
V3     V7    10.0   .     S
V3     V6    10.0   1_645     S
V3     V7    10.0   1_554     S
V3     V1    10.0   1_654     S
V3     V5    10.0   1_655     S
V3     V4    10.0   .     S
V3     V4    10.0   1_545     S
V3     V15    10.0   .     S
V3     V11    10.0   1_554     S
V4     V8    10.0   .     S
V4     V5    10.0   1_655     S
V4     V8    10.0   1_554     S
V4     V2    10.0   1_654     S
V4     V6    10.0   1_655     S
V4     V3    10.0   1_565     S
V4     V16    10.0   .     S
V4     V12    10.0   1_554     S
V5     V9    10.0   .     S
V5     V13    10.0   .     S
V5     V4    10.0   1_455     S
V5     V1    10.0   1_554     S
V5     V3    10.0   1_455     S
V5     V8    10.0   1_455     S
V5     V6    10.0   1_545     S
V5     V6    10.0   .     S
V6     V10    10.0   .     S
V6     V14    10.0   .     S
V6     V3    10.0   1_465     S
V6     V2    10.0   1_554     S
V6     V4    10.0   1_455     S
V6     V7    10.0   1_465     S
V6     V5    10.0   1_565     S
V7     V2    10.0   1_645     S
V7     V3    10.0   1_556     S
V7     V1    10.0   1_655     S
V7     V6    10.0   1_645     S
V7     V8    10.0   .     S
V7     V8    10.0   1_545     S
V7     V11    10.0   .     S
V7     V15    10.0   .     S
V8     V1    10.0   1_655     S
V8     V4    10.0   1_556     S
V8     V2    10.0   1_655     S
V8     V5    10.0   1_655     S
V8     V7    10.0   1_565     S
V8     V12    10.0   .     S
V8     V16    10.0   .     S
V9     V1    10.0   1_554     S
V9     V13    10.0   .     S
V9     V16    10.0   .     S
V9     V13    10.0   1_554     S
V9     V11    10.0   1_554     S
V9     V15    10.0   .     S
V9     V10    10.0   1_545     S
V9     V10    10.0   .     S
V10     V2    10.0   1_554     S
V10     V14    10.0   .     S
V10     V15    10.0   1_565     S
V10     V14    10.0   1_554     S
V10     V12    10.0   1_554     S
V10     V16    10.0   .     S
V10     V9    10.0   1_565     S
V11     V3    10.0   1_556     S
V11     V15    10.0   .     S
V11     V14    10.0   1_545     S
V11     V13    10.0   .     S
V11     V9    10.0   1_556     S
V11     V15    10.0   1_556     S
V11     V12    10.0   .     S
V11     V12    10.0   1_545     S
V12     V4    10.0   1_556     S
V12     V16    10.0   .     S
V12     V13    10.0   .     S
V12     V14    10.0   .     S
V12     V10    10.0   1_556     S
V12     V16    10.0   1_556     S
V12     V11    10.0   1_565     S
V13     V9    10.0   1_556     S
V13     V16    10.0   .     S
V13     V14    10.0   1_545     S
V13     V14    10.0   .     S
V14     V11    10.0   1_565     S
V14     V10    10.0   1_556     S
V14     V15    10.0   1_565     S
V14     V13    10.0   1_565     S
V15     V10    10.0   1_545     S
V15     V11    10.0   1_554     S
V15     V14    10.0   1_545     S
V15     V16    10.0   .     S
V15     V16    10.0   1_545     S
V16     V12    10.0   1_554     S
V16     V15    10.0   1_565     S
