data_vng
_audit_creation_date              2020-02-02
_audit_creation_method            'Pymatgen'
_symmetry_space_group_name_H-M    'P1'
_symmetry_Int_Tables_number       1
loop_
_symmetry_equiv_pos_as_xyz
  x,y,z
_cell_length_a                    17.8085
_cell_length_b                    29.1796
_cell_length_c                    19.029
_cell_angle_alpha                 90.0
_cell_angle_beta                 106.4474
_cell_angle_gamma                 90.0
loop_
_atom_site_label
_atom_site_type_symbol
_atom_site_fract_x
_atom_site_fract_y
_atom_site_fract_z
V1     V     0.4111   0.6718   0.7259
V2     V     0.5889   0.6718   0.2741
V3     V     0.9111   0.8282   0.7259
V4     V     0.0889   0.8282   0.2741
V5     V     0.4111   0.3282   0.7259
V6     V     0.5889   0.3282   0.2741
V7     V     0.9111   0.1718   0.7259
V8     V     0.0889   0.1718   0.2741
loop_
_geom_bond_atom_site_label_1
_geom_bond_atom_site_label_2
_geom_bond_distance
_geom_bond_site_symmetry_2
_ccdc_geom_bond_type
V1     V2    9.969   .     S
V1     V4    9.988   .     S
V1     V3    10.006   .     S
V1     V3    10.006   1_455     S
V1     V2    10.006   1_556     S
V1     V5    10.024   .     S
V2     V3    9.988   .     S
V2     V4    10.006   1_655     S
V2     V4    10.006   .     S
V2     V1    10.006   1_554     S
V2     V6    10.024   .     S
V3     V4    9.969   1_655     S
V3     V1    10.006   1_655     S
V3     V4    10.006   1_656     S
V3     V7    10.024   1_565     S
V4     V3    9.969   1_455     S
V4     V2    10.006   1_455     S
V4     V3    10.006   1_454     S
V4     V8    10.024   1_565     S
V5     V6    9.969   .     S
V5     V8    9.988   .     S
V5     V7    10.006   .     S
V5     V7    10.006   1_455     S
V5     V6    10.006   1_556     S
V6     V7    9.988   .     S
V6     V8    10.006   1_655     S
V6     V8    10.006   .     S
V6     V5    10.006   1_554     S
V7     V8    9.969   1_655     S
V7     V5    10.006   1_655     S
V7     V8    10.006   1_656     S
V7     V3    10.024   1_545     S
V8     V7    9.969   1_455     S
V8     V6    10.006   1_455     S
V8     V7    10.006   1_454     S
V8     V4    10.024   1_545     S
