data_vnh
_audit_creation_date              2020-02-02
_audit_creation_method            'Pymatgen'
_symmetry_space_group_name_H-M    'P1'
_symmetry_Int_Tables_number       1
loop_
_symmetry_equiv_pos_as_xyz
  x,y,z
_cell_length_a                    27.0022
_cell_length_b                    16.7035
_cell_length_c                    19.2097
_cell_angle_alpha                 90.0
_cell_angle_beta                 99.777
_cell_angle_gamma                 90.0
loop_
_atom_site_label
_atom_site_type_symbol
_atom_site_fract_x
_atom_site_fract_y
_atom_site_fract_z
V1     V     0.1609   0.92   0.1541
V2     V     0.1609   0.0799   0.6541
V3     V     0.8391   0.0799   0.8459
V4     V     0.8391   0.92   0.3459
V5     V     0.3391   0.58   0.8459
V6     V     0.3391   0.42   0.3459
V7     V     0.6609   0.42   0.1541
V8     V     0.6609   0.58   0.6541
loop_
_geom_bond_atom_site_label_1
_geom_bond_atom_site_label_2
_geom_bond_distance
_geom_bond_site_symmetry_2
_ccdc_geom_bond_type
V1     V5    10.008   1_554     S
V1     V6    10.024   .     S
V1     V3    10.009   1_464     S
V1     V6    10.024   1_565     S
V1     V2    9.969   1_564     S
V1     V2    9.969   1_565     S
V1     V4    9.996   1_455     S
V2     V5    10.024   1_545     S
V2     V4    10.009   1_445     S
V2     V6    10.008   .     S
V2     V5    10.024   .     S
V2     V1    9.969   1_546     S
V2     V1    9.969   1_545     S
V2     V3    9.996   1_455     S
V3     V8    10.024   .     S
V3     V7    10.008   1_556     S
V3     V1    10.009   1_646     S
V3     V8    10.024   1_545     S
V3     V4    9.969   1_545     S
V3     V4    9.969   1_546     S
V3     V2    9.996   1_655     S
V4     V7    10.024   1_565     S
V4     V2    10.009   1_665     S
V4     V7    10.024   .     S
V4     V8    10.008   .     S
V4     V3    9.969   1_565     S
V4     V3    9.969   1_564     S
V4     V1    9.996   1_655     S
V5     V2    10.024   1_565     S
V5     V1    10.008   1_556     S
V5     V7    10.009   1_556     S
V5     V6    9.969   .     S
V5     V6    9.969   1_556     S
V5     V8    9.996   .     S
V6     V1    10.024   1_545     S
V6     V8    10.009   .     S
V6     V5    9.969   1_554     S
V6     V7    9.996   .     S
V7     V3    10.008   1_554     S
V7     V4    10.024   1_545     S
V7     V5    10.009   1_554     S
V7     V8    9.969   1_554     S
V7     V8    9.969   .     S
V8     V3    10.024   1_565     S
V8     V7    9.969   1_556     S
