data_walx
_audit_creation_date              2020-02-02
_audit_creation_method            'Pymatgen'
_symmetry_space_group_name_H-M    'P1'
_symmetry_Int_Tables_number       1
loop_
_symmetry_equiv_pos_as_xyz
  x,y,z
_cell_length_a                    26.6734
_cell_length_b                    26.6734
_cell_length_c                    26.6734
_cell_angle_alpha                 90.0
_cell_angle_beta                 90.0
_cell_angle_gamma                 90.0
loop_
_atom_site_label
_atom_site_type_symbol
_atom_site_fract_x
_atom_site_fract_y
_atom_site_fract_z
V1     V     0.6842   0.1935   0.5
V2     V     0.3158   0.1935   0.5
V3     V     0.6935   0.0   0.1842
V4     V     0.6935   0.0   0.8158
V5     V     0.3158   0.8065   0.5
V6     V     0.6842   0.8065   0.5
V7     V     0.3065   0.0   0.1842
V8     V     0.3065   0.0   0.8158
V9     V     0.1935   0.5   0.6842
V10     V     0.1935   0.5   0.3158
V11     V     0.0   0.1842   0.6935
V12     V     0.0   0.8158   0.6935
V13     V     0.8065   0.5   0.3158
V14     V     0.8065   0.5   0.6842
V15     V     0.0   0.1842   0.3065
V16     V     0.0   0.8158   0.3065
V17     V     0.5   0.3158   0.1935
V18     V     0.5   0.6842   0.1935
V19     V     0.1842   0.6935   0.0
V20     V     0.8158   0.6935   0.0
V21     V     0.5   0.3158   0.8065
V22     V     0.5   0.6842   0.8065
V23     V     0.1842   0.3065   0.0
V24     V     0.8158   0.3065   0.0
loop_
_geom_bond_atom_site_label_1
_geom_bond_atom_site_label_2
_geom_bond_distance
_geom_bond_site_symmetry_2
_ccdc_geom_bond_type
V1     V15    9.882   1_655     S
V1     V11    9.882   1_655     S
V1     V4    9.882   .     S
V1     V3    9.882   .     S
V1     V2    9.827   .     S
V1     V6    10.322   1_545     S
V1     V17    10.081   .     S
V1     V13    10.081   .     S
V1     V14    10.081   .     S
V1     V21    10.081   .     S
V2     V15    9.882   .     S
V2     V11    9.882   .     S
V2     V7    9.882   .     S
V2     V8    9.882   .     S
V2     V5    10.322   1_545     S
V2     V9    10.081   .     S
V2     V10    10.081   .     S
V2     V17    10.081   .     S
V2     V21    10.081   .     S
V3     V6    9.882   1_545     S
V3     V18    9.882   1_545     S
V3     V17    9.882   .     S
V3     V4    9.827   1_554     S
V3     V7    10.322   .     S
V3     V16    10.081   1_645     S
V3     V15    10.081   1_655     S
V3     V24    10.081   .     S
V3     V20    10.081   1_545     S
V4     V6    9.882   1_545     S
V4     V22    9.882   1_545     S
V4     V21    9.882   .     S
V4     V3    9.827   1_556     S
V4     V8    10.322   .     S
V4     V24    10.081   1_556     S
V4     V20    10.081   1_546     S
V4     V11    10.081   1_655     S
V4     V12    10.081   1_645     S
V5     V16    9.882   .     S
V5     V12    9.882   .     S
V5     V7    9.882   1_565     S
V5     V8    9.882   1_565     S
V5     V6    9.827   .     S
V5     V2    10.322   1_565     S
V5     V22    10.081   .     S
V5     V10    10.081   .     S
V5     V9    10.081   .     S
V5     V18    10.081   .     S
V6     V3    9.882   1_565     S
V6     V4    9.882   1_565     S
V6     V16    9.882   1_655     S
V6     V12    9.882   1_655     S
V6     V1    10.322   1_565     S
V6     V14    10.081   .     S
V6     V13    10.081   .     S
V6     V22    10.081   .     S
V6     V18    10.081   .     S
V7     V5    9.882   1_545     S
V7     V18    9.882   1_545     S
V7     V17    9.882   .     S
V7     V8    9.827   1_554     S
V7     V23    10.081   .     S
V7     V15    10.081   .     S
V7     V16    10.081   1_545     S
V7     V19    10.081   1_545     S
V8     V5    9.882   1_545     S
V8     V22    9.882   1_545     S
V8     V21    9.882   .     S
V8     V7    9.827   1_556     S
V8     V23    10.081   1_556     S
V8     V19    10.081   1_546     S
V8     V12    10.081   1_545     S
V8     V11    10.081   .     S
V9     V23    9.882   1_556     S
V9     V19    9.882   1_556     S
V9     V12    9.882   .     S
V9     V11    9.882   .     S
V9     V10    9.827   .     S
V9     V14    10.322   1_455     S
V9     V21    10.081   .     S
V9     V22    10.081   .     S
V10     V23    9.882   .     S
V10     V19    9.882   .     S
V10     V15    9.882   .     S
V10     V16    9.882   .     S
V10     V13    10.322   1_455     S
V10     V18    10.081   .     S
V10     V17    10.081   .     S
V11     V1    9.882   1_455     S
V11     V14    9.882   1_455     S
V11     V12    9.827   1_545     S
V11     V15    10.322   .     S
V11     V24    10.081   1_456     S
V11     V23    10.081   1_556     S
V11     V4    10.081   1_455     S
V12     V6    9.882   1_455     S
V12     V14    9.882   1_455     S
V12     V11    9.827   1_565     S
V12     V16    10.322   .     S
V12     V8    10.081   1_565     S
V12     V4    10.081   1_465     S
V12     V19    10.081   1_556     S
V12     V20    10.081   1_456     S
V13     V24    9.882   .     S
V13     V20    9.882   .     S
V13     V15    9.882   1_655     S
V13     V16    9.882   1_655     S
V13     V14    9.827   .     S
V13     V10    10.322   1_655     S
V13     V17    10.081   .     S
V13     V18    10.081   .     S
V14     V11    9.882   1_655     S
V14     V12    9.882   1_655     S
V14     V24    9.882   1_556     S
V14     V20    9.882   1_556     S
V14     V9    10.322   1_655     S
V14     V22    10.081   .     S
V14     V21    10.081   .     S
V15     V1    9.882   1_455     S
V15     V13    9.882   1_455     S
V15     V16    9.827   1_545     S
V15     V23    10.081   .     S
V15     V24    10.081   1_455     S
V15     V3    10.081   1_455     S
V16     V6    9.882   1_455     S
V16     V13    9.882   1_455     S
V16     V15    9.827   1_565     S
V16     V7    10.081   1_565     S
V16     V3    10.081   1_465     S
V16     V20    10.081   1_455     S
V16     V19    10.081   .     S
V17     V23    9.882   .     S
V17     V24    9.882   .     S
V17     V18    9.827   .     S
V17     V21    10.322   1_554     S
V18     V7    9.882   1_565     S
V18     V3    9.882   1_565     S
V18     V20    9.882   .     S
V18     V19    9.882   .     S
V18     V22    10.322   1_554     S
V19     V9    9.882   1_554     S
V19     V22    9.882   1_554     S
V19     V20    9.827   1_455     S
V19     V23    10.322   .     S
V19     V8    10.081   1_564     S
V19     V7    10.081   1_565     S
V19     V12    10.081   1_554     S
V20     V14    9.882   1_554     S
V20     V22    9.882   1_554     S
V20     V19    9.827   1_655     S
V20     V24    10.322   .     S
V20     V16    10.081   1_655     S
V20     V3    10.081   1_565     S
V20     V4    10.081   1_564     S
V20     V12    10.081   1_654     S
V21     V23    9.882   1_556     S
V21     V24    9.882   1_556     S
V21     V22    9.827   .     S
V21     V17    10.322   1_556     S
V22     V19    9.882   1_556     S
V22     V20    9.882   1_556     S
V22     V8    9.882   1_565     S
V22     V4    9.882   1_565     S
V22     V18    10.322   1_556     S
V23     V9    9.882   1_554     S
V23     V21    9.882   1_554     S
V23     V24    9.827   1_455     S
V23     V8    10.081   1_554     S
V23     V11    10.081   1_554     S
V24     V14    9.882   1_554     S
V24     V21    9.882   1_554     S
V24     V23    9.827   1_655     S
V24     V15    10.081   1_655     S
V24     V11    10.081   1_654     S
V24     V4    10.081   1_554     S
