data_wbl
_audit_creation_date              2020-02-02
_audit_creation_method            'Pymatgen'
_symmetry_space_group_name_H-M    'P1'
_symmetry_Int_Tables_number       1
loop_
_symmetry_equiv_pos_as_xyz
  x,y,z
_cell_length_a                    24.4928
_cell_length_b                    24.4928
_cell_length_c                    48.9982
_cell_angle_alpha                 90.0
_cell_angle_beta                 90.0
_cell_angle_gamma                 90.0
loop_
_atom_site_label
_atom_site_type_symbol
_atom_site_fract_x
_atom_site_fract_y
_atom_site_fract_z
Er1     Er     0.8337   0.3337   0.75
Er2     Er     0.1663   0.6663   0.75
V3     V     0.0   0.0   0.6668
V4     V     0.5   0.5   0.8332
V5     V     0.0   0.5   0.5832
Er6     Er     0.1663   0.8337   0.5
V7     V     0.5   0.0   0.4168
Er8     Er     0.8337   0.1663   0.5
Er9     Er     0.6663   0.1663   0.25
Er10     Er     0.3337   0.8337   0.25
V11     V     0.0   0.0   0.3332
V12     V     0.5   0.5   0.1668
Er13     Er     0.6663   0.3337   0.0
V14     V     0.0   0.5   0.9168
V15     V     0.5   0.0   0.0832
Er16     Er     0.3337   0.6663   0.0
loop_
_geom_bond_atom_site_label_1
_geom_bond_atom_site_label_2
_geom_bond_distance
_geom_bond_site_symmetry_2
_ccdc_geom_bond_type
Er1     V4    10.0   .     S
Er1     V3    10.0   1_655     S
Er1     V5    10.0   1_655     S
Er1     V14    10.0   1_655     S
Er2     V4    10.0   .     S
Er2     V3    10.0   1_565     S
Er2     V5    10.0   .     S
Er2     V14    10.0   .     S
V3     Er1    10.0   1_455     S
V3     Er2    10.0   1_545     S
V3     Er8    10.0   1_455     S
V3     Er6    10.0   1_545     S
V4     Er16    10.0   1_556     S
V4     Er13    10.0   1_556     S
V5     Er8    10.0   1_455     S
V5     Er6    10.0   .     S
V5     Er1    10.0   1_455     S
Er6     V3    10.0   1_565     S
Er6     V7    10.0   1_565     S
Er6     V11    10.0   1_565     S
V7     Er8    10.0   .     S
V7     Er6    10.0   1_545     S
V7     Er10    10.0   1_545     S
V7     Er9    10.0   .     S
Er8     V3    10.0   1_655     S
Er8     V5    10.0   1_655     S
Er8     V11    10.0   1_655     S
Er9     V12    10.0   .     S
Er9     V11    10.0   1_655     S
Er9     V15    10.0   .     S
Er10     V12    10.0   .     S
Er10     V11    10.0   1_565     S
Er10     V7    10.0   1_565     S
Er10     V15    10.0   1_565     S
V11     Er6    10.0   1_545     S
V11     Er9    10.0   1_455     S
V11     Er10    10.0   1_545     S
V11     Er8    10.0   1_455     S
V12     Er16    10.0   .     S
V12     Er13    10.0   .     S
Er13     V4    10.0   1_554     S
Er13     V15    10.0   .     S
Er13     V14    10.0   1_654     S
V14     Er13    10.0   1_456     S
V14     Er16    10.0   1_556     S
V14     Er1    10.0   1_455     S
V15     Er16    10.0   1_545     S
V15     Er10    10.0   1_545     S
Er16     V4    10.0   1_554     S
Er16     V15    10.0   1_565     S
Er16     V14    10.0   1_554     S
