data_wfj
_audit_creation_date              2020-02-02
_audit_creation_method            'Pymatgen'
_symmetry_space_group_name_H-M    'P1'
_symmetry_Int_Tables_number       1
loop_
_symmetry_equiv_pos_as_xyz
  x,y,z
_cell_length_a                    36.7424
_cell_length_b                    36.7424
_cell_length_c                    20.0
_cell_angle_alpha                 90.0
_cell_angle_beta                 90.0
_cell_angle_gamma                 90.0
loop_
_atom_site_label
_atom_site_type_symbol
_atom_site_fract_x
_atom_site_fract_y
_atom_site_fract_z
V1     V     0.8333   0.1667   0.25
V2     V     0.8333   0.1667   0.75
V3     V     0.6667   0.3333   0.0
V4     V     0.6667   0.3333   0.5
V5     V     0.1667   0.8333   0.25
V6     V     0.1667   0.8333   0.75
V7     V     0.3333   0.6667   0.0
V8     V     0.3333   0.6667   0.5
V9     V     0.9167   0.9167   0.125
V10     V     0.9167   0.9167   0.625
V11     V     0.0833   0.0833   0.375
V12     V     0.0833   0.0833   0.875
V13     V     0.4167   0.4167   0.375
V14     V     0.4167   0.4167   0.875
V15     V     0.5833   0.5833   0.125
V16     V     0.5833   0.5833   0.625
V17     V     0.0833   0.5833   0.125
V18     V     0.0833   0.5833   0.625
V19     V     0.9167   0.4167   0.375
V20     V     0.9167   0.4167   0.875
V21     V     0.6667   0.8333   0.0
V22     V     0.6667   0.8333   0.5
V23     V     0.8333   0.6667   0.25
V24     V     0.8333   0.6667   0.75
V25     V     0.5833   0.0833   0.375
V26     V     0.5833   0.0833   0.875
V27     V     0.4167   0.9167   0.125
V28     V     0.4167   0.9167   0.625
V29     V     0.1667   0.3333   0.25
V30     V     0.1667   0.3333   0.75
V31     V     0.3333   0.1667   0.0
V32     V     0.3333   0.1667   0.5
loop_
_geom_bond_atom_site_label_1
_geom_bond_atom_site_label_2
_geom_bond_distance
_geom_bond_site_symmetry_2
_ccdc_geom_bond_type
V1     V25    10.0   .     S
V1     V3    10.0   .     S
V1     V2    10.0   1_554     S
V1     V2    10.0   .     S
V1     V4    10.0   .     S
V1     V11    10.0   1_655     S
V1     V9    10.0   1_545     S
V1     V19    10.0   .     S
V2     V26    10.0   .     S
V2     V4    10.0   .     S
V2     V1    10.0   1_556     S
V2     V3    10.0   1_556     S
V2     V12    10.0   1_655     S
V2     V10    10.0   1_545     S
V2     V20    10.0   .     S
V3     V26    10.0   1_554     S
V3     V2    10.0   1_554     S
V3     V4    10.0   .     S
V3     V4    10.0   1_554     S
V3     V14    10.0   1_554     S
V3     V15    10.0   .     S
V3     V20    10.0   1_554     S
V4     V25    10.0   .     S
V4     V3    10.0   1_556     S
V4     V13    10.0   .     S
V4     V16    10.0   .     S
V4     V19    10.0   .     S
V5     V7    10.0   .     S
V5     V6    10.0   1_554     S
V5     V6    10.0   .     S
V5     V8    10.0   .     S
V5     V9    10.0   1_455     S
V5     V11    10.0   1_565     S
V5     V27    10.0   .     S
V5     V17    10.0   .     S
V6     V8    10.0   .     S
V6     V5    10.0   1_556     S
V6     V7    10.0   1_556     S
V6     V10    10.0   1_455     S
V6     V12    10.0   1_565     S
V6     V28    10.0   .     S
V6     V18    10.0   .     S
V7     V6    10.0   1_554     S
V7     V8    10.0   .     S
V7     V8    10.0   1_554     S
V7     V27    10.0   .     S
V7     V17    10.0   .     S
V7     V15    10.0   .     S
V7     V14    10.0   1_554     S
V8     V7    10.0   1_556     S
V8     V28    10.0   .     S
V8     V18    10.0   .     S
V8     V16    10.0   .     S
V8     V13    10.0   .     S
V9     V23    10.0   .     S
V9     V21    10.0   .     S
V9     V1    10.0   1_565     S
V9     V5    10.0   1_655     S
V9     V12    10.0   1_664     S
V9     V10    10.0   .     S
V9     V10    10.0   1_554     S
V9     V11    10.0   1_665     S
V10     V24    10.0   .     S
V10     V22    10.0   .     S
V10     V2    10.0   1_565     S
V10     V6    10.0   1_655     S
V10     V11    10.0   1_665     S
V10     V9    10.0   1_556     S
V10     V12    10.0   1_665     S
V11     V29    10.0   .     S
V11     V32    10.0   .     S
V11     V1    10.0   1_455     S
V11     V5    10.0   1_545     S
V11     V10    10.0   1_445     S
V11     V9    10.0   1_445     S
V11     V12    10.0   1_554     S
V11     V12    10.0   .     S
V12     V30    10.0   .     S
V12     V31    10.0   1_556     S
V12     V2    10.0   1_455     S
V12     V6    10.0   1_545     S
V12     V9    10.0   1_446     S
V12     V10    10.0   1_445     S
V12     V11    10.0   1_556     S
V13     V32    10.0   .     S
V13     V29    10.0   .     S
V13     V15    10.0   .     S
V13     V14    10.0   1_554     S
V13     V14    10.0   .     S
V13     V16    10.0   .     S
V14     V31    10.0   1_556     S
V14     V30    10.0   .     S
V14     V7    10.0   1_556     S
V14     V16    10.0   .     S
V14     V13    10.0   1_556     S
V14     V15    10.0   1_556     S
V14     V3    10.0   1_556     S
V15     V14    10.0   1_554     S
V15     V16    10.0   .     S
V15     V16    10.0   1_554     S
V15     V21    10.0   .     S
V15     V23    10.0   .     S
V16     V15    10.0   1_556     S
V16     V22    10.0   .     S
V16     V24    10.0   .     S
V17     V29    10.0   .     S
V17     V20    10.0   1_454     S
V17     V18    10.0   .     S
V17     V18    10.0   1_554     S
V17     V19    10.0   1_455     S
V17     V23    10.0   1_455     S
V18     V30    10.0   .     S
V18     V19    10.0   1_455     S
V18     V17    10.0   1_556     S
V18     V20    10.0   1_455     S
V18     V24    10.0   1_455     S
V19     V29    10.0   1_655     S
V19     V18    10.0   1_655     S
V19     V20    10.0   1_554     S
V19     V20    10.0   .     S
V19     V17    10.0   1_655     S
V19     V23    10.0   .     S
V20     V3    10.0   1_556     S
V20     V30    10.0   1_655     S
V20     V17    10.0   1_656     S
V20     V19    10.0   1_556     S
V20     V18    10.0   1_655     S
V20     V24    10.0   .     S
V21     V24    10.0   1_554     S
V21     V22    10.0   .     S
V21     V22    10.0   1_554     S
V21     V23    10.0   .     S
V21     V27    10.0   .     S
V21     V26    10.0   1_564     S
V22     V23    10.0   .     S
V22     V21    10.0   1_556     S
V22     V24    10.0   .     S
V22     V28    10.0   .     S
V22     V25    10.0   1_565     S
V23     V17    10.0   1_655     S
V23     V24    10.0   1_554     S
V23     V24    10.0   .     S
V24     V18    10.0   1_655     S
V24     V21    10.0   1_556     S
V24     V23    10.0   1_556     S
V25     V22    10.0   1_545     S
V25     V27    10.0   1_545     S
V25     V26    10.0   1_554     S
V25     V26    10.0   .     S
V25     V28    10.0   1_545     S
V25     V32    10.0   .     S
V26     V3    10.0   1_556     S
V26     V21    10.0   1_546     S
V26     V28    10.0   1_545     S
V26     V25    10.0   1_556     S
V26     V27    10.0   1_546     S
V26     V31    10.0   1_556     S
V27     V25    10.0   1_565     S
V27     V26    10.0   1_564     S
V27     V28    10.0   .     S
V27     V28    10.0   1_554     S
V27     V31    10.0   1_565     S
V28     V26    10.0   1_565     S
V28     V25    10.0   1_565     S
V28     V27    10.0   1_556     S
V28     V32    10.0   1_565     S
V29     V19    10.0   1_455     S
V29     V31    10.0   .     S
V29     V30    10.0   1_554     S
V29     V30    10.0   .     S
V29     V32    10.0   .     S
V30     V20    10.0   1_455     S
V30     V32    10.0   .     S
V30     V29    10.0   1_556     S
V30     V31    10.0   1_556     S
V31     V12    10.0   1_554     S
V31     V14    10.0   1_554     S
V31     V26    10.0   1_554     S
V31     V27    10.0   1_545     S
V31     V32    10.0   .     S
V31     V32    10.0   1_554     S
V31     V30    10.0   1_554     S
V32     V28    10.0   1_545     S
V32     V31    10.0   1_556     S
