data_wfl
_audit_creation_date              2020-02-02
_audit_creation_method            'Pymatgen'
_symmetry_space_group_name_H-M    'P1'
_symmetry_Int_Tables_number       1
loop_
_symmetry_equiv_pos_as_xyz
  x,y,z
_cell_length_a                    23.128
_cell_length_b                    23.128
_cell_length_c                    22.5973
_cell_angle_alpha                 90.0
_cell_angle_beta                 90.0
_cell_angle_gamma                 90.0
loop_
_atom_site_label
_atom_site_type_symbol
_atom_site_fract_x
_atom_site_fract_y
_atom_site_fract_z
V1     V     0.0   0.4662   0.2185
V2     V     0.0   0.5338   0.7815
V3     V     0.2162   0.75   0.4685
V4     V     0.2838   0.75   0.0315
V5     V     0.7838   0.25   0.5315
V6     V     0.7162   0.25   0.9685
V7     V     0.5   0.4662   0.2815
V8     V     0.5   0.5338   0.7185
V9     V     0.2162   0.25   0.5315
V10     V     0.2838   0.25   0.9685
V11     V     0.5   0.0338   0.2815
V12     V     0.5   0.9662   0.7185
V13     V     0.0   0.0338   0.2185
V14     V     0.0   0.9662   0.7815
V15     V     0.7838   0.75   0.4685
V16     V     0.7162   0.75   0.0315
loop_
_geom_bond_atom_site_label_1
_geom_bond_atom_site_label_2
_geom_bond_distance
_geom_bond_site_symmetry_2
_ccdc_geom_bond_type
V1     V15    10.0   1_455     S
V1     V3    10.0   .     S
V1     V2    10.0   1_554     S
V1     V5    10.0   1_455     S
V1     V9    10.0   .     S
V1     V13    10.0   .     S
V1     V6    10.0   1_454     S
V1     V10    10.0   1_554     S
V2     V5    10.0   1_455     S
V2     V9    10.0   .     S
V2     V1    10.0   1_556     S
V2     V4    10.0   1_556     S
V2     V15    10.0   1_455     S
V2     V3    10.0   .     S
V2     V14    10.0   .     S
V2     V16    10.0   1_456     S
V3     V12    10.0   .     S
V3     V8    10.0   .     S
V3     V4    10.0   .     S
V3     V13    10.0   1_565     S
V3     V14    10.0   .     S
V3     V15    10.0   1_455     S
V4     V14    10.0   1_554     S
V4     V2    10.0   1_554     S
V4     V7    10.0   .     S
V4     V11    10.0   1_565     S
V4     V8    10.0   1_554     S
V4     V12    10.0   1_554     S
V4     V16    10.0   .     S
V5     V2    10.0   1_655     S
V5     V13    10.0   1_655     S
V5     V1    10.0   1_655     S
V5     V9    10.0   1_655     S
V5     V11    10.0   .     S
V5     V7    10.0   .     S
V5     V6    10.0   .     S
V5     V14    10.0   1_645     S
V6     V13    10.0   1_656     S
V6     V1    10.0   1_656     S
V6     V8    10.0   .     S
V6     V11    10.0   1_556     S
V6     V7    10.0   1_556     S
V6     V10    10.0   .     S
V6     V12    10.0   1_545     S
V7     V16    10.0   .     S
V7     V8    10.0   .     S
V7     V9    10.0   .     S
V7     V6    10.0   1_554     S
V7     V10    10.0   1_554     S
V7     V11    10.0   .     S
V8     V10    10.0   .     S
V8     V16    10.0   1_556     S
V8     V4    10.0   1_556     S
V8     V12    10.0   .     S
V8     V15    10.0   .     S
V9     V13    10.0   .     S
V9     V5    10.0   1_455     S
V9     V11    10.0   .     S
V9     V10    10.0   .     S
V9     V14    10.0   1_545     S
V10     V13    10.0   1_556     S
V10     V1    10.0   1_556     S
V10     V11    10.0   1_556     S
V10     V7    10.0   1_556     S
V10     V12    10.0   1_545     S
V11     V10    10.0   1_554     S
V11     V6    10.0   1_554     S
V11     V4    10.0   1_545     S
V11     V16    10.0   1_545     S
V11     V12    10.0   1_545     S
V12     V10    10.0   1_565     S
V12     V6    10.0   1_565     S
V12     V11    10.0   1_565     S
V12     V4    10.0   1_556     S
V12     V16    10.0   1_556     S
V12     V15    10.0   .     S
V13     V5    10.0   1_455     S
V13     V6    10.0   1_454     S
V13     V10    10.0   1_554     S
V13     V3    10.0   1_545     S
V13     V15    10.0   1_445     S
V13     V14    10.0   1_544     S
V14     V4    10.0   1_556     S
V14     V9    10.0   1_565     S
V14     V5    10.0   1_465     S
V14     V13    10.0   1_566     S
V14     V15    10.0   1_455     S
V14     V16    10.0   1_456     S
V15     V1    10.0   1_655     S
V15     V13    10.0   1_665     S
V15     V2    10.0   1_655     S
V15     V14    10.0   1_655     S
V15     V3    10.0   1_655     S
V15     V16    10.0   .     S
V16     V11    10.0   1_565     S
V16     V8    10.0   1_554     S
V16     V12    10.0   1_554     S
V16     V14    10.0   1_654     S
V16     V2    10.0   1_654     S
