data_wfn
_audit_creation_date              2020-02-02
_audit_creation_method            'Pymatgen'
_symmetry_space_group_name_H-M    'P1'
_symmetry_Int_Tables_number       1
loop_
_symmetry_equiv_pos_as_xyz
  x,y,z
_cell_length_a                    19.4367
_cell_length_b                    19.4367
_cell_length_c                    37.7122
_cell_angle_alpha                 90.0
_cell_angle_beta                 90.0
_cell_angle_gamma                 90.0
loop_
_atom_site_label
_atom_site_type_symbol
_atom_site_fract_x
_atom_site_fract_y
_atom_site_fract_z
V1     V     0.3676   0.9706   0.2188
V2     V     0.6324   0.0294   0.7812
V3     V     0.6324   0.5294   0.2188
V4     V     0.3676   0.4706   0.7812
V5     V     0.7794   0.6176   0.4688
V6     V     0.7206   0.8824   0.0312
V7     V     0.7794   0.1176   0.5312
V8     V     0.7206   0.3824   0.9688
V9     V     0.2206   0.8824   0.4688
V10     V     0.2794   0.6176   0.0312
V11     V     0.2206   0.3824   0.5312
V12     V     0.2794   0.1176   0.9688
V13     V     0.8676   0.4706   0.7188
V14     V     0.1324   0.5294   0.2812
V15     V     0.1324   0.0294   0.7188
V16     V     0.8676   0.9706   0.2812
loop_
_geom_bond_atom_site_label_1
_geom_bond_atom_site_label_2
_geom_bond_distance
_geom_bond_site_symmetry_2
_ccdc_geom_bond_type
V1     V6    10.0   .     S
V1     V12    10.0   1_564     S
V1     V9    10.0   .     S
V1     V10    10.0   .     S
V1     V14    10.0   .     S
V1     V3    10.0   .     S
V1     V16    10.0   .     S
V1     V16    10.0   1_455     S
V2     V12    10.0   .     S
V2     V6    10.0   1_546     S
V2     V7    10.0   .     S
V2     V8    10.0   .     S
V2     V13    10.0   .     S
V2     V4    10.0   .     S
V2     V15    10.0   .     S
V2     V15    10.0   1_655     S
V3     V10    10.0   .     S
V3     V8    10.0   1_554     S
V3     V5    10.0   .     S
V3     V6    10.0   .     S
V3     V16    10.0   .     S
V3     V14    10.0   .     S
V3     V14    10.0   1_655     S
V4     V8    10.0   .     S
V4     V10    10.0   1_556     S
V4     V11    10.0   .     S
V4     V12    10.0   .     S
V4     V15    10.0   .     S
V4     V13    10.0   .     S
V4     V13    10.0   1_455     S
V5     V16    10.0   .     S
V5     V13    10.0   .     S
V5     V14    10.0   1_655     S
V5     V11    10.0   1_655     S
V5     V9    10.0   1_655     S
V5     V7    10.0   .     S
V5     V7    10.0   1_565     S
V6     V2    10.0   1_564     S
V6     V12    10.0   1_564     S
V6     V16    10.0   .     S
V6     V10    10.0   .     S
V6     V8    10.0   1_564     S
V6     V8    10.0   1_554     S
V7     V13    10.0   .     S
V7     V15    10.0   1_655     S
V7     V16    10.0   1_545     S
V7     V9    10.0   1_645     S
V7     V11    10.0   1_655     S
V7     V5    10.0   1_545     S
V8     V3    10.0   1_556     S
V8     V10    10.0   1_556     S
V8     V13    10.0   .     S
V8     V12    10.0   .     S
V8     V6    10.0   1_546     S
V8     V6    10.0   1_556     S
V9     V14    10.0   .     S
V9     V15    10.0   1_565     S
V9     V16    10.0   1_455     S
V9     V7    10.0   1_465     S
V9     V5    10.0   1_455     S
V9     V11    10.0   .     S
V9     V11    10.0   1_565     S
V10     V4    10.0   1_554     S
V10     V8    10.0   1_554     S
V10     V14    10.0   .     S
V10     V12    10.0   1_554     S
V10     V12    10.0   1_564     S
V11     V15    10.0   .     S
V11     V13    10.0   1_455     S
V11     V14    10.0   .     S
V11     V5    10.0   1_455     S
V11     V7    10.0   1_455     S
V11     V9    10.0   1_545     S
V12     V1    10.0   1_546     S
V12     V6    10.0   1_546     S
V12     V15    10.0   .     S
V12     V10    10.0   1_556     S
V12     V10    10.0   1_546     S
V13     V11    10.0   1_655     S
V13     V15    10.0   1_655     S
V13     V4    10.0   1_655     S
V14     V5    10.0   1_455     S
V14     V16    10.0   1_455     S
V14     V3    10.0   1_455     S
V15     V7    10.0   1_455     S
V15     V9    10.0   1_545     S
V15     V13    10.0   1_455     S
V15     V2    10.0   1_455     S
V16     V9    10.0   1_655     S
V16     V7    10.0   1_565     S
V16     V14    10.0   1_655     S
V16     V1    10.0   1_655     S
