data_wfp
_audit_creation_date              2020-02-02
_audit_creation_method            'Pymatgen'
_symmetry_space_group_name_H-M    'P1'
_symmetry_Int_Tables_number       1
loop_
_symmetry_equiv_pos_as_xyz
  x,y,z
_cell_length_a                    18.5418
_cell_length_b                    18.5418
_cell_length_c                    39.0203
_cell_angle_alpha                 90.0
_cell_angle_beta                 90.0
_cell_angle_gamma                 90.0
loop_
_atom_site_label
_atom_site_type_symbol
_atom_site_fract_x
_atom_site_fract_y
_atom_site_fract_z
V1     V     0.3093   0.9407   0.3361
V2     V     0.1907   0.5593   0.1639
V3     V     0.8093   0.5593   0.5861
V4     V     0.1907   0.4407   0.4139
V5     V     0.8093   0.9407   0.1639
V6     V     0.6907   0.5593   0.3361
V7     V     0.8093   0.0593   0.4139
V8     V     0.1907   0.9407   0.5861
V9     V     0.6907   0.4407   0.0861
V10     V     0.3093   0.5593   0.9139
V11     V     0.3093   0.0593   0.0861
V12     V     0.6907   0.9407   0.9139
V13     V     0.1907   0.0593   0.8361
V14     V     0.3093   0.4407   0.6639
V15     V     0.8093   0.4407   0.8361
V16     V     0.6907   0.0593   0.6639
loop_
_geom_bond_atom_site_label_1
_geom_bond_atom_site_label_2
_geom_bond_distance
_geom_bond_site_symmetry_2
_ccdc_geom_bond_type
V1     V2    10.0   .     S
V1     V4    10.0   .     S
V1     V7    10.0   1_465     S
V1     V8    10.0   .     S
V1     V11    10.0   1_565     S
V1     V7    10.0   1_565     S
V1     V4    10.0   1_565     S
V1     V6    10.0   .     S
V2     V9    10.0   .     S
V2     V10    10.0   1_554     S
V2     V4    10.0   .     S
V2     V11    10.0   1_565     S
V2     V11    10.0   .     S
V2     V5    10.0   1_455     S
V2     V9    10.0   1_455     S
V3     V16    10.0   .     S
V3     V15    10.0   .     S
V3     V6    10.0   .     S
V3     V16    10.0   1_565     S
V3     V8    10.0   1_655     S
V3     V14    10.0   1_655     S
V3     V4    10.0   1_655     S
V3     V14    10.0   .     S
V4     V6    10.0   1_455     S
V4     V14    10.0   .     S
V4     V3    10.0   1_455     S
V4     V7    10.0   1_455     S
V4     V6    10.0   .     S
V4     V1    10.0   1_545     S
V5     V11    10.0   1_565     S
V5     V12    10.0   1_554     S
V5     V9    10.0   .     S
V5     V6    10.0   .     S
V5     V7    10.0   1_565     S
V5     V11    10.0   1_665     S
V5     V2    10.0   1_655     S
V5     V9    10.0   1_565     S
V6     V9    10.0   .     S
V6     V4    10.0   1_655     S
V6     V7    10.0   1_565     S
V6     V7    10.0   .     S
V7     V16    10.0   .     S
V7     V1    10.0   1_645     S
V7     V6    10.0   1_545     S
V7     V5    10.0   1_545     S
V7     V4    10.0   1_655     S
V7     V8    10.0   1_645     S
V7     V1    10.0   1_545     S
V8     V14    10.0   1_565     S
V8     V13    10.0   1_565     S
V8     V16    10.0   1_465     S
V8     V3    10.0   1_455     S
V8     V7    10.0   1_465     S
V8     V14    10.0   .     S
V8     V16    10.0   1_565     S
V9     V10    10.0   1_554     S
V9     V15    10.0   1_554     S
V9     V11    10.0   .     S
V9     V2    10.0   1_655     S
V9     V5    10.0   1_545     S
V10     V2    10.0   1_556     S
V10     V9    10.0   1_556     S
V10     V15    10.0   .     S
V10     V13    10.0   .     S
V10     V14    10.0   .     S
V10     V15    10.0   1_455     S
V10     V13    10.0   1_565     S
V10     V12    10.0   .     S
V11     V5    10.0   1_545     S
V11     V2    10.0   1_545     S
V11     V1    10.0   1_545     S
V11     V12    10.0   1_544     S
V11     V13    10.0   1_554     S
V11     V5    10.0   1_445     S
V12     V5    10.0   1_556     S
V12     V11    10.0   1_566     S
V12     V13    10.0   1_565     S
V12     V15    10.0   1_565     S
V12     V16    10.0   1_565     S
V12     V15    10.0   .     S
V12     V13    10.0   1_665     S
V13     V8    10.0   1_545     S
V13     V12    10.0   1_545     S
V13     V11    10.0   1_556     S
V13     V14    10.0   .     S
V13     V15    10.0   1_455     S
V13     V10    10.0   1_545     S
V13     V12    10.0   1_445     S
V14     V8    10.0   1_545     S
V14     V3    10.0   1_455     S
V14     V16    10.0   .     S
V15     V9    10.0   1_556     S
V15     V12    10.0   1_545     S
V15     V16    10.0   .     S
V15     V10    10.0   1_655     S
V15     V13    10.0   1_655     S
V16     V8    10.0   1_645     S
V16     V3    10.0   1_545     S
V16     V12    10.0   1_545     S
V16     V8    10.0   1_545     S
