data_wfz
_audit_creation_date              2020-02-02
_audit_creation_method            'Pymatgen'
_symmetry_space_group_name_H-M    'P1'
_symmetry_Int_Tables_number       1
loop_
_symmetry_equiv_pos_as_xyz
  x,y,z
_cell_length_a                    13.9351
_cell_length_b                    13.9351
_cell_length_c                    37.5439
_cell_angle_alpha                 90.0
_cell_angle_beta                 90.0
_cell_angle_gamma                 90.0
loop_
_atom_site_label
_atom_site_type_symbol
_atom_site_fract_x
_atom_site_fract_y
_atom_site_fract_z
V1     V     0.0   0.6751   0.6477
V2     V     0.3249   0.0   0.8523
V3     V     0.6751   0.0   0.3523
V4     V     0.0   0.3249   0.1477
V5     V     0.1751   0.5   0.3977
V6     V     0.5   0.1751   0.6023
V7     V     0.8249   0.5   0.8977
V8     V     0.5   0.8249   0.1023
loop_
_geom_bond_atom_site_label_1
_geom_bond_atom_site_label_2
_geom_bond_distance
_geom_bond_site_symmetry_2
_ccdc_geom_bond_type
V1     V7    10.0   1_455     S
V1     V6    10.0   1_565     S
V1     V2    10.0   1_565     S
V1     V6    10.0   .     S
V1     V5    10.0   .     S
V1     V6    10.0   1_465     S
V1     V6    10.0   1_455     S
V2     V7    10.0   1_445     S
V2     V6    10.0   .     S
V2     V1    10.0   1_545     S
V2     V7    10.0   1_545     S
V2     V8    10.0   1_546     S
V2     V7    10.0   .     S
V2     V7    10.0   1_455     S
V3     V5    10.0   .     S
V3     V6    10.0   .     S
V3     V4    10.0   1_655     S
V3     V5    10.0   1_655     S
V3     V8    10.0   1_545     S
V3     V5    10.0   1_545     S
V3     V5    10.0   1_645     S
V4     V3    10.0   1_455     S
V4     V5    10.0   .     S
V4     V8    10.0   1_445     S
V4     V8    10.0   1_455     S
V4     V7    10.0   1_454     S
V4     V8    10.0   .     S
V4     V8    10.0   1_545     S
V5     V3    10.0   1_455     S
V5     V6    10.0   .     S
V5     V3    10.0   1_565     S
V5     V3    10.0   1_465     S
V6     V1    10.0   1_545     S
V6     V1    10.0   1_645     S
V6     V1    10.0   1_655     S
V7     V2    10.0   1_665     S
V7     V1    10.0   1_655     S
V7     V2    10.0   1_565     S
V7     V8    10.0   1_556     S
V7     V4    10.0   1_656     S
V7     V2    10.0   1_655     S
V8     V2    10.0   1_564     S
V8     V4    10.0   1_665     S
V8     V3    10.0   1_565     S
V8     V7    10.0   1_554     S
V8     V4    10.0   1_655     S
V8     V4    10.0   1_565     S
