data_wgj
_audit_creation_date              2020-02-02
_audit_creation_method            'Pymatgen'
_symmetry_space_group_name_H-M    'P1'
_symmetry_Int_Tables_number       1
loop_
_symmetry_equiv_pos_as_xyz
  x,y,z
_cell_length_a                    41.7364
_cell_length_b                    41.7364
_cell_length_c                    19.3491
_cell_angle_alpha                 90.0
_cell_angle_beta                 90.0
_cell_angle_gamma                 90.0
loop_
_atom_site_label
_atom_site_type_symbol
_atom_site_fract_x
_atom_site_fract_y
_atom_site_fract_z
V1     V     0.8439   0.1883   0.8396
V2     V     0.6561   0.1883   0.1604
V3     V     0.8439   0.3117   0.3396
V4     V     0.6561   0.3117   0.6604
V5     V     0.0617   0.9061   0.5896
V6     V     0.0617   0.0939   0.9104
V7     V     0.9383   0.9061   0.0896
V8     V     0.9383   0.0939   0.4104
V9     V     0.3439   0.8117   0.8396
V10     V     0.1561   0.8117   0.1604
V11     V     0.3439   0.6883   0.3396
V12     V     0.1561   0.6883   0.6604
V13     V     0.4383   0.9061   0.4104
V14     V     0.4383   0.0939   0.0896
V15     V     0.5617   0.0939   0.5896
V16     V     0.5617   0.9061   0.9104
V17     V     0.8439   0.8117   0.6604
V18     V     0.6561   0.8117   0.3396
V19     V     0.8439   0.6883   0.1604
V20     V     0.6561   0.6883   0.8396
V21     V     0.0617   0.5939   0.0896
V22     V     0.0617   0.4061   0.4104
V23     V     0.9383   0.4061   0.9104
V24     V     0.9383   0.5939   0.5896
V25     V     0.1561   0.3117   0.8396
V26     V     0.3439   0.3117   0.1604
V27     V     0.1561   0.1883   0.3396
V28     V     0.3439   0.1883   0.6604
V29     V     0.5617   0.5939   0.4104
V30     V     0.5617   0.4061   0.0896
V31     V     0.4383   0.4061   0.5896
V32     V     0.4383   0.5939   0.9104
loop_
_geom_bond_atom_site_label_1
_geom_bond_atom_site_label_2
_geom_bond_distance
_geom_bond_site_symmetry_2
_ccdc_geom_bond_type
V1     V6    10.0   1_655     S
V1     V2    10.0   1_556     S
V1     V4    10.0   .     S
V1     V23    10.0   .     S
V1     V8    10.0   .     S
V2     V14    10.0   .     S
V2     V1    10.0   1_554     S
V2     V3    10.0   .     S
V2     V30    10.0   .     S
V2     V15    10.0   .     S
V3     V22    10.0   1_655     S
V3     V4    10.0   .     S
V3     V23    10.0   1_554     S
V3     V8    10.0   .     S
V4     V31    10.0   .     S
V4     V15    10.0   .     S
V4     V30    10.0   1_556     S
V5     V12    10.0   .     S
V5     V6    10.0   1_565     S
V5     V8    10.0   1_465     S
V5     V10    10.0   .     S
V5     V17    10.0   1_455     S
V6     V1    10.0   1_455     S
V6     V25    10.0   .     S
V6     V5    10.0   1_545     S
V6     V7    10.0   1_446     S
V6     V27    10.0   1_556     S
V7     V19    10.0   .     S
V7     V8    10.0   1_565     S
V7     V6    10.0   1_664     S
V7     V10    10.0   1_655     S
V7     V17    10.0   1_554     S
V8     V7    10.0   1_545     S
V8     V5    10.0   1_645     S
V8     V27    10.0   1_655     S
V9     V16    10.0   .     S
V9     V10    10.0   1_556     S
V9     V12    10.0   .     S
V9     V13    10.0   .     S
V9     V32    10.0   .     S
V10     V7    10.0   1_455     S
V10     V9    10.0   1_554     S
V10     V11    10.0   .     S
V10     V21    10.0   .     S
V11     V29    10.0   .     S
V11     V12    10.0   .     S
V11     V13    10.0   .     S
V11     V32    10.0   1_554     S
V12     V24    10.0   1_455     S
V12     V21    10.0   1_556     S
V13     V14    10.0   1_565     S
V13     V15    10.0   1_565     S
V13     V18    10.0   .     S
V14     V26    10.0   .     S
V14     V13    10.0   1_545     S
V14     V16    10.0   1_544     S
V14     V28    10.0   1_554     S
V15     V16    10.0   1_545     S
V15     V13    10.0   1_545     S
V15     V28    10.0   .     S
V16     V20    10.0   .     S
V16     V15    10.0   1_565     S
V16     V14    10.0   1_566     S
V16     V18    10.0   1_556     S
V17     V5    10.0   1_655     S
V17     V18    10.0   .     S
V17     V20    10.0   .     S
V17     V24    10.0   .     S
V17     V7    10.0   1_556     S
V18     V19    10.0   .     S
V18     V29    10.0   .     S
V18     V16    10.0   1_554     S
V19     V21    10.0   1_655     S
V19     V20    10.0   1_554     S
V19     V24    10.0   .     S
V20     V32    10.0   .     S
V20     V19    10.0   1_556     S
V20     V29    10.0   .     S
V21     V19    10.0   1_455     S
V21     V22    10.0   .     S
V21     V23    10.0   1_454     S
V21     V12    10.0   1_554     S
V22     V3    10.0   1_455     S
V22     V27    10.0   .     S
V22     V24    10.0   1_455     S
V22     V25    10.0   .     S
V23     V3    10.0   1_556     S
V23     V24    10.0   .     S
V23     V21    10.0   1_656     S
V23     V25    10.0   1_655     S
V24     V12    10.0   1_655     S
V24     V22    10.0   1_655     S
V25     V23    10.0   1_455     S
V25     V26    10.0   1_556     S
V25     V28    10.0   .     S
V26     V30    10.0   .     S
V26     V25    10.0   1_554     S
V26     V27    10.0   .     S
V26     V31    10.0   .     S
V27     V8    10.0   1_455     S
V27     V28    10.0   .     S
V27     V6    10.0   1_554     S
V28     V14    10.0   1_556     S
V28     V31    10.0   .     S
V29     V30    10.0   .     S
V29     V31    10.0   .     S
V30     V32    10.0   1_554     S
V30     V4    10.0   1_554     S
V31     V32    10.0   .     S
V32     V30    10.0   1_556     S
V32     V11    10.0   1_556     S
