data_wgn
_audit_creation_date              2020-02-02
_audit_creation_method            'Pymatgen'
_symmetry_space_group_name_H-M    'P1'
_symmetry_Int_Tables_number       1
loop_
_symmetry_equiv_pos_as_xyz
  x,y,z
_cell_length_a                    19.9693
_cell_length_b                    19.9693
_cell_length_c                    73.7393
_cell_angle_alpha                 90.0
_cell_angle_beta                 90.0
_cell_angle_gamma                 90.0
loop_
_atom_site_label
_atom_site_type_symbol
_atom_site_fract_x
_atom_site_fract_y
_atom_site_fract_z
V1     V     0.0833   0.0139   0.5638
V2     V     0.9167   0.9861   0.4362
V3     V     0.9167   0.4861   0.5638
V4     V     0.0833   0.5139   0.4362
V5     V     0.5833   0.9861   0.5638
V6     V     0.4167   0.0139   0.4362
V7     V     0.5833   0.4861   0.4362
V8     V     0.4167   0.5139   0.5638
V9     V     0.2639   0.6667   0.6862
V10     V     0.2361   0.8333   0.8138
V11     V     0.7361   0.8333   0.6862
V12     V     0.7639   0.6667   0.8138
V13     V     0.2361   0.1667   0.6862
V14     V     0.2639   0.3333   0.8138
V15     V     0.7639   0.3333   0.6862
V16     V     0.7361   0.1667   0.8138
V17     V     0.0833   0.4861   0.0638
V18     V     0.9167   0.5139   0.9362
V19     V     0.9167   0.0139   0.0638
V20     V     0.0833   0.9861   0.9362
V21     V     0.5833   0.5139   0.0638
V22     V     0.4167   0.4861   0.9362
V23     V     0.4167   0.9861   0.0638
V24     V     0.5833   0.0139   0.9362
V25     V     0.2639   0.8333   0.1862
V26     V     0.2361   0.6667   0.3138
V27     V     0.7361   0.6667   0.1862
V28     V     0.7639   0.8333   0.3138
V29     V     0.2361   0.3333   0.1862
V30     V     0.2639   0.1667   0.3138
V31     V     0.7361   0.3333   0.3138
V32     V     0.7639   0.1667   0.1862
loop_
_geom_bond_atom_site_label_1
_geom_bond_atom_site_label_2
_geom_bond_distance
_geom_bond_site_symmetry_2
_ccdc_geom_bond_type
V1     V2    10.0   1_445     S
V1     V3    10.0   1_455     S
V1     V5    10.0   1_545     S
V1     V5    10.0   1_445     S
V1     V13    10.0   .     S
V2     V1    10.0   1_665     S
V2     V4    10.0   1_655     S
V2     V6    10.0   1_565     S
V2     V6    10.0   1_665     S
V2     V28    10.0   .     S
V3     V4    10.0   1_655     S
V3     V1    10.0   1_655     S
V3     V8    10.0   .     S
V3     V8    10.0   1_655     S
V3     V15    10.0   .     S
V4     V3    10.0   1_455     S
V4     V2    10.0   1_455     S
V4     V7    10.0   1_455     S
V4     V7    10.0   .     S
V4     V26    10.0   .     S
V5     V6    10.0   1_565     S
V5     V8    10.0   .     S
V5     V1    10.0   1_565     S
V5     V1    10.0   1_665     S
V5     V11    10.0   .     S
V6     V2    10.0   1_545     S
V6     V5    10.0   1_545     S
V6     V7    10.0   .     S
V6     V2    10.0   1_445     S
V6     V30    10.0   .     S
V7     V8    10.0   .     S
V7     V4    10.0   1_655     S
V7     V31    10.0   .     S
V8     V3    10.0   1_455     S
V8     V9    10.0   .     S
V9     V10    10.0   .     S
V9     V11    10.0   .     S
V9     V13    10.0   .     S
V9     V13    10.0   1_565     S
V10     V12    10.0   1_455     S
V10     V14    10.0   .     S
V10     V14    10.0   1_565     S
V10     V20    10.0   .     S
V11     V12    10.0   .     S
V11     V15    10.0   .     S
V11     V15    10.0   1_565     S
V12     V10    10.0   1_655     S
V12     V16    10.0   .     S
V12     V16    10.0   1_565     S
V12     V18    10.0   .     S
V13     V14    10.0   .     S
V13     V15    10.0   1_455     S
V13     V9    10.0   1_545     S
V14     V16    10.0   .     S
V14     V10    10.0   1_545     S
V14     V22    10.0   .     S
V15     V16    10.0   .     S
V15     V13    10.0   1_655     S
V15     V11    10.0   1_545     S
V16     V12    10.0   1_545     S
V16     V24    10.0   .     S
V17     V18    10.0   1_454     S
V17     V19    10.0   1_455     S
V17     V21    10.0   1_455     S
V17     V21    10.0   .     S
V17     V29    10.0   .     S
V18     V17    10.0   1_656     S
V18     V20    10.0   1_655     S
V18     V22    10.0   .     S
V18     V22    10.0   1_655     S
V19     V20    10.0   1_644     S
V19     V17    10.0   1_655     S
V19     V23    10.0   1_545     S
V19     V23    10.0   1_645     S
V19     V32    10.0   .     S
V20     V19    10.0   1_466     S
V20     V18    10.0   1_455     S
V20     V24    10.0   1_565     S
V20     V24    10.0   1_465     S
V21     V22    10.0   1_554     S
V21     V23    10.0   .     S
V21     V17    10.0   1_655     S
V21     V27    10.0   .     S
V22     V21    10.0   1_556     S
V22     V24    10.0   .     S
V22     V18    10.0   1_455     S
V23     V19    10.0   1_565     S
V23     V24    10.0   1_564     S
V23     V19    10.0   1_465     S
V23     V25    10.0   .     S
V24     V23    10.0   1_546     S
V24     V20    10.0   1_545     S
V24     V20    10.0   1_645     S
V25     V26    10.0   .     S
V25     V27    10.0   .     S
V25     V29    10.0   .     S
V25     V29    10.0   1_565     S
V26     V28    10.0   1_455     S
V26     V30    10.0   .     S
V26     V30    10.0   1_565     S
V27     V28    10.0   .     S
V27     V32    10.0   .     S
V27     V32    10.0   1_565     S
V28     V26    10.0   1_655     S
V28     V31    10.0   .     S
V28     V31    10.0   1_565     S
V29     V30    10.0   .     S
V29     V32    10.0   1_455     S
V29     V25    10.0   1_545     S
V30     V31    10.0   .     S
V30     V26    10.0   1_545     S
V31     V32    10.0   .     S
V31     V28    10.0   1_545     S
V32     V29    10.0   1_655     S
V32     V27    10.0   1_545     S
