data_wgp
_audit_creation_date              2020-02-02
_audit_creation_method            'Pymatgen'
_symmetry_space_group_name_H-M    'P1'
_symmetry_Int_Tables_number       1
loop_
_symmetry_equiv_pos_as_xyz
  x,y,z
_cell_length_a                    19.9
_cell_length_b                    19.9
_cell_length_c                    75.3385
_cell_angle_alpha                 90.0
_cell_angle_beta                 90.0
_cell_angle_gamma                 90.0
loop_
_atom_site_label
_atom_site_type_symbol
_atom_site_fract_x
_atom_site_fract_y
_atom_site_fract_z
V1     V     0.112   0.0251   0.316
V2     V     0.112   0.9749   0.184
V3     V     0.612   0.9749   0.316
V4     V     0.612   0.0251   0.184
V5     V     0.388   0.5251   0.316
V6     V     0.388   0.4749   0.184
V7     V     0.888   0.5251   0.184
V8     V     0.888   0.4749   0.316
V9     V     0.7751   0.362   0.934
V10     V     0.7249   0.362   0.066
V11     V     0.7751   0.862   0.066
V12     V     0.7249   0.862   0.934
V13     V     0.2249   0.638   0.066
V14     V     0.2751   0.638   0.934
V15     V     0.2751   0.138   0.066
V16     V     0.2249   0.138   0.934
V17     V     0.2249   0.362   0.434
V18     V     0.2751   0.362   0.566
V19     V     0.2751   0.862   0.434
V20     V     0.2249   0.862   0.566
V21     V     0.7249   0.638   0.434
V22     V     0.7751   0.638   0.566
V23     V     0.7249   0.138   0.566
V24     V     0.7751   0.138   0.434
V25     V     0.388   0.0251   0.684
V26     V     0.388   0.9749   0.816
V27     V     0.888   0.9749   0.684
V28     V     0.888   0.0251   0.816
V29     V     0.612   0.4749   0.684
V30     V     0.612   0.5251   0.816
V31     V     0.112   0.5251   0.684
V32     V     0.112   0.4749   0.816
loop_
_geom_bond_atom_site_label_1
_geom_bond_atom_site_label_2
_geom_bond_distance
_geom_bond_site_symmetry_2
_ccdc_geom_bond_type
V1     V2    9.999   1_545     S
V1     V3    10.0   1_545     S
V1     V3    10.0   1_445     S
V1     V8    10.0   1_455     S
V1     V19    10.001   1_545     S
V2     V1    9.999   1_565     S
V2     V4    10.0   1_565     S
V2     V4    10.0   1_465     S
V2     V7    10.0   1_455     S
V2     V15    10.001   1_565     S
V3     V4    9.999   1_565     S
V3     V1    10.0   1_565     S
V3     V1    10.0   1_665     S
V3     V5    10.0   .     S
V3     V24    10.001   1_565     S
V4     V3    9.999   1_545     S
V4     V2    10.0   1_545     S
V4     V2    10.0   1_645     S
V4     V6    10.0   .     S
V4     V11    10.001   1_545     S
V5     V6    9.999   .     S
V5     V8    10.0   1_455     S
V5     V8    10.0   .     S
V5     V17    10.001   .     S
V6     V7    10.0   1_455     S
V6     V7    10.0   .     S
V6     V13    10.001   .     S
V7     V2    10.0   1_655     S
V7     V8    9.999   .     S
V7     V6    10.0   1_655     S
V7     V10    10.001   .     S
V8     V5    10.0   1_655     S
V8     V1    10.0   1_655     S
V8     V21    10.001   .     S
V9     V10    9.999   1_556     S
V9     V12    10.0   .     S
V9     V12    10.0   1_545     S
V9     V16    10.0   1_655     S
V9     V30    10.001   .     S
V10     V9    9.999   1_554     S
V10     V11    10.0   .     S
V10     V11    10.0   1_545     S
V10     V15    10.0   .     S
V11     V12    9.999   1_554     S
V11     V10    10.0   1_565     S
V11     V13    10.0   1_655     S
V11     V4    10.001   1_565     S
V12     V11    9.999   1_556     S
V12     V9    10.0   1_565     S
V12     V14    10.0   .     S
V12     V28    10.001   1_565     S
V13     V14    9.999   1_554     S
V13     V15    10.0   1_565     S
V13     V15    10.0   .     S
V13     V11    10.0   1_455     S
V14     V13    9.999   1_556     S
V14     V16    10.0   1_565     S
V14     V16    10.0   .     S
V14     V32    10.001   .     S
V15     V16    9.999   1_554     S
V15     V13    10.0   1_545     S
V15     V2    10.001   1_545     S
V16     V15    9.999   1_556     S
V16     V14    10.0   1_545     S
V16     V9    10.0   1_455     S
V16     V26    10.001   1_545     S
V17     V18    9.999   .     S
V17     V19    10.0   .     S
V17     V19    10.0   1_545     S
V17     V24    10.0   1_455     S
V18     V20    10.0   .     S
V18     V20    10.0   1_545     S
V18     V23    10.0   .     S
V18     V31    10.001   .     S
V19     V1    10.001   1_565     S
V19     V20    9.999   .     S
V19     V17    10.0   1_565     S
V19     V21    10.0   .     S
V20     V18    10.0   1_565     S
V20     V22    10.0   1_455     S
V20     V25    10.001   1_565     S
V21     V22    9.999   .     S
V21     V24    10.0   1_565     S
V21     V24    10.0   .     S
V22     V23    10.0   1_565     S
V22     V23    10.0   .     S
V22     V20    10.0   1_655     S
V22     V29    10.001   .     S
V23     V24    9.999   .     S
V23     V22    10.0   1_545     S
V23     V27    10.001   1_545     S
V24     V3    10.001   1_545     S
V24     V21    10.0   1_545     S
V24     V17    10.0   1_655     S
V25     V26    9.999   1_545     S
V25     V27    10.0   1_445     S
V25     V27    10.0   1_545     S
V25     V29    10.0   .     S
V25     V20    10.001   1_545     S
V26     V16    10.001   1_565     S
V26     V25    9.999   1_565     S
V26     V28    10.0   1_465     S
V26     V28    10.0   1_565     S
V26     V30    10.0   .     S
V27     V28    9.999   1_565     S
V27     V25    10.0   1_665     S
V27     V25    10.0   1_565     S
V27     V31    10.0   1_655     S
V27     V23    10.001   1_565     S
V28     V12    10.001   1_545     S
V28     V27    9.999   1_545     S
V28     V26    10.0   1_645     S
V28     V26    10.0   1_545     S
V28     V32    10.0   1_655     S
V29     V30    9.999   .     S
V29     V31    10.0   .     S
V29     V31    10.0   1_655     S
V30     V32    10.0   .     S
V30     V32    10.0   1_655     S
V31     V32    9.999   .     S
V31     V29    10.0   1_455     S
V31     V27    10.0   1_455     S
V32     V28    10.0   1_455     S
V32     V30    10.0   1_455     S
