data_wgr
_audit_creation_date              2020-02-02
_audit_creation_method            'Pymatgen'
_symmetry_space_group_name_H-M    'P1'
_symmetry_Int_Tables_number       1
loop_
_symmetry_equiv_pos_as_xyz
  x,y,z
_cell_length_a                    19.5782
_cell_length_b                    19.5782
_cell_length_c                    74.3641
_cell_angle_alpha                 90.0
_cell_angle_beta                 90.0
_cell_angle_gamma                 90.0
loop_
_atom_site_label
_atom_site_type_symbol
_atom_site_fract_x
_atom_site_fract_y
_atom_site_fract_z
V1     V     0.1978   0.9115   0.6869
V2     V     0.1978   0.0885   0.8131
V3     V     0.3022   0.4115   0.6869
V4     V     0.3022   0.5885   0.8131
V5     V     0.6978   0.9115   0.8131
V6     V     0.6978   0.0885   0.6869
V7     V     0.8022   0.5885   0.6869
V8     V     0.8022   0.4115   0.8131
V9     V     0.8385   0.0522   0.9369
V10     V     0.6615   0.0522   0.0631
V11     V     0.3385   0.9478   0.9369
V12     V     0.1615   0.9478   0.0631
V13     V     0.1615   0.4478   0.9369
V14     V     0.3385   0.4478   0.0631
V15     V     0.6615   0.5522   0.9369
V16     V     0.8385   0.5522   0.0631
V17     V     0.3022   0.9115   0.3131
V18     V     0.3022   0.0885   0.1869
V19     V     0.1978   0.5885   0.1869
V20     V     0.1978   0.4115   0.3131
V21     V     0.8022   0.0885   0.3131
V22     V     0.8022   0.9115   0.1869
V23     V     0.6978   0.4115   0.1869
V24     V     0.6978   0.5885   0.3131
V25     V     0.1615   0.5522   0.5631
V26     V     0.3385   0.5522   0.4369
V27     V     0.8385   0.4478   0.4369
V28     V     0.6615   0.4478   0.5631
V29     V     0.8385   0.9478   0.5631
V30     V     0.6615   0.9478   0.4369
V31     V     0.3385   0.0522   0.5631
V32     V     0.1615   0.0522   0.4369
loop_
_geom_bond_atom_site_label_1
_geom_bond_atom_site_label_2
_geom_bond_distance
_geom_bond_site_symmetry_2
_ccdc_geom_bond_type
V1     V2    10.0   1_565     S
V1     V3    10.0   1_565     S
V1     V3    10.0   .     S
V1     V7    10.0   1_455     S
V1     V31    10.0   1_565     S
V2     V1    10.0   1_545     S
V2     V4    10.0   1_545     S
V2     V4    10.0   .     S
V2     V8    10.0   1_455     S
V2     V11    10.0   1_545     S
V3     V1    10.0   1_545     S
V3     V4    10.0   .     S
V3     V6    10.0   .     S
V3     V25    10.0   .     S
V4     V2    10.0   1_565     S
V4     V5    10.0   .     S
V4     V13    10.0   .     S
V5     V6    10.0   1_565     S
V5     V8    10.0   1_565     S
V5     V8    10.0   .     S
V5     V9    10.0   1_565     S
V6     V5    10.0   1_545     S
V6     V7    10.0   1_545     S
V6     V7    10.0   .     S
V6     V29    10.0   1_545     S
V7     V8    10.0   .     S
V7     V6    10.0   1_565     S
V7     V1    10.0   1_655     S
V7     V28    10.0   .     S
V8     V5    10.0   1_545     S
V8     V2    10.0   1_655     S
V8     V15    10.0   .     S
V9     V10    10.0   1_556     S
V9     V11    10.0   1_545     S
V9     V11    10.0   1_645     S
V9     V13    10.0   1_655     S
V9     V5    10.0   1_545     S
V10     V9    10.0   1_554     S
V10     V12    10.0   1_645     S
V10     V12    10.0   1_545     S
V10     V14    10.0   .     S
V10     V22    10.0   1_545     S
V11     V12    10.0   1_556     S
V11     V9    10.0   1_565     S
V11     V9    10.0   1_465     S
V11     V15    10.0   .     S
V11     V2    10.0   1_565     S
V12     V11    10.0   1_554     S
V12     V10    10.0   1_465     S
V12     V10    10.0   1_565     S
V12     V16    10.0   1_455     S
V12     V18    10.0   1_565     S
V13     V14    10.0   1_556     S
V13     V15    10.0   1_455     S
V13     V15    10.0   .     S
V13     V9    10.0   1_455     S
V14     V13    10.0   1_554     S
V14     V16    10.0   .     S
V14     V16    10.0   1_455     S
V14     V19    10.0   .     S
V15     V13    10.0   1_655     S
V15     V16    10.0   1_556     S
V16     V12    10.0   1_655     S
V16     V15    10.0   1_554     S
V16     V14    10.0   1_655     S
V16     V23    10.0   .     S
V17     V18    10.0   1_565     S
V17     V20    10.0   1_565     S
V17     V20    10.0   .     S
V17     V24    10.0   .     S
V17     V32    10.0   1_565     S
V18     V17    10.0   1_545     S
V18     V19    10.0   1_545     S
V18     V19    10.0   .     S
V18     V23    10.0   .     S
V18     V12    10.0   1_545     S
V19     V20    10.0   .     S
V19     V18    10.0   1_565     S
V19     V22    10.0   1_455     S
V20     V17    10.0   1_545     S
V20     V21    10.0   1_455     S
V20     V26    10.0   .     S
V21     V22    10.0   1_545     S
V21     V24    10.0   1_545     S
V21     V24    10.0   .     S
V21     V20    10.0   1_655     S
V21     V30    10.0   1_545     S
V22     V21    10.0   1_565     S
V22     V23    10.0   1_565     S
V22     V23    10.0   .     S
V22     V19    10.0   1_655     S
V22     V10    10.0   1_565     S
V23     V22    10.0   1_545     S
V23     V24    10.0   .     S
V24     V21    10.0   1_565     S
V24     V27    10.0   .     S
V25     V26    10.0   .     S
V25     V28    10.0   1_455     S
V25     V28    10.0   .     S
V25     V29    10.0   1_455     S
V26     V27    10.0   .     S
V26     V27    10.0   1_455     S
V26     V30    10.0   .     S
V27     V28    10.0   .     S
V27     V26    10.0   1_655     S
V27     V32    10.0   1_655     S
V28     V25    10.0   1_655     S
V28     V31    10.0   .     S
V29     V30    10.0   .     S
V29     V31    10.0   1_565     S
V29     V31    10.0   1_665     S
V29     V25    10.0   1_655     S
V29     V6    10.0   1_565     S
V30     V32    10.0   1_665     S
V30     V32    10.0   1_565     S
V30     V21    10.0   1_565     S
V31     V32    10.0   .     S
V31     V29    10.0   1_545     S
V31     V29    10.0   1_445     S
V31     V1    10.0   1_545     S
V32     V30    10.0   1_445     S
V32     V30    10.0   1_545     S
V32     V27    10.0   1_455     S
V32     V17    10.0   1_545     S
