data_wgx
_audit_creation_date              2020-02-02
_audit_creation_method            'Pymatgen'
_symmetry_space_group_name_H-M    'P1'
_symmetry_Int_Tables_number       1
loop_
_symmetry_equiv_pos_as_xyz
  x,y,z
_cell_length_a                    25.4418
_cell_length_b                    25.4418
_cell_length_c                    29.3772
_cell_angle_alpha                 90.0
_cell_angle_beta                 90.0
_cell_angle_gamma                 90.0
loop_
_atom_site_label
_atom_site_type_symbol
_atom_site_fract_x
_atom_site_fract_y
_atom_site_fract_z
V1     V     0.5772   0.233   0.1702
V2     V     0.9228   0.267   0.3298
V3     V     0.5772   0.233   0.8298
V4     V     0.9228   0.267   0.6702
V5     V     0.767   0.5772   0.8298
V6     V     0.733   0.9228   0.6702
V7     V     0.767   0.5772   0.1702
V8     V     0.733   0.9228   0.3298
V9     V     0.233   0.4228   0.8298
V10     V     0.267   0.0772   0.6702
V11     V     0.233   0.4228   0.1702
V12     V     0.267   0.0772   0.3298
V13     V     0.4228   0.767   0.8298
V14     V     0.0772   0.733   0.6702
V15     V     0.4228   0.767   0.1702
V16     V     0.0772   0.733   0.3298
loop_
_geom_bond_atom_site_label_1
_geom_bond_atom_site_label_2
_geom_bond_distance
_geom_bond_site_symmetry_2
_ccdc_geom_bond_type
V1     V7    10.0   .     S
V1     V8    10.0   1_545     S
V1     V2    10.0   .     S
V1     V3    10.0   1_554     S
V1     V11    10.0   .     S
V1     V12    10.0   .     S
V2     V8    10.0   1_545     S
V2     V7    10.0   .     S
V2     V4    10.0   .     S
V2     V11    10.0   1_655     S
V2     V12    10.0   1_655     S
V3     V5    10.0   .     S
V3     V6    10.0   1_545     S
V3     V4    10.0   .     S
V3     V1    10.0   1_556     S
V3     V9    10.0   .     S
V3     V10    10.0   .     S
V4     V6    10.0   1_545     S
V4     V5    10.0   .     S
V4     V9    10.0   1_655     S
V4     V10    10.0   1_655     S
V5     V13    10.0   .     S
V5     V14    10.0   1_655     S
V5     V6    10.0   .     S
V5     V7    10.0   1_556     S
V6     V3    10.0   1_565     S
V6     V4    10.0   1_565     S
V6     V14    10.0   1_655     S
V6     V13    10.0   .     S
V6     V8    10.0   .     S
V7     V15    10.0   .     S
V7     V16    10.0   1_655     S
V7     V8    10.0   .     S
V7     V5    10.0   1_554     S
V8     V1    10.0   1_565     S
V8     V2    10.0   1_565     S
V8     V16    10.0   1_655     S
V8     V15    10.0   .     S
V9     V4    10.0   1_455     S
V9     V10    10.0   .     S
V9     V11    10.0   1_556     S
V9     V13    10.0   .     S
V9     V14    10.0   .     S
V10     V4    10.0   1_455     S
V10     V12    10.0   .     S
V10     V13    10.0   1_545     S
V10     V14    10.0   1_545     S
V11     V2    10.0   1_455     S
V11     V12    10.0   .     S
V11     V9    10.0   1_554     S
V11     V15    10.0   .     S
V11     V16    10.0   .     S
V12     V2    10.0   1_455     S
V12     V15    10.0   1_545     S
V12     V16    10.0   1_545     S
V13     V10    10.0   1_565     S
V13     V14    10.0   .     S
V13     V15    10.0   1_556     S
V14     V5    10.0   1_455     S
V14     V6    10.0   1_455     S
V14     V10    10.0   1_565     S
V14     V16    10.0   .     S
V15     V12    10.0   1_565     S
V15     V16    10.0   .     S
V15     V13    10.0   1_554     S
V16     V7    10.0   1_455     S
V16     V8    10.0   1_455     S
V16     V12    10.0   1_565     S
