data_wgy
_audit_creation_date              2020-02-02
_audit_creation_method            'Pymatgen'
_symmetry_space_group_name_H-M    'P1'
_symmetry_Int_Tables_number       1
loop_
_symmetry_equiv_pos_as_xyz
  x,y,z
_cell_length_a                    46.3898
_cell_length_b                    46.3898
_cell_length_c                    19.9998
_cell_angle_alpha                 90.0
_cell_angle_beta                 90.0
_cell_angle_gamma                 90.0
loop_
_atom_site_label
_atom_site_type_symbol
_atom_site_fract_x
_atom_site_fract_y
_atom_site_fract_z
V1     V     0.3922   0.2398   0.0
V2     V     0.3922   0.2398   0.5
V3     V     0.6078   0.2398   0.0
V4     V     0.6078   0.2398   0.5
V5     V     0.2398   0.3922   0.0
V6     V     0.2398   0.3922   0.5
V7     V     0.2398   0.6078   0.0
V8     V     0.2398   0.6078   0.5
V9     V     0.7602   0.6078   0.0
V10     V     0.7602   0.6078   0.5
V11     V     0.7602   0.3922   0.0
V12     V     0.7602   0.3922   0.5
V13     V     0.3922   0.7602   0.0
V14     V     0.3922   0.7602   0.5
V15     V     0.6078   0.7602   0.0
V16     V     0.6078   0.7602   0.5
V17     V     0.8922   0.2602   0.25
V18     V     0.8922   0.2602   0.75
V19     V     0.1078   0.2602   0.25
V20     V     0.1078   0.2602   0.75
V21     V     0.2602   0.8922   0.25
V22     V     0.2602   0.8922   0.75
V23     V     0.2602   0.1078   0.25
V24     V     0.2602   0.1078   0.75
V25     V     0.8922   0.7398   0.25
V26     V     0.8922   0.7398   0.75
V27     V     0.1078   0.7398   0.25
V28     V     0.1078   0.7398   0.75
V29     V     0.7398   0.8922   0.25
V30     V     0.7398   0.8922   0.75
V31     V     0.7398   0.1078   0.25
V32     V     0.7398   0.1078   0.75
loop_
_geom_bond_atom_site_label_1
_geom_bond_atom_site_label_2
_geom_bond_distance
_geom_bond_site_symmetry_2
_ccdc_geom_bond_type
V1     V3    10.0   .     S
V1     V2    10.0   .     S
V1     V2    10.0   1_554     S
V1     V5    10.0   .     S
V1     V24    10.0   1_554     S
V1     V23    10.0   .     S
V2     V4    10.0   .     S
V2     V1    10.0   1_556     S
V2     V6    10.0   .     S
V2     V23    10.0   .     S
V2     V24    10.0   .     S
V3     V4    10.0   .     S
V3     V4    10.0   1_554     S
V3     V11    10.0   .     S
V3     V31    10.0   .     S
V3     V32    10.0   1_554     S
V4     V3    10.0   1_556     S
V4     V12    10.0   .     S
V4     V32    10.0   .     S
V4     V31    10.0   .     S
V5     V7    10.0   .     S
V5     V6    10.0   .     S
V5     V6    10.0   1_554     S
V5     V19    10.0   .     S
V5     V20    10.0   1_554     S
V6     V8    10.0   .     S
V6     V5    10.0   1_556     S
V6     V20    10.0   .     S
V6     V19    10.0   .     S
V7     V8    10.0   .     S
V7     V8    10.0   1_554     S
V7     V13    10.0   .     S
V7     V28    10.0   1_554     S
V7     V27    10.0   .     S
V8     V7    10.0   1_556     S
V8     V14    10.0   .     S
V8     V27    10.0   .     S
V8     V28    10.0   .     S
V9     V25    10.0   .     S
V9     V26    10.0   1_554     S
V9     V11    10.0   .     S
V9     V10    10.0   .     S
V9     V10    10.0   1_554     S
V9     V15    10.0   .     S
V10     V26    10.0   .     S
V10     V25    10.0   .     S
V10     V12    10.0   .     S
V10     V9    10.0   1_556     S
V10     V16    10.0   .     S
V11     V18    10.0   1_554     S
V11     V17    10.0   .     S
V11     V12    10.0   .     S
V11     V12    10.0   1_554     S
V12     V17    10.0   .     S
V12     V18    10.0   .     S
V12     V11    10.0   1_556     S
V13     V21    10.0   .     S
V13     V22    10.0   1_554     S
V13     V15    10.0   .     S
V13     V14    10.0   .     S
V13     V14    10.0   1_554     S
V14     V22    10.0   .     S
V14     V21    10.0   .     S
V14     V16    10.0   .     S
V14     V13    10.0   1_556     S
V15     V30    10.0   1_554     S
V15     V29    10.0   .     S
V15     V16    10.0   .     S
V15     V16    10.0   1_554     S
V16     V29    10.0   .     S
V16     V30    10.0   .     S
V16     V15    10.0   1_556     S
V17     V19    10.0   1_655     S
V17     V18    10.0   1_554     S
V17     V18    10.0   .     S
V17     V31    10.0   .     S
V18     V11    10.0   1_556     S
V18     V20    10.0   1_655     S
V18     V17    10.0   1_556     S
V18     V32    10.0   .     S
V19     V17    10.0   1_455     S
V19     V20    10.0   1_554     S
V19     V20    10.0   .     S
V19     V23    10.0   .     S
V20     V5    10.0   1_556     S
V20     V18    10.0   1_455     S
V20     V19    10.0   1_556     S
V20     V24    10.0   .     S
V21     V23    10.0   1_565     S
V21     V22    10.0   1_554     S
V21     V22    10.0   .     S
V21     V27    10.0   .     S
V22     V13    10.0   1_556     S
V22     V24    10.0   1_565     S
V22     V21    10.0   1_556     S
V22     V28    10.0   .     S
V23     V21    10.0   1_545     S
V23     V24    10.0   1_554     S
V23     V24    10.0   .     S
V24     V1    10.0   1_556     S
V24     V22    10.0   1_545     S
V24     V23    10.0   1_556     S
V25     V27    10.0   1_655     S
V25     V26    10.0   1_554     S
V25     V26    10.0   .     S
V25     V29    10.0   .     S
V26     V9    10.0   1_556     S
V26     V28    10.0   1_655     S
V26     V25    10.0   1_556     S
V26     V30    10.0   .     S
V27     V25    10.0   1_455     S
V27     V28    10.0   1_554     S
V27     V28    10.0   .     S
V28     V7    10.0   1_556     S
V28     V26    10.0   1_455     S
V28     V27    10.0   1_556     S
V29     V31    10.0   1_565     S
V29     V30    10.0   1_554     S
V29     V30    10.0   .     S
V30     V15    10.0   1_556     S
V30     V32    10.0   1_565     S
V30     V29    10.0   1_556     S
V31     V29    10.0   1_545     S
V31     V32    10.0   1_554     S
V31     V32    10.0   .     S
V32     V3    10.0   1_556     S
V32     V30    10.0   1_545     S
V32     V31    10.0   1_556     S
