data_whc
_audit_creation_date              2019-12-31
_audit_creation_method            'Pymatgen'
_symmetry_space_group_name_H-M    'P1'
_symmetry_Int_Tables_number       1
loop_
_symmetry_equiv_pos_as_xyz
  x,y,z
_cell_length_a                    22.8054
_cell_length_b                    22.8054
_cell_length_c                    39.4732
_cell_angle_alpha                 90.0
_cell_angle_beta                 90.0
_cell_angle_gamma                 90.0
loop_
_atom_site_label
_atom_site_type_symbol
_atom_site_fract_x
_atom_site_fract_y
_atom_site_fract_z
V1     V     0.5355   0.7836   0.0491
V2     V     0.5355   0.7836   0.5491
V3     V     0.7836   0.5355   0.2009
V4     V     0.7836   0.5355   0.7009
V5     V     0.5355   0.2164   0.2991
V6     V     0.5355   0.2164   0.7991
V7     V     0.7836   0.4645   0.4509
V8     V     0.7836   0.4645   0.9509
V9     V     0.4645   0.2164   0.0491
V10     V     0.4645   0.2164   0.5491
V11     V     0.2164   0.4645   0.2009
V12     V     0.2164   0.4645   0.7009
V13     V     0.2164   0.5355   0.4509
V14     V     0.2164   0.5355   0.9509
V15     V     0.4645   0.7836   0.2991
V16     V     0.4645   0.7836   0.7991
loop_
_geom_bond_atom_site_label_1
_geom_bond_atom_site_label_2
_geom_bond_distance
_geom_bond_site_symmetry_2
_ccdc_geom_bond_type
V1     V15    10.0   .     S
V1     V3    10.0   .     S
V1     V8    10.0   1_554     S
V1     V16    10.0   1_554     S
V1     V14    10.0   1_554     S
V1     V9    10.0   1_565     S
V2     V16    10.0   .     S
V2     V4    10.0   .     S
V2     V7    10.0   .     S
V2     V15    10.0   .     S
V2     V13    10.0   .     S
V2     V10    10.0   1_565     S
V3     V15    10.0   .     S
V3     V8    10.0   1_554     S
V3     V7    10.0   .     S
V3     V5    10.0   .     S
V3     V11    10.0   1_655     S
V4     V16    10.0   .     S
V4     V7    10.0   .     S
V4     V8    10.0   .     S
V4     V6    10.0   .     S
V4     V12    10.0   1_655     S
V5     V10    10.0   .     S
V5     V7    10.0   .     S
V5     V9    10.0   .     S
V5     V11    10.0   .     S
V5     V15    10.0   1_545     S
V6     V9    10.0   1_556     S
V6     V8    10.0   .     S
V6     V10    10.0   .     S
V6     V12    10.0   .     S
V6     V16    10.0   1_545     S
V7     V10    10.0   .     S
V7     V13    10.0   1_655     S
V8     V3    10.0   1_556     S
V8     V1    10.0   1_556     S
V8     V9    10.0   1_556     S
V8     V14    10.0   1_655     S
V9     V6    10.0   1_554     S
V9     V8    10.0   1_554     S
V9     V11    10.0   .     S
V9     V14    10.0   1_554     S
V9     V1    10.0   1_545     S
V10     V12    10.0   .     S
V10     V13    10.0   .     S
V10     V2    10.0   1_545     S
V11     V14    10.0   1_554     S
V11     V13    10.0   .     S
V11     V15    10.0   .     S
V11     V3    10.0   1_455     S
V12     V13    10.0   .     S
V12     V14    10.0   .     S
V12     V16    10.0   .     S
V12     V4    10.0   1_455     S
V13     V15    10.0   .     S
V13     V7    10.0   1_455     S
V14     V11    10.0   1_556     S
V14     V9    10.0   1_556     S
V14     V16    10.0   .     S
V14     V1    10.0   1_556     S
V14     V8    10.0   1_455     S
V15     V5    10.0   1_565     S
V16     V1    10.0   1_556     S
V16     V6    10.0   1_565     S
