data_whg
_audit_creation_date              2020-02-02
_audit_creation_method            'Pymatgen'
_symmetry_space_group_name_H-M    'P1'
_symmetry_Int_Tables_number       1
loop_
_symmetry_equiv_pos_as_xyz
  x,y,z
_cell_length_a                    25.4731
_cell_length_b                    25.4731
_cell_length_c                    27.6999
_cell_angle_alpha                 90.0
_cell_angle_beta                 90.0
_cell_angle_gamma                 90.0
loop_
_atom_site_label
_atom_site_type_symbol
_atom_site_fract_x
_atom_site_fract_y
_atom_site_fract_z
V1     V     0.8271   0.4833   0.416
V2     V     0.1729   0.5167   0.584
V3     V     0.4833   0.6729   0.416
V4     V     0.5167   0.3271   0.584
V5     V     0.6729   0.0167   0.416
V6     V     0.3271   0.9833   0.584
V7     V     0.0167   0.8271   0.416
V8     V     0.9833   0.1729   0.584
V9     V     0.0167   0.6729   0.084
V10     V     0.9833   0.3271   0.916
V11     V     0.6729   0.4833   0.084
V12     V     0.3271   0.5167   0.916
V13     V     0.8271   0.0167   0.084
V14     V     0.1729   0.9833   0.916
V15     V     0.4833   0.8271   0.084
V16     V     0.5167   0.1729   0.916
loop_
_geom_bond_atom_site_label_1
_geom_bond_atom_site_label_2
_geom_bond_distance
_geom_bond_site_symmetry_2
_ccdc_geom_bond_type
V1     V8    10.0   .     S
V1     V2    10.0   1_655     S
V1     V7    10.0   1_655     S
V1     V4    10.0   .     S
V1     V3    10.0   .     S
V1     V11    10.0   .     S
V2     V8    10.0   1_455     S
V2     V3    10.0   .     S
V2     V4    10.0   .     S
V2     V1    10.0   1_455     S
V2     V7    10.0   .     S
V2     V12    10.0   .     S
V3     V4    10.0   .     S
V3     V6    10.0   .     S
V3     V5    10.0   1_565     S
V3     V15    10.0   .     S
V4     V5    10.0   .     S
V4     V6    10.0   1_545     S
V4     V16    10.0   .     S
V5     V6    10.0   1_545     S
V5     V3    10.0   1_545     S
V5     V8    10.0   .     S
V5     V7    10.0   1_645     S
V5     V13    10.0   .     S
V6     V4    10.0   1_565     S
V6     V5    10.0   1_565     S
V6     V7    10.0   .     S
V6     V8    10.0   1_465     S
V6     V14    10.0   .     S
V7     V1    10.0   1_455     S
V7     V8    10.0   1_465     S
V7     V5    10.0   1_465     S
V7     V9    10.0   .     S
V8     V2    10.0   1_655     S
V8     V6    10.0   1_645     S
V8     V7    10.0   1_645     S
V8     V10    10.0   .     S
V9     V10    10.0   1_454     S
V9     V11    10.0   1_455     S
V9     V12    10.0   1_554     S
V9     V14    10.0   1_554     S
V9     V13    10.0   1_465     S
V10     V9    10.0   1_656     S
V10     V11    10.0   1_556     S
V10     V12    10.0   1_655     S
V10     V13    10.0   1_556     S
V10     V14    10.0   1_645     S
V11     V10    10.0   1_554     S
V11     V9    10.0   1_655     S
V11     V12    10.0   1_554     S
V11     V15    10.0   .     S
V11     V16    10.0   1_554     S
V12     V9    10.0   1_556     S
V12     V10    10.0   1_455     S
V12     V11    10.0   1_556     S
V12     V15    10.0   1_556     S
V12     V16    10.0   .     S
V13     V10    10.0   1_554     S
V13     V14    10.0   1_644     S
V13     V9    10.0   1_645     S
V13     V16    10.0   1_554     S
V13     V15    10.0   1_545     S
V14     V10    10.0   1_465     S
V14     V13    10.0   1_466     S
V14     V9    10.0   1_556     S
V14     V15    10.0   1_556     S
V14     V16    10.0   1_565     S
V15     V12    10.0   1_554     S
V15     V14    10.0   1_554     S
V15     V16    10.0   1_564     S
V15     V13    10.0   1_565     S
V16     V14    10.0   1_545     S
V16     V11    10.0   1_556     S
V16     V15    10.0   1_546     S
V16     V13    10.0   1_556     S
