data_whi
_audit_creation_date              2020-02-02
_audit_creation_method            'Pymatgen'
_symmetry_space_group_name_H-M    'P1'
_symmetry_Int_Tables_number       1
loop_
_symmetry_equiv_pos_as_xyz
  x,y,z
_cell_length_a                    33.7184
_cell_length_b                    33.7184
_cell_length_c                    14.5324
_cell_angle_alpha                 90.0
_cell_angle_beta                 90.0
_cell_angle_gamma                 90.0
loop_
_atom_site_label
_atom_site_type_symbol
_atom_site_fract_x
_atom_site_fract_y
_atom_site_fract_z
V1     V     0.996   0.6481   0.5132
V2     V     0.1481   0.496   0.9868
V3     V     0.004   0.3519   0.4868
V4     V     0.8519   0.504   0.0132
V5     V     0.6481   0.504   0.5132
V6     V     0.496   0.3519   0.9868
V7     V     0.3519   0.496   0.4868
V8     V     0.504   0.6481   0.0132
V9     V     0.496   0.1481   0.4868
V10     V     0.6481   0.996   0.0132
V11     V     0.3519   0.004   0.9868
V12     V     0.504   0.8519   0.5132
V13     V     0.004   0.1481   0.9868
V14     V     0.8519   0.996   0.5132
V15     V     0.1481   0.004   0.4868
V16     V     0.996   0.8519   0.0132
loop_
_geom_bond_atom_site_label_1
_geom_bond_atom_site_label_2
_geom_bond_distance
_geom_bond_site_symmetry_2
_ccdc_geom_bond_type
V1     V4    10.0   1_556     S
V1     V2    10.0   1_655     S
V1     V4    10.0   .     S
V1     V3    10.0   1_655     S
V1     V16    10.0   .     S
V1     V16    10.0   1_556     S
V2     V4    10.0   1_456     S
V2     V3    10.0   1_556     S
V2     V1    10.0   1_455     S
V2     V3    10.0   .     S
V2     V7    10.0   1_556     S
V2     V7    10.0   .     S
V3     V2    10.0   1_554     S
V3     V1    10.0   1_455     S
V3     V4    10.0   1_455     S
V3     V13    10.0   1_554     S
V3     V13    10.0   .     S
V4     V1    10.0   1_554     S
V4     V2    10.0   1_654     S
V4     V3    10.0   1_655     S
V4     V5    10.0   .     S
V4     V5    10.0   1_554     S
V5     V8    10.0   1_556     S
V5     V6    10.0   .     S
V5     V8    10.0   .     S
V5     V7    10.0   .     S
V5     V4    10.0   1_556     S
V6     V8    10.0   1_556     S
V6     V7    10.0   1_556     S
V6     V7    10.0   .     S
V6     V9    10.0   1_556     S
V6     V9    10.0   .     S
V7     V2    10.0   1_554     S
V7     V6    10.0   1_554     S
V7     V8    10.0   .     S
V8     V5    10.0   1_554     S
V8     V6    10.0   1_554     S
V8     V12    10.0   .     S
V8     V12    10.0   1_554     S
V9     V6    10.0   1_554     S
V9     V12    10.0   1_545     S
V9     V11    10.0   .     S
V9     V10    10.0   1_545     S
V9     V11    10.0   1_554     S
V10     V12    10.0   .     S
V10     V9    10.0   1_565     S
V10     V12    10.0   1_554     S
V10     V11    10.0   1_564     S
V10     V14    10.0   .     S
V10     V14    10.0   1_554     S
V11     V10    10.0   1_546     S
V11     V9    10.0   1_556     S
V11     V12    10.0   1_545     S
V11     V15    10.0   1_556     S
V11     V15    10.0   .     S
V12     V9    10.0   1_565     S
V12     V10    10.0   1_556     S
V12     V11    10.0   1_565     S
V12     V8    10.0   1_556     S
V13     V15    10.0   .     S
V13     V14    10.0   1_445     S
V13     V15    10.0   1_556     S
V13     V16    10.0   1_446     S
V13     V3    10.0   1_556     S
V14     V16    10.0   .     S
V14     V15    10.0   1_665     S
V14     V13    10.0   1_665     S
V14     V16    10.0   1_556     S
V14     V10    10.0   1_556     S
V15     V11    10.0   1_554     S
V15     V14    10.0   1_445     S
V15     V13    10.0   1_554     S
V15     V16    10.0   1_445     S
V16     V13    10.0   1_664     S
V16     V14    10.0   1_554     S
V16     V15    10.0   1_665     S
V16     V1    10.0   1_554     S
