data_whl
_audit_creation_date              2020-02-02
_audit_creation_method            'Pymatgen'
_symmetry_space_group_name_H-M    'P1'
_symmetry_Int_Tables_number       1
loop_
_symmetry_equiv_pos_as_xyz
  x,y,z
_cell_length_a                    45.3354
_cell_length_b                    45.3354
_cell_length_c                    19.9998
_cell_angle_alpha                 90.0
_cell_angle_beta                 90.0
_cell_angle_gamma                 90.0
loop_
_atom_site_label
_atom_site_type_symbol
_atom_site_fract_x
_atom_site_fract_y
_atom_site_fract_z
V1     V     0.358   0.993   0.4491
V2     V     0.358   0.993   0.9491
V3     V     0.493   0.858   0.1991
V4     V     0.493   0.858   0.6991
V5     V     0.507   0.142   0.3009
V6     V     0.507   0.142   0.8009
V7     V     0.642   0.007   0.0509
V8     V     0.642   0.007   0.5509
V9     V     0.142   0.993   0.0509
V10     V     0.142   0.993   0.5509
V11     V     0.007   0.858   0.3009
V12     V     0.007   0.858   0.8009
V13     V     0.993   0.142   0.1991
V14     V     0.993   0.142   0.6991
V15     V     0.858   0.007   0.4491
V16     V     0.858   0.007   0.9491
V17     V     0.507   0.358   0.1991
V18     V     0.507   0.358   0.6991
V19     V     0.642   0.493   0.4491
V20     V     0.642   0.493   0.9491
V21     V     0.358   0.507   0.0509
V22     V     0.358   0.507   0.5509
V23     V     0.493   0.642   0.3009
V24     V     0.493   0.642   0.8009
V25     V     0.993   0.358   0.3009
V26     V     0.993   0.358   0.8009
V27     V     0.858   0.493   0.0509
V28     V     0.858   0.493   0.5509
V29     V     0.142   0.507   0.4491
V30     V     0.142   0.507   0.9491
V31     V     0.007   0.642   0.1991
V32     V     0.007   0.642   0.6991
loop_
_geom_bond_atom_site_label_1
_geom_bond_atom_site_label_2
_geom_bond_distance
_geom_bond_site_symmetry_2
_ccdc_geom_bond_type
V1     V4    10.0   .     S
V1     V2    10.0   1_554     S
V1     V2    10.0   .     S
V1     V3    10.0   .     S
V1     V5    10.0   1_565     S
V1     V10    10.0   .     S
V2     V3    10.0   1_556     S
V2     V1    10.0   1_556     S
V2     V4    10.0   .     S
V2     V6    10.0   1_565     S
V2     V9    10.0   1_556     S
V3     V2    10.0   1_554     S
V3     V4    10.0   .     S
V3     V4    10.0   1_554     S
V3     V7    10.0   1_565     S
V3     V23    10.0   .     S
V4     V3    10.0   1_556     S
V4     V8    10.0   1_565     S
V4     V24    10.0   .     S
V5     V7    10.0   .     S
V5     V6    10.0   1_554     S
V5     V6    10.0   .     S
V5     V8    10.0   .     S
V5     V1    10.0   1_545     S
V5     V17    10.0   .     S
V6     V8    10.0   .     S
V6     V5    10.0   1_556     S
V6     V7    10.0   1_556     S
V6     V2    10.0   1_545     S
V6     V18    10.0   .     S
V7     V6    10.0   1_554     S
V7     V8    10.0   .     S
V7     V8    10.0   1_554     S
V7     V3    10.0   1_545     S
V7     V16    10.0   1_554     S
V8     V7    10.0   1_556     S
V8     V4    10.0   1_545     S
V8     V15    10.0   .     S
V9     V12    10.0   1_554     S
V9     V10    10.0   .     S
V9     V10    10.0   1_554     S
V9     V11    10.0   .     S
V9     V13    10.0   1_465     S
V9     V2    10.0   1_554     S
V10     V11    10.0   .     S
V10     V9    10.0   1_556     S
V10     V12    10.0   .     S
V10     V14    10.0   1_465     S
V11     V12    10.0   1_554     S
V11     V12    10.0   .     S
V11     V15    10.0   1_465     S
V11     V31    10.0   .     S
V12     V9    10.0   1_556     S
V12     V11    10.0   1_556     S
V12     V16    10.0   1_465     S
V12     V32    10.0   .     S
V13     V16    10.0   1_554     S
V13     V14    10.0   .     S
V13     V14    10.0   1_554     S
V13     V15    10.0   .     S
V13     V9    10.0   1_645     S
V13     V25    10.0   .     S
V14     V15    10.0   .     S
V14     V13    10.0   1_556     S
V14     V16    10.0   .     S
V14     V10    10.0   1_645     S
V14     V26    10.0   .     S
V15     V16    10.0   1_554     S
V15     V16    10.0   .     S
V15     V11    10.0   1_645     S
V16     V13    10.0   1_556     S
V16     V15    10.0   1_556     S
V16     V12    10.0   1_645     S
V16     V7    10.0   1_556     S
V17     V18    10.0   .     S
V17     V18    10.0   1_554     S
V17     V19    10.0   .     S
V17     V20    10.0   1_554     S
V17     V21    10.0   .     S
V18     V17    10.0   1_556     S
V18     V20    10.0   .     S
V18     V19    10.0   .     S
V18     V22    10.0   .     S
V19     V20    10.0   1_554     S
V19     V20    10.0   .     S
V19     V23    10.0   .     S
V19     V28    10.0   .     S
V20     V17    10.0   1_556     S
V20     V19    10.0   1_556     S
V20     V24    10.0   .     S
V20     V27    10.0   1_556     S
V21     V24    10.0   1_554     S
V21     V22    10.0   .     S
V21     V22    10.0   1_554     S
V21     V23    10.0   .     S
V21     V30    10.0   1_554     S
V22     V23    10.0   .     S
V22     V21    10.0   1_556     S
V22     V24    10.0   .     S
V22     V29    10.0   .     S
V23     V24    10.0   1_554     S
V23     V24    10.0   .     S
V24     V21    10.0   1_556     S
V24     V23    10.0   1_556     S
V25     V27    10.0   .     S
V25     V26    10.0   1_554     S
V25     V26    10.0   .     S
V25     V28    10.0   .     S
V25     V29    10.0   1_655     S
V26     V28    10.0   .     S
V26     V25    10.0   1_556     S
V26     V27    10.0   1_556     S
V26     V30    10.0   1_655     S
V27     V26    10.0   1_554     S
V27     V28    10.0   .     S
V27     V28    10.0   1_554     S
V27     V31    10.0   1_655     S
V27     V20    10.0   1_554     S
V28     V27    10.0   1_556     S
V28     V32    10.0   1_655     S
V29     V32    10.0   .     S
V29     V30    10.0   1_554     S
V29     V30    10.0   .     S
V29     V31    10.0   .     S
V29     V25    10.0   1_455     S
V30     V31    10.0   1_556     S
V30     V29    10.0   1_556     S
V30     V32    10.0   .     S
V30     V26    10.0   1_455     S
V30     V21    10.0   1_556     S
V31     V30    10.0   1_554     S
V31     V32    10.0   .     S
V31     V32    10.0   1_554     S
V31     V27    10.0   1_455     S
V32     V31    10.0   1_556     S
V32     V28    10.0   1_455     S
