data_who
_audit_creation_date              2020-02-02
_audit_creation_method            'Pymatgen'
_symmetry_space_group_name_H-M    'P1'
_symmetry_Int_Tables_number       1
loop_
_symmetry_equiv_pos_as_xyz
  x,y,z
_cell_length_a                    19.8352
_cell_length_b                    19.8352
_cell_length_c                    36.6153
_cell_angle_alpha                 90.0
_cell_angle_beta                 90.0
_cell_angle_gamma                 90.0
loop_
_atom_site_label
_atom_site_type_symbol
_atom_site_fract_x
_atom_site_fract_y
_atom_site_fract_z
V1     V     0.1229   0.0323   0.6179
V2     V     0.3771   0.4677   0.6179
V3     V     0.0323   0.1229   0.8821
V4     V     0.4677   0.3771   0.8821
V5     V     0.6229   0.5323   0.3821
V6     V     0.8771   0.9677   0.3821
V7     V     0.5323   0.6229   0.1179
V8     V     0.9677   0.8771   0.1179
V9     V     0.8771   0.5323   0.6179
V10     V     0.6229   0.9677   0.6179
V11     V     0.5323   0.8771   0.8821
V12     V     0.9677   0.6229   0.8821
V13     V     0.3771   0.0323   0.3821
V14     V     0.1229   0.4677   0.3821
V15     V     0.0323   0.3771   0.1179
V16     V     0.4677   0.1229   0.1179
loop_
_geom_bond_atom_site_label_1
_geom_bond_atom_site_label_2
_geom_bond_distance
_geom_bond_site_symmetry_2
_ccdc_geom_bond_type
V1     V2    10.0   .     S
V1     V3    10.0   .     S
V1     V6    10.0   1_445     S
V1     V13    10.0   .     S
V1     V10    10.0   1_545     S
V1     V10    10.0   1_445     S
V2     V4    10.0   .     S
V2     V5    10.0   .     S
V2     V9    10.0   .     S
V2     V14    10.0   .     S
V2     V9    10.0   1_455     S
V3     V15    10.0   1_556     S
V3     V12    10.0   1_455     S
V3     V4    10.0   .     S
V3     V8    10.0   1_446     S
V3     V12    10.0   1_445     S
V4     V16    10.0   1_556     S
V4     V11    10.0   1_545     S
V4     V11    10.0   .     S
V4     V7    10.0   1_556     S
V5     V6    10.0   .     S
V5     V7    10.0   .     S
V5     V9    10.0   .     S
V5     V14    10.0   1_655     S
V5     V14    10.0   .     S
V6     V8    10.0   .     S
V6     V1    10.0   1_665     S
V6     V13    10.0   1_665     S
V6     V10    10.0   .     S
V6     V13    10.0   1_565     S
V7     V16    10.0   .     S
V7     V11    10.0   1_554     S
V7     V16    10.0   1_565     S
V7     V8    10.0   .     S
V7     V4    10.0   1_554     S
V8     V15    10.0   1_665     S
V8     V3    10.0   1_664     S
V8     V12    10.0   1_554     S
V8     V15    10.0   1_655     S
V9     V2    10.0   1_655     S
V9     V10    10.0   .     S
V9     V12    10.0   .     S
V9     V14    10.0   1_655     S
V10     V1    10.0   1_565     S
V10     V11    10.0   .     S
V10     V13    10.0   1_565     S
V10     V1    10.0   1_665     S
V11     V4    10.0   1_565     S
V11     V7    10.0   1_556     S
V11     V12    10.0   .     S
V11     V16    10.0   1_566     S
V12     V3    10.0   1_655     S
V12     V8    10.0   1_556     S
V12     V3    10.0   1_665     S
V12     V15    10.0   1_656     S
V13     V6    10.0   1_445     S
V13     V14    10.0   .     S
V13     V16    10.0   .     S
V13     V10    10.0   1_545     S
V13     V6    10.0   1_545     S
V14     V5    10.0   1_455     S
V14     V15    10.0   .     S
V14     V9    10.0   1_455     S
V15     V3    10.0   1_554     S
V15     V8    10.0   1_445     S
V15     V8    10.0   1_455     S
V15     V16    10.0   .     S
V15     V12    10.0   1_454     S
V16     V4    10.0   1_554     S
V16     V7    10.0   1_545     S
V16     V11    10.0   1_544     S
