data_whu
_audit_creation_date              2020-02-02
_audit_creation_method            'Pymatgen'
_symmetry_space_group_name_H-M    'P1'
_symmetry_Int_Tables_number       1
loop_
_symmetry_equiv_pos_as_xyz
  x,y,z
_cell_length_a                    44.7064
_cell_length_b                    44.7064
_cell_length_c                    20.0
_cell_angle_alpha                 90.0
_cell_angle_beta                 90.0
_cell_angle_gamma                 90.0
loop_
_atom_site_label
_atom_site_type_symbol
_atom_site_fract_x
_atom_site_fract_y
_atom_site_fract_z
V1     V     0.3469   0.25   0.0
V2     V     0.3469   0.25   0.5
V3     V     0.5   0.4031   0.125
V4     V     0.5   0.4031   0.625
V5     V     0.6531   0.25   0.0
V6     V     0.6531   0.25   0.5
V7     V     0.5   0.0969   0.125
V8     V     0.5   0.0969   0.625
V9     V     0.0   0.4031   0.125
V10     V     0.0   0.4031   0.625
V11     V     0.0   0.0969   0.125
V12     V     0.0   0.0969   0.625
V13     V     0.1531   0.25   0.25
V14     V     0.1531   0.25   0.75
V15     V     0.8469   0.25   0.25
V16     V     0.8469   0.25   0.75
V17     V     0.3469   0.75   0.0
V18     V     0.3469   0.75   0.5
V19     V     0.6531   0.75   0.0
V20     V     0.6531   0.75   0.5
V21     V     0.5   0.5969   0.375
V22     V     0.5   0.5969   0.875
V23     V     0.5   0.9031   0.375
V24     V     0.5   0.9031   0.875
V25     V     0.0   0.5969   0.375
V26     V     0.0   0.5969   0.875
V27     V     0.1531   0.75   0.25
V28     V     0.1531   0.75   0.75
V29     V     0.0   0.9031   0.375
V30     V     0.0   0.9031   0.875
V31     V     0.8469   0.75   0.25
V32     V     0.8469   0.75   0.75
loop_
_geom_bond_atom_site_label_1
_geom_bond_atom_site_label_2
_geom_bond_distance
_geom_bond_site_symmetry_2
_ccdc_geom_bond_type
V1     V13    10.0   .     S
V1     V14    10.0   1_554     S
V1     V7    10.0   .     S
V1     V3    10.0   .     S
V1     V2    10.0   .     S
V1     V2    10.0   1_554     S
V2     V14    10.0   .     S
V2     V13    10.0   .     S
V2     V8    10.0   .     S
V2     V4    10.0   .     S
V2     V1    10.0   1_556     S
V3     V5    10.0   .     S
V3     V4    10.0   .     S
V3     V4    10.0   1_554     S
V3     V22    10.0   1_554     S
V3     V21    10.0   .     S
V4     V6    10.0   .     S
V4     V3    10.0   1_556     S
V4     V21    10.0   .     S
V4     V22    10.0   .     S
V5     V7    10.0   .     S
V5     V6    10.0   .     S
V5     V6    10.0   1_554     S
V5     V15    10.0   .     S
V5     V16    10.0   1_554     S
V6     V8    10.0   .     S
V6     V5    10.0   1_556     S
V6     V16    10.0   .     S
V6     V15    10.0   .     S
V7     V8    10.0   .     S
V7     V8    10.0   1_554     S
V7     V24    10.0   1_544     S
V7     V23    10.0   1_545     S
V8     V7    10.0   1_556     S
V8     V23    10.0   1_545     S
V8     V24    10.0   1_545     S
V9     V15    10.0   1_455     S
V9     V13    10.0   .     S
V9     V10    10.0   .     S
V9     V10    10.0   1_554     S
V9     V25    10.0   .     S
V9     V26    10.0   1_554     S
V10     V16    10.0   1_455     S
V10     V14    10.0   .     S
V10     V9    10.0   1_556     S
V10     V26    10.0   .     S
V10     V25    10.0   .     S
V11     V15    10.0   1_455     S
V11     V13    10.0   .     S
V11     V12    10.0   .     S
V11     V12    10.0   1_554     S
V11     V29    10.0   1_545     S
V11     V30    10.0   1_544     S
V12     V16    10.0   1_455     S
V12     V14    10.0   .     S
V12     V11    10.0   1_556     S
V12     V30    10.0   1_545     S
V12     V29    10.0   1_545     S
V13     V14    10.0   1_554     S
V13     V14    10.0   .     S
V14     V1    10.0   1_556     S
V14     V13    10.0   1_556     S
V15     V9    10.0   1_655     S
V15     V11    10.0   1_655     S
V15     V16    10.0   1_554     S
V15     V16    10.0   .     S
V16     V10    10.0   1_655     S
V16     V12    10.0   1_655     S
V16     V15    10.0   1_556     S
V16     V5    10.0   1_556     S
V17     V28    10.0   1_554     S
V17     V27    10.0   .     S
V17     V24    10.0   1_554     S
V17     V22    10.0   1_554     S
V17     V18    10.0   .     S
V17     V18    10.0   1_554     S
V18     V27    10.0   .     S
V18     V28    10.0   .     S
V18     V23    10.0   .     S
V18     V21    10.0   .     S
V18     V17    10.0   1_556     S
V19     V24    10.0   1_554     S
V19     V22    10.0   1_554     S
V19     V20    10.0   .     S
V19     V20    10.0   1_554     S
V19     V32    10.0   1_554     S
V19     V31    10.0   .     S
V20     V23    10.0   .     S
V20     V21    10.0   .     S
V20     V19    10.0   1_556     S
V20     V31    10.0   .     S
V20     V32    10.0   .     S
V21     V22    10.0   1_554     S
V21     V22    10.0   .     S
V22     V3    10.0   1_556     S
V22     V17    10.0   1_556     S
V22     V19    10.0   1_556     S
V22     V21    10.0   1_556     S
V23     V8    10.0   1_565     S
V23     V7    10.0   1_565     S
V23     V24    10.0   1_554     S
V23     V24    10.0   .     S
V24     V7    10.0   1_566     S
V24     V8    10.0   1_565     S
V24     V17    10.0   1_556     S
V24     V19    10.0   1_556     S
V24     V23    10.0   1_556     S
V25     V31    10.0   1_455     S
V25     V27    10.0   .     S
V25     V26    10.0   1_554     S
V25     V26    10.0   .     S
V26     V9    10.0   1_556     S
V26     V32    10.0   1_455     S
V26     V28    10.0   .     S
V26     V25    10.0   1_556     S
V27     V29    10.0   .     S
V27     V28    10.0   1_554     S
V27     V28    10.0   .     S
V28     V17    10.0   1_556     S
V28     V30    10.0   .     S
V28     V27    10.0   1_556     S
V29     V11    10.0   1_565     S
V29     V12    10.0   1_565     S
V29     V31    10.0   1_455     S
V29     V30    10.0   1_554     S
V29     V30    10.0   .     S
V30     V12    10.0   1_565     S
V30     V11    10.0   1_566     S
V30     V32    10.0   1_455     S
V30     V29    10.0   1_556     S
V31     V25    10.0   1_655     S
V31     V29    10.0   1_655     S
V31     V32    10.0   1_554     S
V31     V32    10.0   .     S
V32     V19    10.0   1_556     S
V32     V26    10.0   1_655     S
V32     V30    10.0   1_655     S
V32     V31    10.0   1_556     S
