data_whv
_audit_creation_date              2020-02-02
_audit_creation_method            'Pymatgen'
_symmetry_space_group_name_H-M    'P1'
_symmetry_Int_Tables_number       1
loop_
_symmetry_equiv_pos_as_xyz
  x,y,z
_cell_length_a                    32.6039
_cell_length_b                    32.6039
_cell_length_c                    16.3856
_cell_angle_alpha                 90.0
_cell_angle_beta                 90.0
_cell_angle_gamma                 90.0
loop_
_atom_site_label
_atom_site_type_symbol
_atom_site_fract_x
_atom_site_fract_y
_atom_site_fract_z
V1     V     0.4378   0.9378   0.25
V2     V     0.0622   0.0622   0.75
V3     V     0.1878   0.8122   0.5
V4     V     0.9378   0.9378   0.25
V5     V     0.8122   0.1878   0.5
V6     V     0.1878   0.3122   0.5
V7     V     0.0622   0.5622   0.25
V8     V     0.9378   0.4378   0.75
V9     V     0.3122   0.6878   0.0
V10     V     0.6878   0.3122   0.0
V11     V     0.4378   0.4378   0.75
V12     V     0.3122   0.1878   0.0
V13     V     0.5622   0.0622   0.75
V14     V     0.6878   0.8122   0.0
V15     V     0.8122   0.6878   0.5
V16     V     0.5622   0.5622   0.25
loop_
_geom_bond_atom_site_label_1
_geom_bond_atom_site_label_2
_geom_bond_distance
_geom_bond_site_symmetry_2
_ccdc_geom_bond_type
V1     V14    10.0   .     S
V1     V3    10.0   .     S
V1     V12    10.0   1_565     S
V1     V13    10.0   1_564     S
V1     V9    10.0   .     S
V1     V13    10.0   1_565     S
V2     V3    10.0   1_545     S
V2     V5    10.0   1_455     S
V2     V4    10.0   1_445     S
V2     V12    10.0   1_556     S
V2     V6    10.0   .     S
V2     V4    10.0   1_446     S
V3     V2    10.0   1_565     S
V3     V4    10.0   1_455     S
V3     V9    10.0   .     S
V3     V7    10.0   .     S
V3     V9    10.0   1_556     S
V4     V2    10.0   1_665     S
V4     V3    10.0   1_655     S
V4     V5    10.0   1_565     S
V4     V15    10.0   .     S
V4     V14    10.0   .     S
V4     V2    10.0   1_664     S
V5     V2    10.0   1_655     S
V5     V4    10.0   1_545     S
V5     V8    10.0   .     S
V5     V10    10.0   1_556     S
V5     V13    10.0   .     S
V5     V10    10.0   .     S
V6     V7    10.0   .     S
V6     V8    10.0   1_455     S
V6     V12    10.0   1_556     S
V6     V11    10.0   .     S
V6     V12    10.0   .     S
V7     V9    10.0   .     S
V7     V8    10.0   1_455     S
V7     V15    10.0   1_455     S
V7     V8    10.0   1_454     S
V8     V6    10.0   1_655     S
V8     V10    10.0   1_556     S
V8     V7    10.0   1_655     S
V8     V15    10.0   .     S
V8     V7    10.0   1_656     S
V9     V16    10.0   .     S
V9     V11    10.0   1_554     S
V9     V3    10.0   1_554     S
V10     V13    10.0   1_554     S
V10     V5    10.0   1_554     S
V10     V16    10.0   .     S
V10     V11    10.0   1_554     S
V10     V8    10.0   1_554     S
V11     V12    10.0   1_556     S
V11     V9    10.0   1_556     S
V11     V10    10.0   1_556     S
V11     V16    10.0   1_556     S
V11     V16    10.0   .     S
V12     V11    10.0   1_554     S
V12     V6    10.0   1_554     S
V12     V1    10.0   1_545     S
V12     V13    10.0   1_554     S
V12     V2    10.0   1_554     S
V13     V10    10.0   1_556     S
V13     V12    10.0   1_556     S
V13     V14    10.0   1_546     S
V13     V1    10.0   1_546     S
V13     V1    10.0   1_545     S
V14     V15    10.0   .     S
V14     V16    10.0   .     S
V14     V13    10.0   1_564     S
V14     V15    10.0   1_554     S
V15     V16    10.0   .     S
V15     V7    10.0   1_655     S
V15     V14    10.0   1_556     S
V16     V11    10.0   1_554     S
