data_whw
_audit_creation_date              2020-02-02
_audit_creation_method            'Pymatgen'
_symmetry_space_group_name_H-M    'P1'
_symmetry_Int_Tables_number       1
loop_
_symmetry_equiv_pos_as_xyz
  x,y,z
_cell_length_a                    38.708
_cell_length_b                    38.708
_cell_length_c                    14.1423
_cell_angle_alpha                 90.0
_cell_angle_beta                 90.0
_cell_angle_gamma                 90.0
loop_
_atom_site_label
_atom_site_type_symbol
_atom_site_fract_x
_atom_site_fract_y
_atom_site_fract_z
V1     V     0.1292   0.75   0.375
V2     V     0.8708   0.75   0.375
V3     V     0.0   0.6208   0.875
V4     V     0.0   0.8792   0.875
V5     V     0.6292   0.75   0.125
V6     V     0.3708   0.75   0.125
V7     V     0.5   0.6208   0.625
V8     V     0.5   0.8792   0.625
V9     V     0.6292   0.25   0.875
V10     V     0.3708   0.25   0.875
V11     V     0.5   0.1208   0.375
V12     V     0.5   0.3792   0.375
V13     V     0.1292   0.25   0.625
V14     V     0.8708   0.25   0.625
V15     V     0.0   0.1208   0.125
V16     V     0.0   0.3792   0.125
loop_
_geom_bond_atom_site_label_1
_geom_bond_atom_site_label_2
_geom_bond_distance
_geom_bond_site_symmetry_2
_ccdc_geom_bond_type
V1     V2    10.0   1_455     S
V1     V3    10.0   .     S
V1     V4    10.0   1_554     S
V1     V3    10.0   1_554     S
V1     V4    10.0   .     S
V1     V6    10.0   .     S
V2     V1    10.0   1_655     S
V2     V4    10.0   1_654     S
V2     V3    10.0   1_654     S
V2     V4    10.0   1_655     S
V2     V3    10.0   1_655     S
V2     V5    10.0   .     S
V3     V4    10.0   .     S
V3     V2    10.0   1_456     S
V3     V1    10.0   1_556     S
V3     V2    10.0   1_455     S
V3     V16    10.0   1_556     S
V4     V1    10.0   1_556     S
V4     V2    10.0   1_456     S
V4     V2    10.0   1_455     S
V4     V15    10.0   1_566     S
V5     V6    10.0   .     S
V5     V8    10.0   .     S
V5     V7    10.0   .     S
V5     V8    10.0   1_554     S
V5     V7    10.0   1_554     S
V6     V7    10.0   .     S
V6     V7    10.0   1_554     S
V6     V8    10.0   .     S
V6     V8    10.0   1_554     S
V7     V6    10.0   1_556     S
V7     V8    10.0   .     S
V7     V5    10.0   1_556     S
V7     V12    10.0   .     S
V8     V5    10.0   1_556     S
V8     V6    10.0   1_556     S
V8     V11    10.0   1_565     S
V9     V10    10.0   .     S
V9     V12    10.0   .     S
V9     V11    10.0   .     S
V9     V11    10.0   1_556     S
V9     V12    10.0   1_556     S
V9     V14    10.0   .     S
V10     V11    10.0   .     S
V10     V12    10.0   .     S
V10     V11    10.0   1_556     S
V10     V12    10.0   1_556     S
V10     V13    10.0   .     S
V11     V8    10.0   1_545     S
V11     V12    10.0   .     S
V11     V9    10.0   1_554     S
V11     V10    10.0   1_554     S
V12     V9    10.0   1_554     S
V12     V10    10.0   1_554     S
V13     V14    10.0   1_455     S
V13     V15    10.0   .     S
V13     V15    10.0   1_556     S
V13     V16    10.0   1_556     S
V13     V16    10.0   .     S
V14     V13    10.0   1_655     S
V14     V16    10.0   1_656     S
V14     V16    10.0   1_655     S
V14     V15    10.0   1_656     S
V14     V15    10.0   1_655     S
V15     V4    10.0   1_544     S
V15     V16    10.0   .     S
V15     V13    10.0   1_554     S
V15     V14    10.0   1_454     S
V15     V14    10.0   1_455     S
V16     V14    10.0   1_454     S
V16     V13    10.0   1_554     S
V16     V14    10.0   1_455     S
V16     V3    10.0   1_554     S
