data_wid
_audit_creation_date              2020-02-02
_audit_creation_method            'Pymatgen'
_symmetry_space_group_name_H-M    'P1'
_symmetry_Int_Tables_number       1
loop_
_symmetry_equiv_pos_as_xyz
  x,y,z
_cell_length_a                    17.4073
_cell_length_b                    17.4073
_cell_length_c                    45.3013
_cell_angle_alpha                 90.0
_cell_angle_beta                 90.0
_cell_angle_gamma                 90.0
loop_
_atom_site_label
_atom_site_type_symbol
_atom_site_fract_x
_atom_site_fract_y
_atom_site_fract_z
V1     V     0.7351   0.915   0.9456
V2     V     0.835   0.4851   0.8044
V3     V     0.2649   0.585   0.9456
V4     V     0.165   0.0149   0.8044
V5     V     0.2351   0.915   0.5544
V6     V     0.335   0.4851   0.6956
V7     V     0.7649   0.585   0.5544
V8     V     0.665   0.0149   0.6956
V9     V     0.7649   0.085   0.4456
V10     V     0.2351   0.415   0.4456
V11     V     0.665   0.5149   0.3044
V12     V     0.335   0.9851   0.3043
V13     V     0.7351   0.415   0.0543
V14     V     0.835   0.9851   0.1956
V15     V     0.2649   0.085   0.0544
V16     V     0.165   0.5149   0.1956
loop_
_geom_bond_atom_site_label_1
_geom_bond_atom_site_label_2
_geom_bond_distance
_geom_bond_site_symmetry_2
_ccdc_geom_bond_type
V1     V2    10.0   .     S
V1     V4    10.0   1_665     S
V1     V3    10.0   .     S
V1     V13    10.0   1_566     S
V1     V15    10.0   1_566     S
V1     V13    10.0   1_556     S
V2     V6    10.0   .     S
V2     V8    10.0   .     S
V2     V3    10.0   1_655     S
V2     V4    10.0   1_655     S
V2     V6    10.0   1_655     S
V3     V4    10.0   1_565     S
V3     V2    10.0   1_455     S
V3     V15    10.0   1_566     S
V3     V13    10.0   1_556     S
V3     V15    10.0   1_556     S
V4     V8    10.0   1_455     S
V4     V1    10.0   1_445     S
V4     V3    10.0   1_545     S
V4     V2    10.0   1_455     S
V4     V8    10.0   .     S
V4     V6    10.0   .     S
V5     V6    10.0   .     S
V5     V8    10.0   1_565     S
V5     V7    10.0   1_455     S
V5     V10    10.0   .     S
V5     V9    10.0   1_465     S
V5     V10    10.0   1_565     S
V6     V7    10.0   .     S
V6     V8    10.0   .     S
V6     V2    10.0   1_455     S
V7     V8    10.0   1_565     S
V7     V5    10.0   1_655     S
V7     V10    10.0   1_655     S
V7     V9    10.0   .     S
V7     V9    10.0   1_565     S
V8     V4    10.0   1_655     S
V8     V7    10.0   1_545     S
V8     V5    10.0   1_545     S
V9     V7    10.0   1_545     S
V9     V5    10.0   1_645     S
V9     V12    10.0   1_545     S
V9     V11    10.0   .     S
V9     V10    10.0   1_655     S
V10     V7    10.0   1_455     S
V10     V5    10.0   1_545     S
V10     V12    10.0   1_545     S
V10     V11    10.0   .     S
V10     V9    10.0   1_455     S
V11     V16    10.0   1_655     S
V11     V14    10.0   .     S
V11     V12    10.0   .     S
V11     V16    10.0   .     S
V12     V14    10.0   .     S
V12     V9    10.0   1_565     S
V12     V10    10.0   1_565     S
V12     V16    10.0   .     S
V12     V14    10.0   1_455     S
V13     V1    10.0   1_544     S
V13     V16    10.0   1_655     S
V13     V14    10.0   1_545     S
V13     V15    10.0   .     S
V13     V1    10.0   1_554     S
V13     V3    10.0   1_554     S
V14     V12    10.0   1_655     S
V14     V13    10.0   1_565     S
V14     V15    10.0   1_665     S
V14     V16    10.0   1_655     S
V15     V1    10.0   1_544     S
V15     V3    10.0   1_544     S
V15     V16    10.0   .     S
V15     V14    10.0   1_445     S
V15     V3    10.0   1_554     S
V16     V11    10.0   1_455     S
V16     V13    10.0   1_455     S
V16     V14    10.0   1_455     S
