data_win
_audit_creation_date              2020-02-02
_audit_creation_method            'Pymatgen'
_symmetry_space_group_name_H-M    'P1'
_symmetry_Int_Tables_number       1
loop_
_symmetry_equiv_pos_as_xyz
  x,y,z
_cell_length_a                    45.4509
_cell_length_b                    45.4509
_cell_length_c                    19.7918
_cell_angle_alpha                 90.0
_cell_angle_beta                 90.0
_cell_angle_gamma                 90.0
loop_
_atom_site_label
_atom_site_type_symbol
_atom_site_fract_x
_atom_site_fract_y
_atom_site_fract_z
V1     V     0.0158   0.1084   0.4764
V2     V     0.9842   0.8916   0.5236
V3     V     0.1416   0.2342   0.7736
V4     V     0.3584   0.2658   0.7264
V5     V     0.8584   0.7658   0.2264
V6     V     0.6416   0.7342   0.2736
V7     V     0.5158   0.6084   0.9764
V8     V     0.4842   0.3916   0.0236
V9     V     0.1416   0.7658   0.7264
V10     V     0.3584   0.7342   0.7736
V11     V     0.0158   0.8916   0.0236
V12     V     0.9842   0.1084   0.9764
V13     V     0.4842   0.6084   0.4764
V14     V     0.5158   0.3916   0.5236
V15     V     0.8584   0.2342   0.2736
V16     V     0.6416   0.2658   0.2264
V17     V     0.4842   0.8916   0.9764
V18     V     0.5158   0.1084   0.0236
V19     V     0.1416   0.7342   0.2264
V20     V     0.3584   0.7658   0.2736
V21     V     0.0158   0.6084   0.5236
V22     V     0.9842   0.3916   0.4764
V23     V     0.8584   0.2658   0.7736
V24     V     0.6416   0.2342   0.7264
V25     V     0.9842   0.6084   0.0236
V26     V     0.0158   0.3916   0.9764
V27     V     0.8584   0.7342   0.7264
V28     V     0.6416   0.7658   0.7736
V29     V     0.4842   0.1084   0.5236
V30     V     0.5158   0.8916   0.4764
V31     V     0.1416   0.2658   0.2736
V32     V     0.3584   0.2342   0.2264
loop_
_geom_bond_atom_site_label_1
_geom_bond_atom_site_label_2
_geom_bond_distance
_geom_bond_site_symmetry_2
_ccdc_geom_bond_type
V1     V2    10.0   1_445     S
V1     V31    10.0   .     S
V1     V3    10.0   .     S
V1     V12    10.0   1_455     S
V1     V15    10.0   1_455     S
V1     V12    10.0   1_454     S
V2     V1    10.0   1_665     S
V2     V27    10.0   .     S
V2     V5    10.0   .     S
V2     V11    10.0   1_655     S
V2     V9    10.0   1_655     S
V2     V11    10.0   1_656     S
V3     V4    10.0   .     S
V3     V12    10.0   1_455     S
V3     V26    10.0   .     S
V3     V31    10.0   .     S
V3     V31    10.0   1_556     S
V4     V14    10.0   .     S
V4     V8    10.0   1_556     S
V4     V29    10.0   .     S
V4     V32    10.0   1_556     S
V4     V32    10.0   .     S
V5     V6    10.0   .     S
V5     V11    10.0   1_655     S
V5     V27    10.0   1_554     S
V5     V25    10.0   .     S
V5     V27    10.0   .     S
V6     V13    10.0   .     S
V6     V7    10.0   1_554     S
V6     V30    10.0   .     S
V6     V28    10.0   .     S
V6     V28    10.0   1_554     S
V7     V6    10.0   1_556     S
V7     V8    10.0   1_556     S
V7     V28    10.0   .     S
V7     V13    10.0   1_556     S
V7     V10    10.0   .     S
V7     V13    10.0   .     S
V8     V7    10.0   1_554     S
V8     V32    10.0   .     S
V8     V4    10.0   1_554     S
V8     V14    10.0   1_554     S
V8     V16    10.0   .     S
V8     V14    10.0   .     S
V9     V10    10.0   .     S
V9     V2    10.0   1_455     S
V9     V11    10.0   1_556     S
V9     V21    10.0   .     S
V9     V19    10.0   .     S
V9     V19    10.0   1_556     S
V10     V13    10.0   .     S
V10     V17    10.0   .     S
V10     V20    10.0   .     S
V10     V20    10.0   1_556     S
V11     V5    10.0   1_455     S
V11     V2    10.0   1_455     S
V11     V9    10.0   1_554     S
V11     V12    10.0   1_464     S
V11     V19    10.0   .     S
V11     V2    10.0   1_454     S
V12     V3    10.0   1_655     S
V12     V1    10.0   1_655     S
V12     V11    10.0   1_646     S
V12     V23    10.0   .     S
V12     V15    10.0   1_556     S
V12     V1    10.0   1_656     S
V13     V7    10.0   1_554     S
V13     V14    10.0   .     S
V13     V20    10.0   .     S
V14     V8    10.0   1_556     S
V14     V24    10.0   .     S
V14     V16    10.0   .     S
V15     V16    10.0   .     S
V15     V1    10.0   1_655     S
V15     V12    10.0   1_554     S
V15     V22    10.0   .     S
V15     V23    10.0   1_554     S
V15     V23    10.0   .     S
V16     V18    10.0   .     S
V16     V24    10.0   .     S
V16     V24    10.0   1_554     S
V17     V18    10.0   1_566     S
V17     V20    10.0   1_556     S
V17     V28    10.0   .     S
V17     V30    10.0   1_556     S
V17     V30    10.0   .     S
V18     V17    10.0   1_544     S
V18     V24    10.0   1_554     S
V18     V32    10.0   .     S
V18     V29    10.0   1_554     S
V18     V29    10.0   .     S
V19     V20    10.0   .     S
V19     V25    10.0   1_455     S
V19     V21    10.0   .     S
V19     V9    10.0   1_554     S
V20     V30    10.0   .     S
V20     V17    10.0   1_554     S
V20     V10    10.0   1_554     S
V21     V22    10.0   1_455     S
V21     V27    10.0   1_455     S
V21     V25    10.0   1_455     S
V21     V25    10.0   1_456     S
V22     V21    10.0   1_655     S
V22     V23    10.0   .     S
V22     V31    10.0   1_655     S
V22     V26    10.0   1_655     S
V22     V26    10.0   1_654     S
V23     V24    10.0   .     S
V23     V26    10.0   1_655     S
V23     V15    10.0   1_556     S
V24     V18    10.0   1_556     S
V24     V29    10.0   .     S
V24     V16    10.0   1_556     S
V25     V19    10.0   1_655     S
V25     V26    10.0   1_654     S
V25     V27    10.0   1_554     S
V25     V21    10.0   1_655     S
V25     V21    10.0   1_654     S
V26     V23    10.0   1_455     S
V26     V25    10.0   1_456     S
V26     V31    10.0   1_556     S
V26     V22    10.0   1_455     S
V26     V22    10.0   1_456     S
V27     V5    10.0   1_556     S
V27     V28    10.0   .     S
V27     V21    10.0   1_655     S
V27     V25    10.0   1_556     S
V28     V30    10.0   .     S
V28     V6    10.0   1_556     S
V29     V30    10.0   1_545     S
V29     V32    10.0   .     S
V29     V18    10.0   1_556     S
V30     V29    10.0   1_565     S
V30     V17    10.0   1_554     S
V31     V26    10.0   1_554     S
V31     V32    10.0   .     S
V31     V22    10.0   1_455     S
V31     V3    10.0   1_554     S
V32     V4    10.0   1_554     S
