data_wiq
_audit_creation_date              2020-02-02
_audit_creation_method            'Pymatgen'
_symmetry_space_group_name_H-M    'P1'
_symmetry_Int_Tables_number       1
loop_
_symmetry_equiv_pos_as_xyz
  x,y,z
_cell_length_a                    31.779
_cell_length_b                    31.779
_cell_length_c                    33.9376
_cell_angle_alpha                 90.0
_cell_angle_beta                 90.0
_cell_angle_gamma                 90.0
loop_
_atom_site_label
_atom_site_type_symbol
_atom_site_fract_x
_atom_site_fract_y
_atom_site_fract_z
V1     V     0.874   0.1558   0.7708
V2     V     0.626   0.3442   0.7292
V3     V     0.5942   0.376   0.0208
V4     V     0.4058   0.624   0.9792
V5     V     0.126   0.8442   0.2292
V6     V     0.374   0.6558   0.2708
V7     V     0.9058   0.124   0.4792
V8     V     0.0942   0.876   0.5208
V9     V     0.126   0.3442   0.7708
V10     V     0.374   0.1558   0.7292
V11     V     0.9058   0.624   0.5208
V12     V     0.0942   0.376   0.4792
V13     V     0.5942   0.876   0.9792
V14     V     0.4058   0.124   0.0208
V15     V     0.874   0.6558   0.2292
V16     V     0.626   0.8442   0.2708
V17     V     0.9058   0.876   0.0208
V18     V     0.0942   0.124   0.9792
V19     V     0.126   0.1558   0.2708
V20     V     0.374   0.3442   0.2292
V21     V     0.5942   0.624   0.4792
V22     V     0.4058   0.376   0.5208
V23     V     0.874   0.8442   0.7292
V24     V     0.626   0.6558   0.7708
V25     V     0.874   0.3442   0.2708
V26     V     0.626   0.1558   0.2292
V27     V     0.9058   0.376   0.9792
V28     V     0.0942   0.624   0.0208
V29     V     0.5942   0.124   0.5208
V30     V     0.4058   0.876   0.4792
V31     V     0.374   0.8442   0.7708
V32     V     0.126   0.6558   0.7292
loop_
_geom_bond_atom_site_label_1
_geom_bond_atom_site_label_2
_geom_bond_distance
_geom_bond_site_symmetry_2
_ccdc_geom_bond_type
V1     V2    10.0   .     S
V1     V27    10.0   .     S
V1     V7    10.0   .     S
V1     V9    10.0   1_655     S
V1     V18    10.0   1_655     S
V1     V23    10.0   1_545     S
V2     V29    10.0   .     S
V2     V3    10.0   1_556     S
V2     V10    10.0   .     S
V2     V22    10.0   .     S
V2     V24    10.0   .     S
V3     V2    10.0   1_554     S
V3     V4    10.0   1_554     S
V3     V20    10.0   .     S
V3     V14    10.0   .     S
V3     V26    10.0   .     S
V3     V27    10.0   1_554     S
V4     V3    10.0   1_556     S
V4     V24    10.0   .     S
V4     V6    10.0   1_556     S
V4     V13    10.0   .     S
V4     V31    10.0   .     S
V4     V28    10.0   1_556     S
V5     V6    10.0   .     S
V5     V28    10.0   .     S
V5     V8    10.0   .     S
V5     V15    10.0   1_455     S
V5     V17    10.0   1_455     S
V5     V19    10.0   1_565     S
V6     V30    10.0   .     S
V6     V4    10.0   1_554     S
V6     V16    10.0   .     S
V6     V21    10.0   .     S
V6     V20    10.0   .     S
V7     V8    10.0   1_645     S
V7     V19    10.0   1_655     S
V7     V12    10.0   1_655     S
V7     V29    10.0   .     S
V7     V25    10.0   .     S
V8     V7    10.0   1_465     S
V8     V23    10.0   1_455     S
V8     V11    10.0   1_455     S
V8     V30    10.0   .     S
V8     V32    10.0   .     S
V9     V10    10.0   .     S
V9     V18    10.0   .     S
V9     V12    10.0   .     S
V9     V1    10.0   1_455     S
V9     V27    10.0   1_455     S
V9     V32    10.0   .     S
V10     V22    10.0   .     S
V10     V14    10.0   1_556     S
V10     V29    10.0   .     S
V10     V31    10.0   1_545     S
V11     V8    10.0   1_655     S
V11     V12    10.0   1_655     S
V11     V32    10.0   1_655     S
V11     V15    10.0   .     S
V11     V23    10.0   .     S
V11     V21    10.0   .     S
V12     V11    10.0   1_455     S
V12     V25    10.0   1_455     S
V12     V7    10.0   1_455     S
V12     V22    10.0   .     S
V12     V19    10.0   .     S
V13     V14    10.0   1_566     S
V13     V31    10.0   .     S
V13     V16    10.0   1_556     S
V13     V24    10.0   .     S
V13     V17    10.0   1_556     S
V14     V10    10.0   1_554     S
V14     V13    10.0   1_544     S
V14     V26    10.0   .     S
V14     V20    10.0   .     S
V14     V18    10.0   1_554     S
V15     V5    10.0   1_655     S
V15     V16    10.0   .     S
V15     V17    10.0   .     S
V15     V28    10.0   1_655     S
V15     V25    10.0   .     S
V16     V21    10.0   .     S
V16     V13    10.0   1_554     S
V16     V30    10.0   .     S
V16     V26    10.0   1_565     S
V17     V18    10.0   1_664     S
V17     V5    10.0   1_655     S
V17     V23    10.0   1_554     S
V17     V28    10.0   1_655     S
V17     V13    10.0   1_554     S
V18     V17    10.0   1_446     S
V18     V1    10.0   1_455     S
V18     V19    10.0   1_556     S
V18     V27    10.0   1_455     S
V18     V14    10.0   1_556     S
V19     V7    10.0   1_455     S
V19     V20    10.0   .     S
V19     V18    10.0   1_554     S
V19     V25    10.0   1_455     S
V19     V5    10.0   1_545     S
V20     V22    10.0   .     S
V20     V26    10.0   .     S
V21     V22    10.0   .     S
V21     V24    10.0   .     S
V21     V30    10.0   .     S
V22     V29    10.0   .     S
V23     V8    10.0   1_655     S
V23     V24    10.0   .     S
V23     V17    10.0   1_556     S
V23     V32    10.0   1_655     S
V23     V1    10.0   1_565     S
V24     V31    10.0   .     S
V25     V12    10.0   1_655     S
V25     V19    10.0   1_655     S
V25     V26    10.0   .     S
V25     V27    10.0   1_554     S
V26     V29    10.0   .     S
V26     V16    10.0   1_545     S
V27     V28    10.0   1_656     S
V27     V9    10.0   1_655     S
V27     V25    10.0   1_556     S
V27     V18    10.0   1_655     S
V27     V3    10.0   1_556     S
V28     V17    10.0   1_455     S
V28     V27    10.0   1_454     S
V28     V15    10.0   1_455     S
V28     V32    10.0   1_554     S
V28     V4    10.0   1_554     S
V29     V30    10.0   1_545     S
V30     V29    10.0   1_565     S
V30     V31    10.0   .     S
V31     V32    10.0   .     S
V31     V10    10.0   1_565     S
V32     V11    10.0   1_455     S
V32     V28    10.0   1_556     S
V32     V23    10.0   1_455     S
