data_wiw
_audit_creation_date              2020-02-02
_audit_creation_method            'Pymatgen'
_symmetry_space_group_name_H-M    'P1'
_symmetry_Int_Tables_number       1
loop_
_symmetry_equiv_pos_as_xyz
  x,y,z
_cell_length_a                    63.8875
_cell_length_b                    63.8875
_cell_length_c                    21.5669
_cell_angle_alpha                 90.0
_cell_angle_beta                 90.0
_cell_angle_gamma                 120.0
loop_
_atom_site_label
_atom_site_type_symbol
_atom_site_fract_x
_atom_site_fract_y
_atom_site_fract_z
V1     V     0.5602   0.9725   0.5291
V2     V     0.4398   0.0275   0.4709
V3     V     0.5876   0.0275   0.9709
V4     V     0.4124   0.9725   0.0291
V5     V     0.4124   0.4398   0.5291
V6     V     0.5876   0.5602   0.4709
V7     V     0.5602   0.5876   0.0291
V8     V     0.4398   0.4124   0.9709
V9     V     0.7732   0.6941   0.1375
V10     V     0.8935   0.6392   0.1958
V11     V     0.7457   0.6392   0.6958
V12     V     0.921   0.6941   0.6375
V13     V     0.6941   0.7732   0.3625
V14     V     0.6392   0.8935   0.3042
V15     V     0.6392   0.7457   0.8042
V16     V     0.6941   0.921   0.8625
V17     V     0.079   0.7732   0.8625
V18     V     0.2543   0.8935   0.8042
V19     V     0.2268   0.921   0.3625
V20     V     0.1065   0.7457   0.3042
V21     V     0.9725   0.4124   0.4709
V22     V     0.0275   0.5876   0.5291
V23     V     0.9725   0.5602   0.9709
V24     V     0.0275   0.4398   0.0291
V25     V     0.2268   0.3059   0.8625
V26     V     0.1065   0.3608   0.8042
V27     V     0.2543   0.3608   0.3042
V28     V     0.079   0.3059   0.3625
V29     V     0.3608   0.1065   0.6958
V30     V     0.3059   0.2268   0.6375
V31     V     0.3059   0.079   0.1375
V32     V     0.3608   0.2543   0.1958
V33     V     0.7457   0.1065   0.1958
V34     V     0.921   0.2268   0.1375
V35     V     0.8935   0.2543   0.6958
V36     V     0.7732   0.079   0.6375
loop_
_geom_bond_atom_site_label_1
_geom_bond_atom_site_label_2
_geom_bond_distance
_geom_bond_site_symmetry_2
_ccdc_geom_bond_type
V1     V3    10.0   1_565     S
V1     V2    9.999   1_565     S
V1     V14    10.0   .     S
V2     V1    9.999   1_545     S
V2     V4    10.0   1_545     S
V2     V29    10.0   .     S
V3     V1    10.0   1_545     S
V3     V4    9.999   1_546     S
V3     V33    10.0   1_556     S
V4     V2    10.0   1_565     S
V4     V3    9.999   1_564     S
V4     V18    10.0   1_554     S
V5     V6    9.999   .     S
V5     V8    10.0   .     S
V5     V27    10.0   .     S
V6     V7    10.0   .     S
V6     V11    10.0   .     S
V7     V8    9.999   1_554     S
V7     V15    10.0   1_554     S
V8     V7    9.999   1_556     S
V8     V32    10.0   1_556     S
V9     V11    10.0   1_554     S
V9     V10    9.999   .     S
V9     V13    10.0   .     S
V10     V12    10.0   .     S
V10     V23    10.0   1_554     S
V11     V9    10.0   1_556     S
V11     V12    9.999   .     S
V12     V17    10.0   1_655     S
V13     V14    9.999   .     S
V13     V15    10.0   .     S
V14     V16    10.0   1_554     S
V15     V7    10.0   1_556     S
V15     V16    9.999   .     S
V16     V14    10.0   1_556     S
V16     V36    10.0   1_565     S
V17     V12    10.0   1_455     S
V17     V20    10.0   1_556     S
V17     V18    9.999   .     S
V18     V19    10.0   .     S
V18     V4    10.0   1_556     S
V19     V20    9.999   .     S
V19     V31    10.0   1_565     S
V20     V17    10.0   1_554     S
V20     V22    10.0   .     S
V21     V22    9.999   1_655     S
V21     V24    10.0   1_655     S
V21     V35    10.0   .     S
V22     V23    10.0   1_455     S
V22     V21    9.999   1_455     S
V23     V10    10.0   1_556     S
V23     V22    10.0   1_655     S
V23     V24    9.999   1_656     S
V24     V21    10.0   1_455     S
V24     V23    9.999   1_454     S
V24     V26    10.0   1_554     S
V25     V26    9.999   .     S
V25     V27    10.0   1_556     S
V25     V30    10.0   .     S
V26     V24    10.0   1_556     S
V26     V28    10.0   .     S
V27     V25    10.0   1_554     S
V27     V28    9.999   .     S
V28     V34    10.0   1_455     S
V29     V31    10.0   1_556     S
V29     V30    9.999   .     S
V30     V32    10.0   .     S
V31     V29    10.0   1_554     S
V31     V32    9.999   .     S
V31     V19    10.0   1_545     S
V32     V8    10.0   1_554     S
V33     V3    10.0   1_554     S
V33     V34    9.999   .     S
V33     V36    10.0   .     S
V34     V28    10.0   1_655     S
V34     V35    10.0   1_554     S
V35     V34    10.0   1_556     S
V35     V36    9.999   .     S
V36     V16    10.0   1_545     S
