data_wjq
_audit_creation_date              2020-02-02
_audit_creation_method            'Pymatgen'
_symmetry_space_group_name_H-M    'P1'
_symmetry_Int_Tables_number       1
loop_
_symmetry_equiv_pos_as_xyz
  x,y,z
_cell_length_a                    19.3185
_cell_length_b                    19.3185
_cell_length_c                    50.1908
_cell_angle_alpha                 90.0
_cell_angle_beta                 90.0
_cell_angle_gamma                 120.0
loop_
_atom_site_label
_atom_site_type_symbol
_atom_site_fract_x
_atom_site_fract_y
_atom_site_fract_z
V1     V     0.0774   0.2887   0.4038
V2     V     0.7113   0.9226   0.2629
V3     V     0.9226   0.7113   0.4038
V4     V     0.2887   0.0774   0.2629
V5     V     0.9226   0.2113   0.9296
V6     V     0.7113   0.7887   0.0704
V7     V     0.0774   0.7887   0.9296
V8     V     0.2887   0.2113   0.0704
V9     V     0.2113   0.2887   0.5962
V10     V     0.7887   0.7113   0.5962
V11     V     0.7887   0.0774   0.7371
V12     V     0.2113   0.9226   0.7371
loop_
_geom_bond_atom_site_label_1
_geom_bond_atom_site_label_2
_geom_bond_distance
_geom_bond_site_symmetry_2
_ccdc_geom_bond_type
V1     V3    10.0   1_445     S
V1     V4    10.0   .     S
V1     V2    10.0   1_445     S
V1     V3    10.0   1_455     S
V1     V9    10.0   .     S
V2     V3    10.0   .     S
V2     V4    10.0   1_665     S
V2     V1    10.0   1_665     S
V2     V4    10.0   1_565     S
V2     V6    10.0   .     S
V3     V1    10.0   1_665     S
V3     V4    10.0   1_665     S
V3     V1    10.0   1_655     S
V3     V10    10.0   .     S
V4     V2    10.0   1_445     S
V4     V3    10.0   1_445     S
V4     V2    10.0   1_545     S
V4     V8    10.0   .     S
V5     V6    10.0   1_546     S
V5     V7    10.0   1_645     S
V5     V8    10.0   1_656     S
V5     V7    10.0   1_655     S
V5     V11    10.0   .     S
V6     V5    10.0   1_564     S
V6     V8    10.0   1_665     S
V6     V7    10.0   1_654     S
V6     V8    10.0   .     S
V7     V8    10.0   1_566     S
V7     V5    10.0   1_465     S
V7     V6    10.0   1_456     S
V7     V5    10.0   1_455     S
V7     V12    10.0   .     S
V8     V6    10.0   1_445     S
V8     V7    10.0   1_544     S
V8     V5    10.0   1_454     S
V9     V10    10.0   1_445     S
V9     V11    10.0   1_455     S
V9     V12    10.0   1_545     S
V9     V10    10.0   .     S
V10     V12    10.0   1_655     S
V10     V9    10.0   1_665     S
V10     V11    10.0   1_565     S
V11     V9    10.0   1_655     S
V11     V12    10.0   1_645     S
V11     V10    10.0   1_545     S
V11     V12    10.0   1_545     S
V12     V10    10.0   1_455     S
V12     V11    10.0   1_465     S
V12     V9    10.0   1_565     S
V12     V11    10.0   1_565     S
