data_wjt
_audit_creation_date              2020-02-02
_audit_creation_method            'Pymatgen'
_symmetry_space_group_name_H-M    'P1'
_symmetry_Int_Tables_number       1
loop_
_symmetry_equiv_pos_as_xyz
  x,y,z
_cell_length_a                    44.6737
_cell_length_b                    44.6737
_cell_length_c                    20.0
_cell_angle_alpha                 90.0
_cell_angle_beta                 90.0
_cell_angle_gamma                 120.0
loop_
_atom_site_label
_atom_site_type_symbol
_atom_site_fract_x
_atom_site_fract_y
_atom_site_fract_z
V1     V     0.3308   0.4547   0.0951
V2     V     0.3308   0.4547   0.5951
V3     V     0.1238   0.4547   0.4049
V4     V     0.1238   0.4547   0.9049
V5     V     0.5453   0.6692   0.2383
V6     V     0.5453   0.6692   0.7383
V7     V     0.5453   0.8762   0.4284
V8     V     0.5453   0.8762   0.9284
V9     V     0.3308   0.8762   0.0716
V10     V     0.3308   0.8762   0.5716
V11     V     0.1238   0.6692   0.2617
V12     V     0.1238   0.6692   0.7617
V13     V     0.6692   0.5453   0.0951
V14     V     0.6692   0.5453   0.5951
V15     V     0.8762   0.5453   0.4049
V16     V     0.8762   0.5453   0.9049
V17     V     0.6692   0.1238   0.0716
V18     V     0.6692   0.1238   0.5716
V19     V     0.8762   0.3308   0.2617
V20     V     0.8762   0.3308   0.7617
V21     V     0.4547   0.1238   0.4284
V22     V     0.4547   0.1238   0.9284
V23     V     0.4547   0.3308   0.2383
V24     V     0.4547   0.3308   0.7383
loop_
_geom_bond_atom_site_label_1
_geom_bond_atom_site_label_2
_geom_bond_distance
_geom_bond_site_symmetry_2
_ccdc_geom_bond_type
V1     V4    10.0   1_554     S
V1     V2    10.0   .     S
V1     V2    10.0   1_554     S
V1     V5    10.0   .     S
V1     V23    10.001   .     S
V2     V3    10.0   .     S
V2     V1    10.0   1_556     S
V2     V6    10.0   .     S
V2     V24    10.001   .     S
V3     V4    10.0   1_554     S
V3     V4    10.0   .     S
V3     V11    10.0   .     S
V3     V19    10.001   1_455     S
V4     V1    10.0   1_556     S
V4     V3    10.0   1_556     S
V4     V12    10.0   .     S
V4     V20    10.001   1_455     S
V5     V7    10.0   .     S
V5     V6    10.0   .     S
V5     V6    10.0   1_554     S
V5     V13    10.001   .     S
V6     V8    10.0   .     S
V6     V5    10.0   1_556     S
V6     V14    10.001   .     S
V7     V8    10.0   1_554     S
V7     V8    10.0   .     S
V7     V10    10.0   .     S
V7     V18    10.001   1_565     S
V8     V7    10.0   1_556     S
V8     V9    10.0   1_556     S
V8     V17    10.001   1_566     S
V9     V8    10.0   1_554     S
V9     V11    10.0   .     S
V9     V10    10.0   .     S
V9     V10    10.0   1_554     S
V9     V22    10.001   1_564     S
V10     V12    10.0   .     S
V10     V9    10.0   1_556     S
V10     V21    10.001   1_565     S
V11     V12    10.0   1_554     S
V11     V12    10.0   .     S
V11     V15    10.001   1_455     S
V12     V11    10.0   1_556     S
V12     V16    10.001   1_455     S
V13     V16    10.0   1_554     S
V13     V14    10.0   .     S
V13     V14    10.0   1_554     S
V13     V23    10.0   .     S
V14     V15    10.0   .     S
V14     V13    10.0   1_556     S
V14     V24    10.0   .     S
V15     V11    10.001   1_655     S
V15     V16    10.0   1_554     S
V15     V16    10.0   .     S
V15     V19    10.0   .     S
V16     V12    10.001   1_655     S
V16     V13    10.0   1_556     S
V16     V15    10.0   1_556     S
V16     V20    10.0   .     S
V17     V8    10.001   1_544     S
V17     V19    10.0   .     S
V17     V18    10.0   .     S
V17     V18    10.0   1_554     S
V17     V22    10.0   1_554     S
V18     V7    10.001   1_545     S
V18     V20    10.0   .     S
V18     V17    10.0   1_556     S
V18     V21    10.0   .     S
V19     V20    10.0   1_554     S
V19     V20    10.0   .     S
V19     V3    10.001   1_655     S
V20     V19    10.0   1_556     S
V20     V4    10.001   1_655     S
V21     V10    10.001   1_545     S
V21     V23    10.0   .     S
V21     V22    10.0   1_554     S
V21     V22    10.0   .     S
V22     V9    10.001   1_546     S
V22     V17    10.0   1_556     S
V22     V24    10.0   .     S
V22     V21    10.0   1_556     S
V23     V24    10.0   .     S
V23     V24    10.0   1_554     S
V24     V23    10.0   1_556     S
